TITL C-4404-9422-1 252.402132112437 125000 -1174.29415702427 0 0 168 (C1) n - 1
REM
REM in /rds/project/t2_vol4/rds-t2-cs072/BORA/CARBON/from-Arr/AIRSS/Generating-Clusters/GAP-ML-2020/Higher-Symm/SD-CG/HFTN-CG/C160-200
REM
REM
REM
REM
REM
REM ./C.cell (6b4489405718ea1b717e0baf1da4c2d9)
REM AIRSS Version 0.9.1 bugfix July 2018 build 013d7b7c2542+ Fri, 06 Jul 2018 19:26:36 +0100
REM compiler GCC version 9.3.0
REM options -cpp -mtune=generic -march=x86-64 -g -O0
REM seed -704445943 -1742851031 1470870965 1665344601 -1030475295 -2031703041 1948893314 2119236391 -507409772 -1199411101 -107744185 208142010 745061542 1080244575 424005121 -1031551550 705047884 -6160331 -1352014938 175340137 1159245613 -2025621152 -951614940 -1920066922 729189905 -631000548 -1260024212 344673415 -295626800 -1513906938 2114257582 -1815512537 1113140286
REM
CELL 1.54180   50.00000   50.00000   50.00000   90.00000   90.00000   90.00000
LATT -1
SFAC C  
C      1  0.4548640000000  0.5062840000000  0.4004050000000 1.0
C      1  0.5468820000000  0.5908180000000  0.4564960000000 1.0
C      1  0.4573920000000  0.5829750000000  0.5569850000000 1.0
C      1  0.5446380000000  0.4893380000000  0.6040120000000 1.0
C      1  0.4523310000000  0.4153290000000  0.5457010000000 1.0
C      1  0.5455200000000  0.4171080000000  0.4448710000000 1.0
C      1  0.4156230000000  0.5418200000000  0.5238920000000 1.0
C      1  0.5809790000000  0.4906540000000  0.5494510000000 1.0
C      1  0.4163250000000  0.4493490000000  0.5204860000000 1.0
C      1  0.5815980000000  0.4538950000000  0.4609000000000 1.0
C      1  0.4135590000000  0.5082860000000  0.4398160000000 1.0
C      1  0.5792240000000  0.5527660000000  0.4778330000000 1.0
C      1  0.5185570000000  0.4872060000000  0.6158800000000 1.0
C      1  0.4800660000000  0.4056830000000  0.5450670000000 1.0
C      1  0.5177060000000  0.4136280000000  0.4372050000000 1.0
C      1  0.4823330000000  0.5138610000000  0.3933210000000 1.0
C      1  0.5192340000000  0.6009490000000  0.4559420000000 1.0
C      1  0.4853030000000  0.5861370000000  0.5629210000000 1.0
C      1  0.4337990000000  0.4629080000000  0.4081410000000 1.0
C      1  0.5710540000000  0.5643790000000  0.4215790000000 1.0
C      1  0.4309870000000  0.5944010000000  0.5156900000000 1.0
C      1  0.5704800000000  0.5305580000000  0.5888940000000 1.0
C      1  0.4285610000000  0.4401410000000  0.5804370000000 1.0
C      1  0.5685810000000  0.4012310000000  0.4866700000000 1.0
C      1  0.5355860000000  0.4590220000000  0.5153560000000 1.0
C      1  0.4824800000000  0.4516590000000  0.4410350000000 1.0
C      1  0.5275140000000  0.5256700000000  0.4380410000000 1.0
C      1  0.4679660000000  0.5342950000000  0.4846020000000 1.0
C      1  0.5243990000000  0.5365340000000  0.5527980000000 1.0
C      1  0.4856230000000  0.4948200000000  0.5597330000000 1.0
C      1  0.4852650000000  0.4568910000000  0.5269590000000 1.0
C      1  0.5068010000000  0.4480870000000  0.4620010000000 1.0
C      1  0.4950110000000  0.4939710000000  0.4360250000000 1.0
C      1  0.5121730000000  0.5533680000000  0.4720010000000 1.0
C      1  0.4906330000000  0.5565590000000  0.5241420000000 1.0
C      1  0.5073670000000  0.5014330000000  0.5773450000000 1.0
C      1  0.5277570000000  0.4949850000000  0.3989850000000 1.0
C      1  0.4751120000000  0.5849770000000  0.4413130000000 1.0
C      1  0.5273810000000  0.5861150000000  0.5405850000000 1.0
C      1  0.4727550000000  0.5086080000000  0.6098910000000 1.0
C      1  0.5246600000000  0.4168910000000  0.5603930000000 1.0
C      1  0.4725490000000  0.4108240000000  0.4621190000000 1.0
C      1  0.4587830000000  0.5675810000000  0.4282450000000 1.0
C      1  0.5471000000000  0.5983360000000  0.5259870000000 1.0
C      1  0.4557960000000  0.5292680000000  0.6047870000000 1.0
C      1  0.5422770000000  0.4286660000000  0.5767850000000 1.0
C      1  0.4529670000000  0.3996030000000  0.4780470000000 1.0
C      1  0.5470680000000  0.4758410000000  0.4010700000000 1.0
C      1  0.4445050000000  0.5446560000000  0.5318530000000 1.0
C      1  0.5521340000000  0.4899320000000  0.5575790000000 1.0
C      1  0.4630560000000  0.4476290000000  0.5132290000000 1.0
C      1  0.5368810000000  0.4528000000000  0.4603440000000 1.0
C      1  0.4508040000000  0.4991890000000  0.4470760000000 1.0
C      1  0.5338400000000  0.5544990000000  0.4896140000000 1.0
C      1  0.4912710000000  0.5079380000000  0.5337510000000 1.0
C      1  0.5070460000000  0.4648740000000  0.5102260000000 1.0
C      1  0.5021170000000  0.4702740000000  0.4823060000000 1.0
C      1  0.5087110000000  0.5109080000000  0.4542400000000 1.0
C      1  0.4934250000000  0.5330340000000  0.4703690000000 1.0
C      1  0.5001160000000  0.5353120000000  0.5387710000000 1.0
C      1  0.5199910000000  0.4012250000000  0.5134210000000 1.0
C      1  0.4888970000000  0.4433410000000  0.4133300000000 1.0
C      1  0.5197280000000  0.5461600000000  0.4008960000000 1.0
C      1  0.4808880000000  0.6036830000000  0.4884940000000 1.0
C      1  0.5207600000000  0.5589310000000  0.5863210000000 1.0
C      1  0.4805110000000  0.4594910000000  0.6018500000000 1.0
C      1  0.4838260000000  0.4652080000000  0.5540020000000 1.0
C      1  0.5505010000000  0.4588610000000  0.4908130000000 1.0
C      1  0.4730190000000  0.4805220000000  0.4480120000000 1.0
C      1  0.5256740000000  0.5516420000000  0.4456960000000 1.0
C      1  0.4667080000000  0.5507340000000  0.5100980000000 1.0
C      1  0.5329550000000  0.5124070000000  0.5676160000000 1.0
C      1  0.5366600000000  0.5211790000000  0.4099750000000 1.0
C      1  0.4635530000000  0.5901340000000  0.4680730000000 1.0
C      1  0.5371600000000  0.5626180000000  0.5577490000000 1.0
C      1  0.4620970000000  0.4820590000000  0.6016410000000 1.0
C      1  0.5381140000000  0.4106360000000  0.5348090000000 1.0
C      1  0.4620170000000  0.4311470000000  0.4456790000000 1.0
C      1  0.3773690000000  0.4967490000000  0.5136540000000 1.0
C      1  0.6139860000000  0.4820660000000  0.5007260000000 1.0
C      1  0.3781210000000  0.4889470000000  0.4864580000000 1.0
C      1  0.6128180000000  0.5013400000000  0.4800590000000 1.0
C      1  0.3772570000000  0.5164390000000  0.4927090000000 1.0
C      1  0.6152400000000  0.5090100000000  0.5068450000000 1.0
C      1  0.5219510000000  0.4037610000000  0.4844120000000 1.0
C      1  0.4822210000000  0.4665700000000  0.3979850000000 1.0
C      1  0.5215930000000  0.5694460000000  0.4214350000000 1.0
C      1  0.4782740000000  0.6005770000000  0.5171640000000 1.0
C      1  0.5224780000000  0.5349160000000  0.6030290000000 1.0
C      1  0.4797810000000  0.4435320000000  0.5748270000000 1.0
C      1  0.5035050000000  0.4197730000000  0.4150460000000 1.0
C      1  0.4977870000000  0.5362040000000  0.3885330000000 1.0
C      1  0.5036170000000  0.6118150000000  0.4757250000000 1.0
C      1  0.5011140000000  0.5778640000000  0.5835350000000 1.0
C      1  0.5019320000000  0.4652830000000  0.6177000000000 1.0
C      1  0.4962950000000  0.3955590000000  0.5253240000000 1.0
C      1  0.4959980000000  0.4190850000000  0.5642300000000 1.0
C      1  0.5027900000000  0.4160810000000  0.4651140000000 1.0
C      1  0.4988230000000  0.4909820000000  0.4041570000000 1.0
C      1  0.5031880000000  0.5893700000000  0.4346890000000 1.0
C      1  0.4978320000000  0.5849680000000  0.5347200000000 1.0
C      1  0.5030500000000  0.5111970000000  0.6057110000000 1.0
C      1  0.4616000000000  0.5047720000000  0.4910340000000 1.0
C      1  0.5307760000000  0.5091500000000  0.5007760000000 1.0
C      1  0.4645970000000  0.5028700000000  0.5196860000000 1.0
C      1  0.5159420000000  0.4953140000000  0.5219720000000 1.0
C      1  0.4740480000000  0.4788550000000  0.4780980000000 1.0
C      1  0.5227300000000  0.4943680000000  0.4757260000000 1.0
C      1  0.4217010000000  0.5789360000000  0.4949920000000 1.0
C      1  0.5790410000000  0.5371330000000  0.5638240000000 1.0
C      1  0.4255420000000  0.4654050000000  0.5681270000000 1.0
C      1  0.5751310000000  0.4207560000000  0.5041270000000 1.0
C      1  0.4216970000000  0.4584830000000  0.4323030000000 1.0
C      1  0.5782090000000  0.5392360000000  0.4297250000000 1.0
C      1  0.5747480000000  0.4429100000000  0.5488370000000 1.0
C      1  0.4326850000000  0.4412150000000  0.4780830000000 1.0
C      1  0.5705940000000  0.4892710000000  0.4275410000000 1.0
C      1  0.4412450000000  0.5461710000000  0.4628290000000 1.0
C      1  0.5729250000000  0.5646150000000  0.5237290000000 1.0
C      1  0.4539690000000  0.5081360000000  0.5652310000000 1.0
C      1  0.4110820000000  0.4541050000000  0.4918570000000 1.0
C      1  0.5743800000000  0.4841070000000  0.4564730000000 1.0
C      1  0.4184220000000  0.5254290000000  0.4656940000000 1.0
C      1  0.5773220000000  0.5415490000000  0.5056600000000 1.0
C      1  0.4149320000000  0.5149410000000  0.5333810000000 1.0
C      1  0.5882850000000  0.4653580000000  0.5372710000000 1.0
C      1  0.4422790000000  0.4856680000000  0.5805840000000 1.0
C      1  0.5648490000000  0.4219880000000  0.5310130000000 1.0
C      1  0.4350720000000  0.4397690000000  0.4492980000000 1.0
C      1  0.5649160000000  0.5162990000000  0.4187380000000 1.0
C      1  0.4399560000000  0.5747910000000  0.4731400000000 1.0
C      1  0.5660890000000  0.5588460000000  0.5506490000000 1.0
C      1  0.5922390000000  0.5073070000000  0.4625550000000 1.0
C      1  0.3960380000000  0.5351480000000  0.4830700000000 1.0
C      1  0.5970030000000  0.5250950000000  0.5203900000000 1.0
C      1  0.3983970000000  0.4929810000000  0.5328990000000 1.0
C      1  0.5962930000000  0.4627590000000  0.5100010000000 1.0
C      1  0.3966070000000  0.4722230000000  0.4738190000000 1.0
C      1  0.4459750000000  0.5444920000000  0.4343980000000 1.0
C      1  0.5632280000000  0.5857390000000  0.5081250000000 1.0
C      1  0.4499280000000  0.5352680000000  0.5787740000000 1.0
C      1  0.5613870000000  0.4472510000000  0.5744590000000 1.0
C      1  0.4380960000000  0.4156120000000  0.4935370000000 1.0
C      1  0.5625120000000  0.4633360000000  0.4189540000000 1.0
C      1  0.4585560000000  0.4560310000000  0.4881190000000 1.0
C      1  0.5463640000000  0.4789270000000  0.4699260000000 1.0
C      1  0.4391570000000  0.5043740000000  0.4729720000000 1.0
C      1  0.5455010000000  0.5327610000000  0.5018390000000 1.0
C      1  0.4446840000000  0.5138870000000  0.5379460000000 1.0
C      1  0.5367790000000  0.4796800000000  0.5350150000000 1.0
C      1  0.4549310000000  0.4767980000000  0.3986030000000 1.0
C      1  0.5490750000000  0.5780910000000  0.4301150000000 1.0
C      1  0.4532750000000  0.5962440000000  0.5305540000000 1.0
C      1  0.5461430000000  0.5187700000000  0.5953110000000 1.0
C      1  0.4516810000000  0.4297830000000  0.5704880000000 1.0
C      1  0.5470490000000  0.4038340000000  0.4705740000000 1.0
C      1  0.5902220000000  0.5169120000000  0.5462410000000 1.0
C      1  0.4111340000000  0.4679010000000  0.5417460000000 1.0
C      1  0.5787710000000  0.4482440000000  0.4909810000000 1.0
C      1  0.4065450000000  0.4796030000000  0.4465730000000 1.0
C      1  0.5862070000000  0.5349010000000  0.4567700000000 1.0
C      1  0.4054090000000  0.5549720000000  0.5014870000000 1.0
C      1  0.4401390000000  0.4288570000000  0.5214890000000 1.0
C      1  0.5599110000000  0.4432930000000  0.4428300000000 1.0
C      1  0.4404040000000  0.5165270000000  0.4251080000000 1.0
C      1  0.5586980000000  0.5749520000000  0.4796160000000 1.0
C      1  0.4472900000000  0.5566750000000  0.5592500000000 1.0
C      1  0.5550030000000  0.4740510000000  0.5826050000000 1.0
END
