TITL C-4404-9422-3 0.643743073353737 125000 -1322.89399051317 0 0 187 (C3) n - 1
REM
REM in /rds/project/t2_vol4/rds-t2-cs072/BORA/CARBON/from-Arr/AIRSS/Generating-Clusters/GAP-ML-2020/Higher-Symm/SD-CG/HFTN-CG/C160-200
REM
REM
REM
REM
REM
REM ./C.cell (6b4489405718ea1b717e0baf1da4c2d9)
REM AIRSS Version 0.9.1 bugfix July 2018 build 013d7b7c2542+ Fri, 06 Jul 2018 19:26:36 +0100
REM compiler GCC version 9.3.0
REM options -cpp -mtune=generic -march=x86-64 -g -O0
REM seed 834837252 -1305093539 1338513202 599144847 117687738 -873882338 -1178008109 -844042042 -2043777067 -1476214607 -1619752228 -2210895 661337161 1473009465 305501323 1822228837 2045302677 -1335072199 -608698592 1003717682 814186161 686809237 -99295270 403859675 -1957114015 124320900 302644187 -1138923856 136248319 -861749175 -506412757 2117907798 157676052
REM
CELL 1.54180   50.00000   50.00000   50.00000   90.00000   90.00000   90.00000
LATT -1
SFAC C  
C      1  0.4535480000000  0.4302650000000  0.4462780000000 1.0
C      1  0.5826470000000  0.4948510000000  0.4455060000000 1.0
C      1  0.4621640000000  0.5743630000000  0.4460580000000 1.0
C      1  0.4816080000000  0.5240200000000  0.4077430000000 1.0
C      1  0.4870760000000  0.4723840000000  0.4077760000000 1.0
C      1  0.5290590000000  0.5029370000000  0.4075130000000 1.0
C      1  0.4995130000000  0.5594700000000  0.5419130000000 1.0
C      1  0.4486470000000  0.4697830000000  0.5422940000000 1.0
C      1  0.5517500000000  0.4705740000000  0.5417390000000 1.0
C      1  0.5620060000000  0.4693320000000  0.4121900000000 1.0
C      1  0.4942800000000  0.5693420000000  0.4124340000000 1.0
C      1  0.4415340000000  0.4606840000000  0.4128490000000 1.0
C      1  0.5167310000000  0.4449910000000  0.5971470000000 1.0
C      1  0.5396810000000  0.5417760000000  0.5969070000000 1.0
C      1  0.4443880000000  0.5132590000000  0.5974540000000 1.0
C      1  0.5258020000000  0.4582390000000  0.5035840000000 1.0
C      1  0.5228210000000  0.5432740000000  0.5034980000000 1.0
C      1  0.4506690000000  0.4981750000000  0.5039400000000 1.0
C      1  0.4901280000000  0.5292030000000  0.6032660000000 1.0
C      1  0.4801090000000  0.4766140000000  0.6033830000000 1.0
C      1  0.5306620000000  0.4942310000000  0.6030900000000 1.0
C      1  0.5140770000000  0.5495840000000  0.4577800000000 1.0
C      1  0.4491600000000  0.4875780000000  0.4582040000000 1.0
C      1  0.5353170000000  0.4623610000000  0.4577710000000 1.0
C      1  0.4140370000000  0.4985400000000  0.5601270000000 1.0
C      1  0.5443120000000  0.4261720000000  0.5595130000000 1.0
C      1  0.5418460000000  0.5751780000000  0.5593470000000 1.0
C      1  0.4467230000000  0.5802690000000  0.5469160000000 1.0
C      1  0.4570730000000  0.4136520000000  0.5470610000000 1.0
C      1  0.5961910000000  0.5059230000000  0.5462020000000 1.0
C      1  0.4973310000000  0.4726290000000  0.5511290000000 1.0
C      1  0.5250250000000  0.5112870000000  0.5509340000000 1.0
C      1  0.4777000000000  0.5159430000000  0.5511830000000 1.0
C      1  0.5997170000000  0.5479190000000  0.4840920000000 1.0
C      1  0.4080250000000  0.5625020000000  0.4851060000000 1.0
C      1  0.4912430000000  0.3891980000000  0.4848670000000 1.0
C      1  0.5155530000000  0.4740410000000  0.3968300000000 1.0
C      1  0.5132880000000  0.5268020000000  0.3967780000000 1.0
C      1  0.4687280000000  0.4984600000000  0.3970520000000 1.0
C      1  0.4387060000000  0.4891640000000  0.4089750000000 1.0
C      1  0.5387210000000  0.4526550000000  0.4084810000000 1.0
C      1  0.5203310000000  0.5575260000000  0.4084530000000 1.0
C      1  0.4229390000000  0.5755490000000  0.5305100000000 1.0
C      1  0.4729010000000  0.3954610000000  0.5304580000000 1.0
C      1  0.6038790000000  0.5287730000000  0.5295930000000 1.0
C      1  0.5216320000000  0.4257020000000  0.5767940000000 1.0
C      1  0.5537490000000  0.5557230000000  0.5764640000000 1.0
C      1  0.4250910000000  0.5185270000000  0.5772010000000 1.0
C      1  0.4984750000000  0.5265410000000  0.5076900000000 1.0
C      1  0.4773700000000  0.4854460000000  0.5078530000000 1.0
C      1  0.5235120000000  0.4877160000000  0.5076020000000 1.0
C      1  0.5505670000000  0.5138290000000  0.6019200000000 1.0
C      1  0.4631930000000  0.5366460000000  0.6023620000000 1.0
C      1  0.4871210000000  0.4495690000000  0.6023380000000 1.0
C      1  0.4821380000000  0.3967800000000  0.4589870000000 1.0
C      1  0.5974670000000  0.5363170000000  0.4581990000000 1.0
C      1  0.4189620000000  0.5664280000000  0.4591230000000 1.0
C      1  0.5287480000000  0.5061700000000  0.4386190000000 1.0
C      1  0.4792470000000  0.5220450000000  0.4388660000000 1.0
C      1  0.4902500000000  0.4712380000000  0.4388680000000 1.0
C      1  0.4568660000000  0.5352850000000  0.5424920000000 1.0
C      1  0.4909170000000  0.4449400000000  0.5424180000000 1.0
C      1  0.5521310000000  0.5196020000000  0.5419990000000 1.0
C      1  0.4998070000000  0.3978830000000  0.5392420000000 1.0
C      1  0.5884100000000  0.5508380000000  0.5385810000000 1.0
C      1  0.4116470000000  0.5510950000000  0.5395320000000 1.0
C      1  0.4959970000000  0.4148610000000  0.4417120000000 1.0
C      1  0.5747230000000  0.5393280000000  0.4411380000000 1.0
C      1  0.4275700000000  0.5452750000000  0.4419230000000 1.0
C      1  0.4000780000000  0.5306100000000  0.5220610000000 1.0
C      1  0.5231720000000  0.3981560000000  0.5215590000000 1.0
C      1  0.5763310000000  0.5709860000000  0.5210650000000 1.0
C      1  0.4980710000000  0.4176210000000  0.5615090000000 1.0
C      1  0.5723880000000  0.5394030000000  0.5609630000000 1.0
C      1  0.4297640000000  0.5428730000000  0.5617260000000 1.0
C      1  0.5083080000000  0.4865170000000  0.3686840000000 1.0
C      1  0.5058490000000  0.5143700000000  0.3686630000000 1.0
C      1  0.4829570000000  0.4983140000000  0.3688060000000 1.0
C      1  0.4699850000000  0.4182420000000  0.5723160000000 1.0
C      1  0.5859900000000  0.5147380000000  0.5715760000000 1.0
C      1  0.4444200000000  0.5669560000000  0.5722740000000 1.0
C      1  0.4527370000000  0.5259030000000  0.5159110000000 1.0
C      1  0.5008640000000  0.4461320000000  0.5157480000000 1.0
C      1  0.5458840000000  0.5276970000000  0.5154080000000 1.0
C      1  0.5708250000000  0.4943680000000  0.5358480000000 1.0
C      1  0.4693170000000  0.5641090000000  0.5363100000000 1.0
C      1  0.4596750000000  0.4413290000000  0.5365100000000 1.0
C      1  0.4952330000000  0.4840030000000  0.5795010000000 1.0
C      1  0.5164840000000  0.5037030000000  0.5793630000000 1.0
C      1  0.4887980000000  0.5122560000000  0.5795020000000 1.0
C      1  0.5200310000000  0.4506840000000  0.4767290000000 1.0
C      1  0.5320030000000  0.5421310000000  0.4765540000000 1.0
C      1  0.4468240000000  0.5067760000000  0.4770550000000 1.0
C      1  0.5846840000000  0.4453320000000  0.4509830000000 1.0
C      1  0.5040800000000  0.6008700000000  0.4512290000000 1.0
C      1  0.4096840000000  0.4532960000000  0.4519150000000 1.0
C      1  0.5394160000000  0.5723290000000  0.4266590000000 1.0
C      1  0.4165100000000  0.4982390000000  0.4274100000000 1.0
C      1  0.5421270000000  0.4288430000000  0.4268180000000 1.0
C      1  0.5848060000000  0.4389440000000  0.5396390000000 1.0
C      1  0.5103580000000  0.6039180000000  0.5398400000000 1.0
C      1  0.4047140000000  0.4569570000000  0.5405860000000 1.0
C      1  0.5656440000000  0.4252230000000  0.4443170000000 1.0
C      1  0.5309530000000  0.5944550000000  0.4442990000000 1.0
C      1  0.4017420000000  0.4797960000000  0.4451330000000 1.0
C      1  0.5464030000000  0.5969680000000  0.4683360000000 1.0
C      1  0.3920600000000  0.4918510000000  0.4692930000000 1.0
C      1  0.5602650000000  0.4107430000000  0.4684860000000 1.0
C      1  0.5295570000000  0.6042760000000  0.4903190000000 1.0
C      1  0.3943530000000  0.4735460000000  0.4912040000000 1.0
C      1  0.5751700000000  0.4218190000000  0.4902940000000 1.0
C      1  0.4746480000000  0.4870820000000  0.5396030000000 1.0
C      1  0.5237450000000  0.4844490000000  0.5393420000000 1.0
C      1  0.5014760000000  0.5282860000000  0.5394090000000 1.0
C      1  0.4199930000000  0.5819350000000  0.5028000000000 1.0
C      1  0.4685920000000  0.3897960000000  0.5027700000000 1.0
C      1  0.6106870000000  0.5279530000000  0.5018390000000 1.0
C      1  0.6224990000000  0.4788140000000  0.4937240000000 1.0
C      1  0.4565680000000  0.6167570000000  0.4944500000000 1.0
C      1  0.4200740000000  0.4040840000000  0.4949030000000 1.0
C      1  0.4522520000000  0.4488540000000  0.5088080000000 1.0
C      1  0.5677670000000  0.4842560000000  0.5081440000000 1.0
C      1  0.4793500000000  0.5665950000000  0.5085200000000 1.0
C      1  0.4784600000000  0.4563540000000  0.4985370000000 1.0
C      1  0.5480750000000  0.5032320000000  0.4981060000000 1.0
C      1  0.4726710000000  0.5400830000000  0.4984670000000 1.0
C      1  0.5821260000000  0.5689050000000  0.4916230000000 1.0
C      1  0.3987150000000  0.5367540000000  0.4926480000000 1.0
C      1  0.5182650000000  0.3939880000000  0.4921770000000 1.0
C      1  0.4660550000000  0.4532360000000  0.4035610000000 1.0
C      1  0.5561120000000  0.4943190000000  0.4030270000000 1.0
C      1  0.4755050000000  0.5517700000000  0.4033910000000 1.0
C      1  0.4914010000000  0.4477290000000  0.4742850000000 1.0
C      1  0.5488540000000  0.5188200000000  0.4738900000000 1.0
C      1  0.4585610000000  0.5330320000000  0.4743580000000 1.0
C      1  0.5523030000000  0.5817190000000  0.5333150000000 1.0
C      1  0.4029080000000  0.5044000000000  0.5342120000000 1.0
C      1  0.5445650000000  0.4136780000000  0.5335590000000 1.0
C      1  0.5705060000000  0.4980010000000  0.5882220000000 1.0
C      1  0.4668070000000  0.5618670000000  0.5887030000000 1.0
C      1  0.4633480000000  0.4401270000000  0.5888680000000 1.0
C      1  0.4053130000000  0.4268060000000  0.5002850000000 1.0
C      1  0.6102510000000  0.4546550000000  0.4991490000000 1.0
C      1  0.4836630000000  0.6182130000000  0.4996330000000 1.0
C      1  0.5339670000000  0.4011440000000  0.4680670000000 1.0
C      1  0.5678590000000  0.5789940000000  0.4676700000000 1.0
C      1  0.3968920000000  0.5194210000000  0.4686620000000 1.0
C      1  0.4582860000000  0.5443590000000  0.4475980000000 1.0
C      1  0.4814850000000  0.4419040000000  0.4475970000000 1.0
C      1  0.5586130000000  0.5132220000000  0.4470960000000 1.0
C      1  0.5923990000000  0.4411930000000  0.4789900000000 1.0
C      1  0.5040630000000  0.6095420000000  0.4792630000000 1.0
C      1  0.4024390000000  0.4488660000000  0.4800030000000 1.0
C      1  0.4250750000000  0.4706300000000  0.5611570000000 1.0
C      1  0.5629740000000  0.4496830000000  0.5604410000000 1.0
C      1  0.5121640000000  0.5795820000000  0.5605570000000 1.0
C      1  0.6165710000000  0.5038430000000  0.4854590000000 1.0
C      1  0.4377810000000  0.5991320000000  0.4863060000000 1.0
C      1  0.4446560000000  0.3966500000000  0.4865130000000 1.0
C      1  0.4967560000000  0.5690940000000  0.5856260000000 1.0
C      1  0.4420890000000  0.4624590000000  0.5860490000000 1.0
C      1  0.5617700000000  0.4684320000000  0.5853980000000 1.0
C      1  0.5651340000000  0.4285090000000  0.5181210000000 1.0
C      1  0.5290350000000  0.5921600000000  0.5181180000000 1.0
C      1  0.4053600000000  0.4790720000000  0.5189200000000 1.0
C      1  0.4362300000000  0.4742960000000  0.5148150000000 1.0
C      1  0.5537990000000  0.4576430000000  0.5142030000000 1.0
C      1  0.5094360000000  0.5677880000000  0.5143080000000 1.0
C      1  0.6034730000000  0.5089310000000  0.4598330000000 1.0
C      1  0.4396900000000  0.5853180000000  0.4606220000000 1.0
C      1  0.4554310000000  0.4052820000000  0.4607540000000 1.0
C      1  0.4318950000000  0.4449850000000  0.4358600000000 1.0
C      1  0.5806310000000  0.4687680000000  0.4350310000000 1.0
C      1  0.4856650000000  0.5856880000000  0.4354010000000 1.0
C      1  0.5180350000000  0.4805340000000  0.4481410000000 1.0
C      1  0.5068910000000  0.5255580000000  0.4481470000000 1.0
C      1  0.4734710000000  0.4933950000000  0.4483660000000 1.0
C      1  0.5374800000000  0.4658100000000  0.6003740000000 1.0
C      1  0.5113080000000  0.5493260000000  0.6004140000000 1.0
C      1  0.4520670000000  0.4849030000000  0.6008100000000 1.0
C      1  0.4113740000000  0.5229810000000  0.4418880000000 1.0
C      1  0.5234010000000  0.4119820000000  0.4414190000000 1.0
C      1  0.5635130000000  0.5645000000000  0.4410200000000 1.0
C      1  0.6055550000000  0.4480160000000  0.5265460000000 1.0
C      1  0.4920100000000  0.6173880000000  0.5269530000000 1.0
C      1  0.4021050000000  0.4343690000000  0.5276570000000 1.0
C      1  0.4997370000000  0.4998900000000  0.4985820000000 1.0
END
