TITL C-44232-4020-1 -1.58280428510129 125000 -1216.58058081755 0 0 173 (C1) n - 1
REM
REM in /rds/project/t2_vol4/rds-t2-cs072/BORA/CARBON/from-Arr/AIRSS/Generating-Clusters/GAP-ML-2020/Higher-Symm/SD-CG/HFTN-CG/C160-200
REM
REM
REM
REM
REM
REM ./C.cell (6b4489405718ea1b717e0baf1da4c2d9)
REM AIRSS Version 0.9.1 bugfix July 2018 build 013d7b7c2542+ Fri, 06 Jul 2018 19:26:36 +0100
REM compiler GCC version 9.3.0
REM options -cpp -mtune=generic -march=x86-64 -g -O0
REM seed 1873924727 -636462937 1992754349 369416481 1365414524 -408047359 -1711351575 -382602381 -162619400 986278417 450808900 -856912516 1517809984 -945484802 -808930584 1847744351 -864402455 1412496100 -901204536 738798256 -1038363919 1002502257 -278793630 684639244 -687225804 -1709581086 -760421128 -765006098 -347313973 -1518847995 218648912 -45766717 -163996927
REM
CELL 1.54180   50.00000   50.00000   50.00000   90.00000   90.00000   90.00000
LATT -1
SFAC C  
C      1  0.5446920000000  0.5571150000000  0.4185000000000 1.0
C      1  0.5701810000000  0.5142730000000  0.4219890000000 1.0
C      1  0.5608270000000  0.4653240000000  0.4192590000000 1.0
C      1  0.5271170000000  0.4294760000000  0.4163700000000 1.0
C      1  0.4784910000000  0.4318320000000  0.4167160000000 1.0
C      1  0.4387610000000  0.4631980000000  0.4256920000000 1.0
C      1  0.4302440000000  0.5153550000000  0.4245750000000 1.0
C      1  0.4534310000000  0.5609910000000  0.4197000000000 1.0
C      1  0.5000670000000  0.5783210000000  0.4151750000000 1.0
C      1  0.4135100000000  0.4557110000000  0.5809630000000 1.0
C      1  0.4066680000000  0.5098290000000  0.5798040000000 1.0
C      1  0.4523400000000  0.5559420000000  0.5780140000000 1.0
C      1  0.5043520000000  0.5868190000000  0.5753300000000 1.0
C      1  0.5561240000000  0.5701880000000  0.5718820000000 1.0
C      1  0.5859240000000  0.5176450000000  0.5737810000000 1.0
C      1  0.5680170000000  0.4653120000000  0.5775570000000 1.0
C      1  0.5288560000000  0.4226840000000  0.5778060000000 1.0
C      1  0.4659410000000  0.4236070000000  0.5733350000000 1.0
C      1  0.5881360000000  0.4445050000000  0.5159220000000 1.0
C      1  0.5353710000000  0.3927520000000  0.5149530000000 1.0
C      1  0.4565160000000  0.4092790000000  0.5045190000000 1.0
C      1  0.4014810000000  0.4490140000000  0.5167290000000 1.0
C      1  0.3934900000000  0.5191920000000  0.5138910000000 1.0
C      1  0.4372460000000  0.5789020000000  0.5156000000000 1.0
C      1  0.5025210000000  0.6106410000000  0.5112320000000 1.0
C      1  0.5679780000000  0.5723560000000  0.5052080000000 1.0
C      1  0.6098300000000  0.5155690000000  0.5081290000000 1.0
C      1  0.6062190000000  0.5248190000000  0.4810620000000 1.0
C      1  0.6015150000000  0.4482190000000  0.4912290000000 1.0
C      1  0.5462790000000  0.3987170000000  0.4864730000000 1.0
C      1  0.4741330000000  0.4011440000000  0.4820080000000 1.0
C      1  0.4123030000000  0.4385580000000  0.4929510000000 1.0
C      1  0.3930360000000  0.5093820000000  0.4854520000000 1.0
C      1  0.4272040000000  0.5743430000000  0.4887740000000 1.0
C      1  0.4915160000000  0.6098790000000  0.4841110000000 1.0
C      1  0.5615670000000  0.5846270000000  0.4799960000000 1.0
C      1  0.4953710000000  0.4525510000000  0.5541960000000 1.0
C      1  0.4754610000000  0.4739120000000  0.5429240000000 1.0
C      1  0.4665360000000  0.4967140000000  0.5580130000000 1.0
C      1  0.4600810000000  0.5218720000000  0.5414980000000 1.0
C      1  0.4858430000000  0.5372050000000  0.5362210000000 1.0
C      1  0.5123490000000  0.5311240000000  0.5468670000000 1.0
C      1  0.5329510000000  0.5166010000000  0.5315890000000 1.0
C      1  0.5376150000000  0.4894330000000  0.5461110000000 1.0
C      1  0.5209030000000  0.4654840000000  0.5349620000000 1.0
C      1  0.5857750000000  0.4528760000000  0.5421460000000 1.0
C      1  0.5360870000000  0.4009600000000  0.5425420000000 1.0
C      1  0.4617610000000  0.4118310000000  0.5329080000000 1.0
C      1  0.4000670000000  0.4443660000000  0.5437750000000 1.0
C      1  0.3911150000000  0.5161890000000  0.5417230000000 1.0
C      1  0.4362300000000  0.5714110000000  0.5427740000000 1.0
C      1  0.4988040000000  0.6078790000000  0.5391860000000 1.0
C      1  0.5668180000000  0.5788860000000  0.5327400000000 1.0
C      1  0.6047770000000  0.5193420000000  0.5354510000000 1.0
C      1  0.4564480000000  0.5798880000000  0.5622100000000 1.0
C      1  0.5217390000000  0.5997470000000  0.5558200000000 1.0
C      1  0.5765680000000  0.5605160000000  0.5534000000000 1.0
C      1  0.5939240000000  0.4990750000000  0.5536120000000 1.0
C      1  0.5717300000000  0.4393510000000  0.5639630000000 1.0
C      1  0.5125300000000  0.4082540000000  0.5582350000000 1.0
C      1  0.4441570000000  0.4189440000000  0.5559360000000 1.0
C      1  0.3932110000000  0.4663470000000  0.5627710000000 1.0
C      1  0.4098830000000  0.5301850000000  0.5599360000000 1.0
C      1  0.5700740000000  0.5443250000000  0.4999850000000 1.0
C      1  0.5944140000000  0.4917440000000  0.4996830000000 1.0
C      1  0.5626180000000  0.4333130000000  0.5110250000000 1.0
C      1  0.5101050000000  0.4017350000000  0.5059580000000 1.0
C      1  0.4344850000000  0.4218330000000  0.4892440000000 1.0
C      1  0.4084420000000  0.4760390000000  0.5105830000000 1.0
C      1  0.4183930000000  0.5330250000000  0.5096830000000 1.0
C      1  0.4644310000000  0.5828790000000  0.5096470000000 1.0
C      1  0.5216160000000  0.5910740000000  0.5023720000000 1.0
C      1  0.5022820000000  0.4351730000000  0.4027030000000 1.0
C      1  0.4594210000000  0.4511200000000  0.4093500000000 1.0
C      1  0.4377770000000  0.4898090000000  0.4145870000000 1.0
C      1  0.4448400000000  0.5351200000000  0.4103240000000 1.0
C      1  0.4771420000000  0.5648020000000  0.4047460000000 1.0
C      1  0.5214540000000  0.5635470000000  0.4038900000000 1.0
C      1  0.5554510000000  0.5338410000000  0.4075170000000 1.0
C      1  0.5629570000000  0.4908000000000  0.4079270000000 1.0
C      1  0.5416630000000  0.4507810000000  0.4052400000000 1.0
C      1  0.4524020000000  0.5680350000000  0.4472270000000 1.0
C      1  0.5011570000000  0.5857500000000  0.4423750000000 1.0
C      1  0.5456780000000  0.5582230000000  0.4464090000000 1.0
C      1  0.5753900000000  0.5128490000000  0.4517890000000 1.0
C      1  0.5826730000000  0.4567980000000  0.4587260000000 1.0
C      1  0.5305100000000  0.4231080000000  0.4451560000000 1.0
C      1  0.4845290000000  0.4295920000000  0.4437910000000 1.0
C      1  0.4295710000000  0.4512880000000  0.4504250000000 1.0
C      1  0.4268870000000  0.5223250000000  0.4512690000000 1.0
C      1  0.4968020000000  0.4519300000000  0.5846420000000 1.0
C      1  0.4563070000000  0.4669530000000  0.5965710000000 1.0
C      1  0.4669050000000  0.4930110000000  0.5867100000000 1.0
C      1  0.4523500000000  0.5141720000000  0.5986270000000 1.0
C      1  0.4955790000000  0.5397030000000  0.5930890000000 1.0
C      1  0.5155290000000  0.5200750000000  0.5787870000000 1.0
C      1  0.5417430000000  0.5286020000000  0.5907890000000 1.0
C      1  0.5235600000000  0.4921930000000  0.5734020000000 1.0
C      1  0.5355040000000  0.4723120000000  0.5921490000000 1.0
C      1  0.5115670000000  0.6033760000000  0.4629510000000 1.0
C      1  0.5693950000000  0.5638850000000  0.4613410000000 1.0
C      1  0.6019500000000  0.5021910000000  0.4631880000000 1.0
C      1  0.5855560000000  0.4323020000000  0.4726620000000 1.0
C      1  0.5257890000000  0.4009490000000  0.4650730000000 1.0
C      1  0.4662420000000  0.4152770000000  0.4589840000000 1.0
C      1  0.4109170000000  0.4588980000000  0.4710560000000 1.0
C      1  0.4058570000000  0.5293570000000  0.4689210000000 1.0
C      1  0.4456540000000  0.5855410000000  0.4684830000000 1.0
C      1  0.5136360000000  0.5627150000000  0.5075020000000 1.0
C      1  0.5567350000000  0.5221310000000  0.5144000000000 1.0
C      1  0.5663790000000  0.4961680000000  0.5049380000000 1.0
C      1  0.5337000000000  0.4477240000000  0.5133540000000 1.0
C      1  0.5097180000000  0.4317780000000  0.5072120000000 1.0
C      1  0.4567920000000  0.4676310000000  0.5197810000000 1.0
C      1  0.4352590000000  0.4854660000000  0.5182630000000 1.0
C      1  0.4447720000000  0.5133110000000  0.5141010000000 1.0
C      1  0.4851010000000  0.5570030000000  0.5137860000000 1.0
C      1  0.5529180000000  0.4169240000000  0.5630090000000 1.0
C      1  0.4867520000000  0.4216520000000  0.5509220000000 1.0
C      1  0.4201330000000  0.4337240000000  0.5620700000000 1.0
C      1  0.3892550000000  0.4939970000000  0.5618540000000 1.0
C      1  0.4360480000000  0.5428990000000  0.5553410000000 1.0
C      1  0.4807680000000  0.5948280000000  0.5600760000000 1.0
C      1  0.5477560000000  0.5903730000000  0.5526730000000 1.0
C      1  0.5936730000000  0.5385570000000  0.5553200000000 1.0
C      1  0.5726820000000  0.4794050000000  0.5508510000000 1.0
C      1  0.5013270000000  0.3936430000000  0.4802570000000 1.0
C      1  0.4416340000000  0.4274870000000  0.4623050000000 1.0
C      1  0.3996430000000  0.4823080000000  0.4837220000000 1.0
C      1  0.4142230000000  0.5500290000000  0.4870840000000 1.0
C      1  0.4664380000000  0.5973740000000  0.4849450000000 1.0
C      1  0.5361570000000  0.5978550000000  0.4784640000000 1.0
C      1  0.5807110000000  0.5389880000000  0.4724030000000 1.0
C      1  0.6009550000000  0.4747160000000  0.4758050000000 1.0
C      1  0.5665110000000  0.4174190000000  0.4874720000000 1.0
C      1  0.5530800000000  0.4946030000000  0.4593320000000 1.0
C      1  0.5569490000000  0.4665390000000  0.4483620000000 1.0
C      1  0.5325380000000  0.4505680000000  0.4587410000000 1.0
C      1  0.5003540000000  0.4540240000000  0.4575390000000 1.0
C      1  0.4893650000000  0.4826530000000  0.4549140000000 1.0
C      1  0.4539110000000  0.5244440000000  0.4619040000000 1.0
C      1  0.4727850000000  0.5475410000000  0.4602440000000 1.0
C      1  0.4982970000000  0.5566670000000  0.4497090000000 1.0
C      1  0.5222470000000  0.5460660000000  0.4596920000000 1.0
C      1  0.4289600000000  0.4721300000000  0.5981610000000 1.0
C      1  0.4261320000000  0.5015420000000  0.5981480000000 1.0
C      1  0.4667150000000  0.5387800000000  0.5950950000000 1.0
C      1  0.5111310000000  0.5640210000000  0.5909180000000 1.0
C      1  0.5394270000000  0.5570900000000  0.5901930000000 1.0
C      1  0.5641040000000  0.5109850000000  0.5908880000000 1.0
C      1  0.5609300000000  0.4830390000000  0.5979200000000 1.0
C      1  0.5226770000000  0.4467510000000  0.5926970000000 1.0
C      1  0.4706550000000  0.4437530000000  0.5922900000000 1.0
C      1  0.4639920000000  0.5147870000000  0.4880670000000 1.0
C      1  0.4831330000000  0.5386080000000  0.4889340000000 1.0
C      1  0.5155290000000  0.5386170000000  0.4876620000000 1.0
C      1  0.5285110000000  0.5157550000000  0.5009290000000 1.0
C      1  0.5427810000000  0.4913580000000  0.4866490000000 1.0
C      1  0.5303690000000  0.4630220000000  0.4873360000000 1.0
C      1  0.4991730000000  0.4517250000000  0.4883050000000 1.0
C      1  0.4797230000000  0.4704060000000  0.4995620000000 1.0
C      1  0.4742130000000  0.4891820000000  0.4784480000000 1.0
C      1  0.4628510000000  0.5223130000000  0.3918740000000 1.0
C      1  0.4846420000000  0.5410070000000  0.3890050000000 1.0
C      1  0.5135510000000  0.5409020000000  0.3878770000000 1.0
C      1  0.5360870000000  0.5225300000000  0.3887400000000 1.0
C      1  0.5414570000000  0.4945380000000  0.3886650000000 1.0
C      1  0.5266920000000  0.4697100000000  0.3880450000000 1.0
C      1  0.4998960000000  0.4600940000000  0.3876960000000 1.0
C      1  0.4722030000000  0.4693470000000  0.3908370000000 1.0
C      1  0.4576140000000  0.4937470000000  0.3936810000000 1.0
C      1  0.5004280000000  0.5000040000000  0.4374330000000 1.0
C      1  0.4970510000000  0.4797070000000  0.5228650000000 1.0
END
