TITL C-44222-2574-1 1.23699797567259 125000 -1215.96875516517 0 0 173 (C1) n - 1
REM
REM in /rds/project/t2_vol4/rds-t2-cs072/BORA/CARBON/from-Arr/AIRSS/Generating-Clusters/GAP-ML-2020/Higher-Symm/SD-CG/HFTN-CG/C160-200
REM
REM
REM
REM
REM
REM ./C.cell (6b4489405718ea1b717e0baf1da4c2d9)
REM AIRSS Version 0.9.1 bugfix July 2018 build 013d7b7c2542+ Fri, 06 Jul 2018 19:26:36 +0100
REM compiler GCC version 9.3.0
REM options -cpp -mtune=generic -march=x86-64 -g -O0
REM seed 1056562682 -1855155557 678527399 1194899606 1965893093 558727145 1010377089 1431696370 -1681855397 1579513193 -344670952 -269327550 1292248326 1108992257 1066524529 145049684 2030302800 1733120242 13172711 -132291638 1257924773 -2024122646 -744243111 -1097568949 2123073903 -1834240239 -922771207 948521659 1534806410 -1218165109 383994333 1234765662 653108407
REM
CELL 1.54180   50.00000   50.00000   50.00000   90.00000   90.00000   90.00000
LATT -1
SFAC C  
C      1  0.5964230000000  0.4526750000000  0.5256650000000 1.0
C      1  0.4018290000000  0.5492150000000  0.4721880000000 1.0
C      1  0.5599070000000  0.5840320000000  0.4524870000000 1.0
C      1  0.4401280000000  0.4161690000000  0.5450820000000 1.0
C      1  0.4861680000000  0.4077800000000  0.5595710000000 1.0
C      1  0.5131270000000  0.5911210000000  0.4385040000000 1.0
C      1  0.5829260000000  0.4060410000000  0.5122460000000 1.0
C      1  0.4152480000000  0.5944860000000  0.4887840000000 1.0
C      1  0.4943990000000  0.4243290000000  0.4364080000000 1.0
C      1  0.5059210000000  0.5772560000000  0.5623880000000 1.0
C      1  0.6150770000000  0.4853660000000  0.4881110000000 1.0
C      1  0.3870320000000  0.5162570000000  0.5113900000000 1.0
C      1  0.5638270000000  0.4061430000000  0.4923080000000 1.0
C      1  0.4352450000000  0.5928930000000  0.5069450000000 1.0
C      1  0.4541270000000  0.5680950000000  0.5682550000000 1.0
C      1  0.5453810000000  0.4314870000000  0.4320610000000 1.0
C      1  0.4163320000000  0.5749190000000  0.4687230000000 1.0
C      1  0.5804750000000  0.4284300000000  0.5284830000000 1.0
C      1  0.5278290000000  0.5878040000000  0.4874360000000 1.0
C      1  0.4726310000000  0.4132600000000  0.5105230000000 1.0
C      1  0.4526640000000  0.5197790000000  0.5890790000000 1.0
C      1  0.5493440000000  0.4790310000000  0.4123910000000 1.0
C      1  0.5753160000000  0.5867330000000  0.4765870000000 1.0
C      1  0.4249500000000  0.4139520000000  0.5208880000000 1.0
C      1  0.5117010000000  0.6012380000000  0.5109700000000 1.0
C      1  0.4883030000000  0.3993110000000  0.4867060000000 1.0
C      1  0.4734160000000  0.5148580000000  0.5664330000000 1.0
C      1  0.5278150000000  0.4855040000000  0.4340970000000 1.0
C      1  0.5151540000000  0.4060300000000  0.4792200000000 1.0
C      1  0.4848820000000  0.5939280000000  0.5180920000000 1.0
C      1  0.5325200000000  0.4099590000000  0.5318770000000 1.0
C      1  0.4647570000000  0.5913480000000  0.4657220000000 1.0
C      1  0.5961610000000  0.5217270000000  0.4660150000000 1.0
C      1  0.4047990000000  0.4788680000000  0.5330860000000 1.0
C      1  0.5334360000000  0.5946520000000  0.4578430000000 1.0
C      1  0.4665120000000  0.4056140000000  0.5396840000000 1.0
C      1  0.3996440000000  0.5393390000000  0.4989330000000 1.0
C      1  0.6019840000000  0.4626080000000  0.4992900000000 1.0
C      1  0.5435490000000  0.5248530000000  0.4138760000000 1.0
C      1  0.4576610000000  0.4740800000000  0.5845800000000 1.0
C      1  0.5190690000000  0.5708800000000  0.4175860000000 1.0
C      1  0.4800770000000  0.4269360000000  0.5811730000000 1.0
C      1  0.4984940000000  0.4742730000000  0.4301060000000 1.0
C      1  0.5031610000000  0.5268440000000  0.5713680000000 1.0
C      1  0.4409470000000  0.5091160000000  0.4964790000000 1.0
C      1  0.5587840000000  0.4914070000000  0.5038050000000 1.0
C      1  0.4269010000000  0.4671550000000  0.5505430000000 1.0
C      1  0.5737240000000  0.5328030000000  0.4484030000000 1.0
C      1  0.5104650000000  0.4627630000000  0.6025750000000 1.0
C      1  0.4866100000000  0.5335950000000  0.4017870000000 1.0
C      1  0.4693220000000  0.5111680000000  0.4835510000000 1.0
C      1  0.5395390000000  0.4828410000000  0.5248870000000 1.0
C      1  0.4614110000000  0.4954730000000  0.6058030000000 1.0
C      1  0.5377370000000  0.5007650000000  0.3951220000000 1.0
C      1  0.5561550000000  0.5858650000000  0.4971870000000 1.0
C      1  0.4442850000000  0.4153550000000  0.5005290000000 1.0
C      1  0.4952330000000  0.5472990000000  0.4651660000000 1.0
C      1  0.5054520000000  0.4529550000000  0.5361290000000 1.0
C      1  0.5920340000000  0.4499220000000  0.4394930000000 1.0
C      1  0.4087250000000  0.5499640000000  0.5618320000000 1.0
C      1  0.4274590000000  0.5703690000000  0.5571830000000 1.0
C      1  0.5725870000000  0.4300830000000  0.4432530000000 1.0
C      1  0.4694940000000  0.4123280000000  0.4468940000000 1.0
C      1  0.5307410000000  0.5888730000000  0.5512130000000 1.0
C      1  0.5743470000000  0.4675930000000  0.4956430000000 1.0
C      1  0.4276160000000  0.5344720000000  0.5014640000000 1.0
C      1  0.5748630000000  0.4900530000000  0.4221200000000 1.0
C      1  0.4266080000000  0.5094080000000  0.5781920000000 1.0
C      1  0.4682500000000  0.5563860000000  0.5045110000000 1.0
C      1  0.5328820000000  0.4428920000000  0.4958120000000 1.0
C      1  0.5146780000000  0.4080200000000  0.5542970000000 1.0
C      1  0.4845660000000  0.5917970000000  0.4433530000000 1.0
C      1  0.5501670000000  0.5462410000000  0.5590090000000 1.0
C      1  0.4516410000000  0.4549770000000  0.4391220000000 1.0
C      1  0.5755820000000  0.4798230000000  0.5662600000000 1.0
C      1  0.4243310000000  0.5207210000000  0.4352220000000 1.0
C      1  0.5430440000000  0.5548970000000  0.4183120000000 1.0
C      1  0.4568230000000  0.4439570000000  0.5803000000000 1.0
C      1  0.5274810000000  0.5156610000000  0.4384620000000 1.0
C      1  0.4744500000000  0.4849050000000  0.5611070000000 1.0
C      1  0.4551290000000  0.5048810000000  0.5232870000000 1.0
C      1  0.5439050000000  0.4954530000000  0.4778640000000 1.0
C      1  0.6066480000000  0.4980700000000  0.5342760000000 1.0
C      1  0.3931480000000  0.5026570000000  0.4653490000000 1.0
C      1  0.5174130000000  0.5073550000000  0.4870710000000 1.0
C      1  0.4785450000000  0.4935030000000  0.5068930000000 1.0
C      1  0.4960220000000  0.4464410000000  0.4180780000000 1.0
C      1  0.5033120000000  0.5558940000000  0.5823520000000 1.0
C      1  0.4279380000000  0.4927460000000  0.4349910000000 1.0
C      1  0.5727280000000  0.5080070000000  0.5650750000000 1.0
C      1  0.5702610000000  0.5170390000000  0.4234640000000 1.0
C      1  0.4306870000000  0.4825790000000  0.5753890000000 1.0
C      1  0.4931660000000  0.4720010000000  0.4603080000000 1.0
C      1  0.5090850000000  0.5287970000000  0.5407700000000 1.0
C      1  0.6052410000000  0.4951700000000  0.4620060000000 1.0
C      1  0.3964990000000  0.5057180000000  0.5374400000000 1.0
C      1  0.4970820000000  0.4729630000000  0.6249870000000 1.0
C      1  0.4899090000000  0.5063440000000  0.3923080000000 1.0
C      1  0.5650610000000  0.5664980000000  0.5168060000000 1.0
C      1  0.4352700000000  0.4346230000000  0.4808190000000 1.0
C      1  0.5136500000000  0.4957420000000  0.3843150000000 1.0
C      1  0.4764400000000  0.4889200000000  0.6281190000000 1.0
C      1  0.4500060000000  0.5634210000000  0.4312450000000 1.0
C      1  0.5485070000000  0.4388320000000  0.5684320000000 1.0
C      1  0.5965110000000  0.4733910000000  0.5456320000000 1.0
C      1  0.4018000000000  0.5272850000000  0.4538190000000 1.0
C      1  0.5345880000000  0.5403570000000  0.5353810000000 1.0
C      1  0.4662560000000  0.4620180000000  0.4630520000000 1.0
C      1  0.5053070000000  0.4367710000000  0.5911540000000 1.0
C      1  0.4938900000000  0.5605010000000  0.4075070000000 1.0
C      1  0.3995780000000  0.4225520000000  0.5122960000000 1.0
C      1  0.6005890000000  0.5780530000000  0.4854400000000 1.0
C      1  0.4612570000000  0.5283780000000  0.5397130000000 1.0
C      1  0.5393660000000  0.4717760000000  0.4609240000000 1.0
C      1  0.4368650000000  0.4395400000000  0.5608300000000 1.0
C      1  0.5632500000000  0.5602240000000  0.4373510000000 1.0
C      1  0.4831510000000  0.5586280000000  0.6001390000000 1.0
C      1  0.5161790000000  0.4493780000000  0.4002680000000 1.0
C      1  0.4423200000000  0.5511950000000  0.5180250000000 1.0
C      1  0.5586060000000  0.4489890000000  0.4820030000000 1.0
C      1  0.4831480000000  0.5464330000000  0.5312370000000 1.0
C      1  0.5175710000000  0.4537640000000  0.4695550000000 1.0
C      1  0.5262780000000  0.5105630000000  0.5829050000000 1.0
C      1  0.4762530000000  0.4917790000000  0.4167900000000 1.0
C      1  0.4074120000000  0.5225700000000  0.5602280000000 1.0
C      1  0.5941010000000  0.4773520000000  0.4402150000000 1.0
C      1  0.5027950000000  0.4769290000000  0.5544010000000 1.0
C      1  0.4991550000000  0.5236660000000  0.4472550000000 1.0
C      1  0.5720860000000  0.5182650000000  0.5128200000000 1.0
C      1  0.4281280000000  0.4826440000000  0.4863930000000 1.0
C      1  0.4035520000000  0.4726730000000  0.5031180000000 1.0
C      1  0.5969240000000  0.5281250000000  0.4961090000000 1.0
C      1  0.3860240000000  0.4954380000000  0.4925060000000 1.0
C      1  0.6145090000000  0.5057230000000  0.5073260000000 1.0
C      1  0.5857750000000  0.5159720000000  0.5406930000000 1.0
C      1  0.4141220000000  0.4847640000000  0.4587740000000 1.0
C      1  0.4543640000000  0.4781090000000  0.5374670000000 1.0
C      1  0.5471740000000  0.5221090000000  0.4616580000000 1.0
C      1  0.5542220000000  0.5712670000000  0.5465650000000 1.0
C      1  0.4461810000000  0.4299040000000  0.4511940000000 1.0
C      1  0.4312830000000  0.5755840000000  0.5291430000000 1.0
C      1  0.5696450000000  0.4244250000000  0.4711980000000 1.0
C      1  0.4649000000000  0.5879240000000  0.4969550000000 1.0
C      1  0.5342870000000  0.4115630000000  0.5007720000000 1.0
C      1  0.5510340000000  0.5228100000000  0.5750650000000 1.0
C      1  0.4496460000000  0.4783380000000  0.4233980000000 1.0
C      1  0.5249720000000  0.4800950000000  0.5813420000000 1.0
C      1  0.4746060000000  0.5214220000000  0.4265380000000 1.0
C      1  0.4662850000000  0.4651860000000  0.5121240000000 1.0
C      1  0.5337290000000  0.5357500000000  0.4857640000000 1.0
C      1  0.5174300000000  0.5575130000000  0.4797610000000 1.0
C      1  0.4842400000000  0.4443140000000  0.5183760000000 1.0
C      1  0.4474870000000  0.5355370000000  0.4283160000000 1.0
C      1  0.5522200000000  0.4659110000000  0.5756360000000 1.0
C      1  0.4743220000000  0.5399110000000  0.4824490000000 1.0
C      1  0.5324560000000  0.4542750000000  0.5237590000000 1.0
C      1  0.5161390000000  0.4982300000000  0.5359120000000 1.0
C      1  0.4946010000000  0.5021620000000  0.4677840000000 1.0
C      1  0.5505250000000  0.5387880000000  0.5110230000000 1.0
C      1  0.4494430000000  0.4617430000000  0.4869170000000 1.0
C      1  0.5524970000000  0.4316740000000  0.5395580000000 1.0
C      1  0.4413220000000  0.5786080000000  0.4543430000000 1.0
C      1  0.4058470000000  0.4427740000000  0.4953480000000 1.0
C      1  0.5943180000000  0.5582700000000  0.5030130000000 1.0
C      1  0.4735810000000  0.3918120000000  0.4643050000000 1.0
C      1  0.5264140000000  0.6089240000000  0.5333980000000 1.0
C      1  0.4584830000000  0.5508130000000  0.5916330000000 1.0
C      1  0.5416390000000  0.4494400000000  0.4097080000000 1.0
C      1  0.5254190000000  0.4248980000000  0.5755700000000 1.0
C      1  0.4742790000000  0.5747160000000  0.4226790000000 1.0
C      1  0.4817800000000  0.5749800000000  0.5454280000000 1.0
C      1  0.5186690000000  0.4254280000000  0.4535870000000 1.0
C      1  0.5063620000000  0.4961470000000  0.5101820000000 1.0
END
