TITL C-44212-2572-3 39.4891081271931 125000 -1223.07018455695 0 0 175 (C1) n - 1
REM
REM in /rds/project/t2_vol4/rds-t2-cs072/BORA/CARBON/from-Arr/AIRSS/Generating-Clusters/GAP-ML-2020/Higher-Symm/SD-CG/HFTN-CG/C160-200
REM
REM
REM
REM
REM
REM ./C.cell (6b4489405718ea1b717e0baf1da4c2d9)
REM AIRSS Version 0.9.1 bugfix July 2018 build 013d7b7c2542+ Fri, 06 Jul 2018 19:26:36 +0100
REM compiler GCC version 9.3.0
REM options -cpp -mtune=generic -march=x86-64 -g -O0
REM seed -195781500 -1451629078 468152014 1318199525 1026047244 -639816122 654147232 -2115571879 1065637525 -2079666191 690625438 1408140113 672576470 -564639483 -1743563115 -540573806 -970105998 -1065472871 886180947 1268959369 273888258 -652447372 -1412954571 109951945 -416538994 -1502471524 267963539 292281337 705237528 -1394645472 -2020003626 -1980309636 720277505
REM
CELL 1.54180   50.00000   50.00000   50.00000   90.00000   90.00000   90.00000
LATT -1
SFAC C  
C      1  0.4435570000000  0.4447990000000  0.5617250000000 1.0
C      1  0.5560580000000  0.5544420000000  0.5599660000000 1.0
C      1  0.5560340000000  0.4446900000000  0.5616600000000 1.0
C      1  0.4435510000000  0.5546190000000  0.5602520000000 1.0
C      1  0.4466520000000  0.5432930000000  0.4756220000000 1.0
C      1  0.5530330000000  0.4535120000000  0.4780150000000 1.0
C      1  0.5521340000000  0.5435650000000  0.4755620000000 1.0
C      1  0.4463900000000  0.4538050000000  0.4780550000000 1.0
C      1  0.5139860000000  0.4181360000000  0.5584520000000 1.0
C      1  0.4858470000000  0.5797630000000  0.5558510000000 1.0
C      1  0.4855540000000  0.4181740000000  0.5584630000000 1.0
C      1  0.5141140000000  0.5795850000000  0.5555290000000 1.0
C      1  0.4851190000000  0.5635730000000  0.4814820000000 1.0
C      1  0.5136400000000  0.4367540000000  0.4902100000000 1.0
C      1  0.5132810000000  0.5593520000000  0.4835800000000 1.0
C      1  0.4856840000000  0.4368480000000  0.4902280000000 1.0
C      1  0.5146310000000  0.3868400000000  0.4867660000000 1.0
C      1  0.4865690000000  0.6112520000000  0.4873050000000 1.0
C      1  0.4849180000000  0.3868250000000  0.4867810000000 1.0
C      1  0.5154910000000  0.6126620000000  0.4869830000000 1.0
C      1  0.5150370000000  0.4704470000000  0.5263800000000 1.0
C      1  0.4845390000000  0.5286120000000  0.5236890000000 1.0
C      1  0.4844630000000  0.4705860000000  0.5263200000000 1.0
C      1  0.5146820000000  0.5280150000000  0.5239360000000 1.0
C      1  0.5138350000000  0.4729870000000  0.6040990000000 1.0
C      1  0.4857970000000  0.5259150000000  0.6024860000000 1.0
C      1  0.4858040000000  0.4730140000000  0.6041020000000 1.0
C      1  0.5137960000000  0.5259230000000  0.6024550000000 1.0
C      1  0.5907630000000  0.4440300000000  0.4819270000000 1.0
C      1  0.4092380000000  0.5555570000000  0.4806510000000 1.0
C      1  0.4087000000000  0.4437620000000  0.4821610000000 1.0
C      1  0.5894690000000  0.5557510000000  0.4806410000000 1.0
C      1  0.5313570000000  0.3916610000000  0.4632740000000 1.0
C      1  0.4746490000000  0.5935570000000  0.4668900000000 1.0
C      1  0.4681840000000  0.3916220000000  0.4633030000000 1.0
C      1  0.5313540000000  0.6093110000000  0.4631860000000 1.0
C      1  0.4442220000000  0.5269510000000  0.5484580000000 1.0
C      1  0.5555480000000  0.4724890000000  0.5501780000000 1.0
C      1  0.5551960000000  0.5268210000000  0.5483530000000 1.0
C      1  0.4440310000000  0.4726040000000  0.5502020000000 1.0
C      1  0.4681040000000  0.3976860000000  0.5086100000000 1.0
C      1  0.5319590000000  0.6007870000000  0.5076660000000 1.0
C      1  0.5314430000000  0.3976630000000  0.5085780000000 1.0
C      1  0.4684530000000  0.6024630000000  0.5091010000000 1.0
C      1  0.6022830000000  0.4677530000000  0.5301960000000 1.0
C      1  0.3975470000000  0.5319310000000  0.5294050000000 1.0
C      1  0.3972870000000  0.4676320000000  0.5304050000000 1.0
C      1  0.6018450000000  0.5321150000000  0.5290860000000 1.0
C      1  0.4030750000000  0.5277130000000  0.4821350000000 1.0
C      1  0.5966650000000  0.4719510000000  0.4831390000000 1.0
C      1  0.5959770000000  0.5280140000000  0.4820630000000 1.0
C      1  0.4026410000000  0.4716430000000  0.4833880000000 1.0
C      1  0.4450750000000  0.5954740000000  0.4729750000000 1.0
C      1  0.5576260000000  0.4004680000000  0.4724630000000 1.0
C      1  0.5577400000000  0.5996350000000  0.4717510000000 1.0
C      1  0.4418980000000  0.4003260000000  0.4725510000000 1.0
C      1  0.4265690000000  0.5563050000000  0.4560720000000 1.0
C      1  0.5735610000000  0.4430340000000  0.4577590000000 1.0
C      1  0.5715920000000  0.5564590000000  0.4565450000000 1.0
C      1  0.4259180000000  0.4428560000000  0.4579330000000 1.0
C      1  0.4726760000000  0.5163040000000  0.5512270000000 1.0
C      1  0.5269300000000  0.4830520000000  0.5525620000000 1.0
C      1  0.5266940000000  0.5160970000000  0.5512640000000 1.0
C      1  0.4726270000000  0.4831870000000  0.5525220000000 1.0
C      1  0.5924300000000  0.4402250000000  0.5321460000000 1.0
C      1  0.4076480000000  0.5591830000000  0.5310820000000 1.0
C      1  0.4071950000000  0.4401310000000  0.5322940000000 1.0
C      1  0.5916680000000  0.5593430000000  0.5307300000000 1.0
C      1  0.5149530000000  0.5825420000000  0.4186240000000 1.0
C      1  0.4848000000000  0.4249590000000  0.4229160000000 1.0
C      1  0.4843340000000  0.5816140000000  0.4175220000000 1.0
C      1  0.5145420000000  0.4248540000000  0.4228740000000 1.0
C      1  0.5159560000000  0.4654100000000  0.5760830000000 1.0
C      1  0.4836670000000  0.5338820000000  0.5745420000000 1.0
C      1  0.4836570000000  0.4654860000000  0.5760650000000 1.0
C      1  0.5158690000000  0.5338260000000  0.5744740000000 1.0
C      1  0.5267920000000  0.4967470000000  0.4331490000000 1.0
C      1  0.4849510000000  0.5235700000000  0.4314310000000 1.0
C      1  0.4733550000000  0.4973880000000  0.4332630000000 1.0
C      1  0.5159750000000  0.5231680000000  0.4312490000000 1.0
C      1  0.4044590000000  0.5145150000000  0.4567010000000 1.0
C      1  0.5953200000000  0.4852820000000  0.4574610000000 1.0
C      1  0.5946810000000  0.5149720000000  0.4566450000000 1.0
C      1  0.4038430000000  0.4848450000000  0.4576640000000 1.0
C      1  0.4149840000000  0.4644010000000  0.4399580000000 1.0
C      1  0.5829930000000  0.5354400000000  0.4384770000000 1.0
C      1  0.5842860000000  0.4647750000000  0.4397620000000 1.0
C      1  0.4161320000000  0.5347640000000  0.4382850000000 1.0
C      1  0.4655290000000  0.4846430000000  0.5067160000000 1.0
C      1  0.5337390000000  0.5134790000000  0.5053550000000 1.0
C      1  0.5339140000000  0.4843370000000  0.5067580000000 1.0
C      1  0.4657370000000  0.5138760000000  0.5052260000000 1.0
C      1  0.4838770000000  0.4151140000000  0.5285190000000 1.0
C      1  0.5155500000000  0.5826540000000  0.5254380000000 1.0
C      1  0.5156190000000  0.4150410000000  0.5285120000000 1.0
C      1  0.4838810000000  0.5832950000000  0.5258010000000 1.0
C      1  0.5766900000000  0.5142980000000  0.5645910000000 1.0
C      1  0.4226800000000  0.4861340000000  0.5656600000000 1.0
C      1  0.4227880000000  0.5143060000000  0.5648030000000 1.0
C      1  0.5769440000000  0.4861200000000  0.5655300000000 1.0
C      1  0.5529980000000  0.4546970000000  0.4033400000000 1.0
C      1  0.4449980000000  0.5495920000000  0.4016280000000 1.0
C      1  0.4464450000000  0.4551560000000  0.4035490000000 1.0
C      1  0.5556150000000  0.5520020000000  0.4019450000000 1.0
C      1  0.5134770000000  0.4748680000000  0.4195980000000 1.0
C      1  0.4866540000000  0.5371430000000  0.4052640000000 1.0
C      1  0.4860490000000  0.4751880000000  0.4195890000000 1.0
C      1  0.5146410000000  0.5374130000000  0.4055550000000 1.0
C      1  0.4404030000000  0.4056110000000  0.4995660000000 1.0
C      1  0.5591250000000  0.5930550000000  0.4984220000000 1.0
C      1  0.5591390000000  0.4056890000000  0.4994850000000 1.0
C      1  0.4405740000000  0.5932810000000  0.4995900000000 1.0
C      1  0.4738990000000  0.4422110000000  0.5161410000000 1.0
C      1  0.5240540000000  0.5559280000000  0.5115230000000 1.0
C      1  0.5255590000000  0.4420690000000  0.5160980000000 1.0
C      1  0.4745250000000  0.5570210000000  0.5110080000000 1.0
C      1  0.5880160000000  0.5156260000000  0.5078120000000 1.0
C      1  0.4111430000000  0.4837460000000  0.5087660000000 1.0
C      1  0.4112750000000  0.5155680000000  0.5079470000000 1.0
C      1  0.5882880000000  0.4838250000000  0.5086040000000 1.0
C      1  0.5592600000000  0.5825700000000  0.4486240000000 1.0
C      1  0.4391060000000  0.4176530000000  0.4493960000000 1.0
C      1  0.4396750000000  0.5821420000000  0.4477850000000 1.0
C      1  0.5603450000000  0.4177860000000  0.4492920000000 1.0
C      1  0.4669280000000  0.5890940000000  0.4381480000000 1.0
C      1  0.5333040000000  0.4097610000000  0.4393430000000 1.0
C      1  0.5330050000000  0.5930070000000  0.4384020000000 1.0
C      1  0.4661380000000  0.4097230000000  0.4393610000000 1.0
C      1  0.5601090000000  0.4734550000000  0.5185420000000 1.0
C      1  0.4397380000000  0.5254520000000  0.5169260000000 1.0
C      1  0.4394140000000  0.4736280000000  0.5185980000000 1.0
C      1  0.5596460000000  0.5252860000000  0.5170070000000 1.0
C      1  0.5746340000000  0.5376150000000  0.4117300000000 1.0
C      1  0.4245080000000  0.4637700000000  0.4133550000000 1.0
C      1  0.4254710000000  0.5360550000000  0.4115880000000 1.0
C      1  0.5746620000000  0.4640350000000  0.4131780000000 1.0
C      1  0.4850910000000  0.4570360000000  0.4698630000000 1.0
C      1  0.5153490000000  0.5378740000000  0.4624920000000 1.0
C      1  0.5140590000000  0.4569480000000  0.4698550000000 1.0
C      1  0.4844290000000  0.5382550000000  0.4611780000000 1.0
C      1  0.5534670000000  0.5515140000000  0.5042290000000 1.0
C      1  0.4448510000000  0.4466920000000  0.5068540000000 1.0
C      1  0.4454400000000  0.5517150000000  0.5041600000000 1.0
C      1  0.5546820000000  0.4464750000000  0.5068010000000 1.0
C      1  0.3971270000000  0.5143980000000  0.5518510000000 1.0
C      1  0.6024990000000  0.4857740000000  0.5522140000000 1.0
C      1  0.6022650000000  0.5145810000000  0.5515040000000 1.0
C      1  0.3970630000000  0.4855980000000  0.5524660000000 1.0
C      1  0.5774870000000  0.5692940000000  0.5051250000000 1.0
C      1  0.4207000000000  0.4295910000000  0.5067690000000 1.0
C      1  0.4211850000000  0.5691010000000  0.5055440000000 1.0
C      1  0.5790030000000  0.4296420000000  0.5066130000000 1.0
C      1  0.4698440000000  0.5607130000000  0.5688050000000 1.0
C      1  0.5298980000000  0.4383020000000  0.5704420000000 1.0
C      1  0.5298660000000  0.5604800000000  0.5685650000000 1.0
C      1  0.4696960000000  0.4383990000000  0.5704490000000 1.0
C      1  0.5293720000000  0.5611110000000  0.4033190000000 1.0
C      1  0.4726900000000  0.4504830000000  0.4133360000000 1.0
C      1  0.4709500000000  0.5597610000000  0.4015920000000 1.0
C      1  0.5266850000000  0.4501780000000  0.4132110000000 1.0
C      1  0.5238470000000  0.5139300000000  0.6262540000000 1.0
C      1  0.4759890000000  0.4865170000000  0.6272960000000 1.0
C      1  0.4758120000000  0.5139280000000  0.6263290000000 1.0
C      1  0.5236890000000  0.4865220000000  0.6272470000000 1.0
C      1  0.4186660000000  0.5649120000000  0.5554550000000 1.0
C      1  0.5809000000000  0.4347450000000  0.5562920000000 1.0
C      1  0.5808740000000  0.5649430000000  0.5552050000000 1.0
C      1  0.4187220000000  0.4347510000000  0.5564560000000 1.0
C      1  0.5339550000000  0.4747060000000  0.4773160000000 1.0
C      1  0.4653890000000  0.5215160000000  0.4751390000000 1.0
C      1  0.4653890000000  0.4750840000000  0.4772420000000 1.0
C      1  0.5344690000000  0.5207040000000  0.4754710000000 1.0
C      1  0.4636930000000  0.4969550000000  0.4594180000000 1.0
C      1  0.5359110000000  0.4964490000000  0.4594840000000 1.0
C      1  0.4998540000000  0.5004060000000  0.6378580000000 1.0
END
