TITL C-44231-2558-3 -0.315390717256449 125000 -1336.49651693431 0 0 188 (C1) n - 1
REM
REM in /rds/project/t2_vol4/rds-t2-cs072/BORA/CARBON/from-Arr/AIRSS/Generating-Clusters/GAP-ML-2020/Higher-Symm/SD-CG/HFTN-CG/C160-200
REM
REM
REM
REM
REM
REM ./C.cell (6b4489405718ea1b717e0baf1da4c2d9)
REM AIRSS Version 0.9.1 bugfix July 2018 build 013d7b7c2542+ Fri, 06 Jul 2018 19:26:36 +0100
REM compiler GCC version 9.3.0
REM options -cpp -mtune=generic -march=x86-64 -g -O0
REM seed 982131361 1555789006 1674409971 2097770550 -975807351 1787028675 1454446918 147109452 -68818419 -1923194758 -1305649671 -195762674 603098994 -1552831185 1844131038 1320247830 -506963118 -1062939392 1118357846 -279177394 2099868047 1463992113 -1711799058 -1241824707 2079459397 1940728973 -1244020268 -492617048 -572981573 669415408 -923698778 1905892467 507610088
REM
CELL 1.54180   50.00000   50.00000   50.00000   90.00000   90.00000   90.00000
LATT -1
SFAC C  
C      1  0.4180250000000  0.5802510000000  0.5170930000000 1.0
C      1  0.5822070000000  0.4209790000000  0.4851300000000 1.0
C      1  0.5143550000000  0.3842010000000  0.4944130000000 1.0
C      1  0.4850650000000  0.6152180000000  0.5055430000000 1.0
C      1  0.4744070000000  0.5772630000000  0.4094230000000 1.0
C      1  0.5249400000000  0.4223790000000  0.5906890000000 1.0
C      1  0.5476560000000  0.4302920000000  0.5766570000000 1.0
C      1  0.4517050000000  0.5687310000000  0.4232570000000 1.0
C      1  0.5921520000000  0.5507510000000  0.5105520000000 1.0
C      1  0.4073240000000  0.4496080000000  0.4887320000000 1.0
C      1  0.4801870000000  0.5307810000000  0.5055030000000 1.0
C      1  0.5189810000000  0.4690770000000  0.4943100000000 1.0
C      1  0.5244130000000  0.6041440000000  0.4710110000000 1.0
C      1  0.4748970000000  0.3958810000000  0.5286770000000 1.0
C      1  0.6083640000000  0.4861080000000  0.4951660000000 1.0
C      1  0.3927250000000  0.5148300000000  0.5063770000000 1.0
C      1  0.4999210000000  0.5410040000000  0.4215650000000 1.0
C      1  0.5003060000000  0.4588940000000  0.5780900000000 1.0
C      1  0.4335130000000  0.5462870000000  0.4173660000000 1.0
C      1  0.5669710000000  0.4524820000000  0.5825720000000 1.0
C      1  0.4381400000000  0.4939630000000  0.4098670000000 1.0
C      1  0.5647430000000  0.5041800000000  0.5865210000000 1.0
C      1  0.5423440000000  0.5101350000000  0.4050970000000 1.0
C      1  0.4582640000000  0.4895200000000  0.5952080000000 1.0
C      1  0.4144970000000  0.4555560000000  0.5419600000000 1.0
C      1  0.5852190000000  0.5447880000000  0.4579930000000 1.0
C      1  0.5705480000000  0.5839230000000  0.4844450000000 1.0
C      1  0.4288200000000  0.4164100000000  0.5152230000000 1.0
C      1  0.4720270000000  0.4543230000000  0.5334700000000 1.0
C      1  0.5275880000000  0.5457960000000  0.4665110000000 1.0
C      1  0.5038400000000  0.4821730000000  0.3944260000000 1.0
C      1  0.4973980000000  0.5172110000000  0.6057240000000 1.0
C      1  0.4349370000000  0.4524850000000  0.5627390000000 1.0
C      1  0.5648240000000  0.5474620000000  0.4372710000000 1.0
C      1  0.5457540000000  0.4393050000000  0.5227440000000 1.0
C      1  0.4522770000000  0.5600880000000  0.4771650000000 1.0
C      1  0.4300090000000  0.4284680000000  0.4450930000000 1.0
C      1  0.5700700000000  0.5713630000000  0.5543970000000 1.0
C      1  0.5445200000000  0.4557180000000  0.4039460000000 1.0
C      1  0.4564060000000  0.5439020000000  0.5968480000000 1.0
C      1  0.5672460000000  0.4804850000000  0.5328980000000 1.0
C      1  0.4262160000000  0.5167910000000  0.4692300000000 1.0
C      1  0.5323530000000  0.3969430000000  0.5111240000000 1.0
C      1  0.4667990000000  0.6024770000000  0.4890300000000 1.0
C      1  0.5916210000000  0.4513760000000  0.5704360000000 1.0
C      1  0.4080940000000  0.5433920000000  0.4330710000000 1.0
C      1  0.5186280000000  0.5007650000000  0.4562390000000 1.0
C      1  0.4810840000000  0.4996020000000  0.5439390000000 1.0
C      1  0.5389270000000  0.4249630000000  0.4316600000000 1.0
C      1  0.4619950000000  0.5741800000000  0.5687220000000 1.0
C      1  0.4725450000000  0.4020230000000  0.4332150000000 1.0
C      1  0.5272420000000  0.5975860000000  0.5666990000000 1.0
C      1  0.4160770000000  0.4283030000000  0.4711030000000 1.0
C      1  0.5836300000000  0.5719900000000  0.5283190000000 1.0
C      1  0.6071220000000  0.4573110000000  0.4954160000000 1.0
C      1  0.3933950000000  0.5439000000000  0.5062040000000 1.0
C      1  0.5132960000000  0.6144770000000  0.4962820000000 1.0
C      1  0.4860400000000  0.3853280000000  0.5035820000000 1.0
C      1  0.4936920000000  0.5152850000000  0.4618530000000 1.0
C      1  0.5057870000000  0.4848530000000  0.5380620000000 1.0
C      1  0.5211500000000  0.5803530000000  0.4298850000000 1.0
C      1  0.4784270000000  0.4196540000000  0.5697910000000 1.0
C      1  0.6039860000000  0.4948420000000  0.4680680000000 1.0
C      1  0.3957600000000  0.5058860000000  0.5335770000000 1.0
C      1  0.4986340000000  0.4354490000000  0.4630180000000 1.0
C      1  0.5007210000000  0.5642710000000  0.5366190000000 1.0
C      1  0.5772750000000  0.4546150000000  0.4491430000000 1.0
C      1  0.4229960000000  0.5454010000000  0.5520130000000 1.0
C      1  0.4496030000000  0.6025160000000  0.4659780000000 1.0
C      1  0.5508300000000  0.3972480000000  0.5332070000000 1.0
C      1  0.4731450000000  0.3903000000000  0.4789630000000 1.0
C      1  0.5263340000000  0.6096080000000  0.5209060000000 1.0
C      1  0.5492260000000  0.5290640000000  0.5862060000000 1.0
C      1  0.4529780000000  0.4694820000000  0.4123570000000 1.0
C      1  0.5086690000000  0.5975540000000  0.5420420000000 1.0
C      1  0.4911010000000  0.4022590000000  0.4579000000000 1.0
C      1  0.5396870000000  0.5162170000000  0.4657330000000 1.0
C      1  0.4600600000000  0.4840130000000  0.5345120000000 1.0
C      1  0.5339580000000  0.4241810000000  0.5008490000000 1.0
C      1  0.4649700000000  0.5752370000000  0.4990650000000 1.0
C      1  0.5508350000000  0.4520240000000  0.4665490000000 1.0
C      1  0.4488760000000  0.5476310000000  0.5338230000000 1.0
C      1  0.5332260000000  0.5397390000000  0.5154390000000 1.0
C      1  0.4660450000000  0.4603720000000  0.4843180000000 1.0
C      1  0.4274710000000  0.4084650000000  0.4875840000000 1.0
C      1  0.5720110000000  0.5917890000000  0.5120630000000 1.0
C      1  0.5435480000000  0.5674800000000  0.4458150000000 1.0
C      1  0.4560320000000  0.4325430000000  0.5539430000000 1.0
C      1  0.5844620000000  0.5047720000000  0.5658360000000 1.0
C      1  0.4177560000000  0.4938250000000  0.4295210000000 1.0
C      1  0.5179070000000  0.3916770000000  0.4657310000000 1.0
C      1  0.4819080000000  0.6080330000000  0.5343750000000 1.0
C      1  0.4771190000000  0.5647070000000  0.5932450000000 1.0
C      1  0.5240760000000  0.4345550000000  0.4071620000000 1.0
C      1  0.4989210000000  0.4305280000000  0.5875470000000 1.0
C      1  0.5005850000000  0.5693110000000  0.4121970000000 1.0
C      1  0.4477000000000  0.5221810000000  0.4087390000000 1.0
C      1  0.5537250000000  0.4775160000000  0.5892500000000 1.0
C      1  0.4757780000000  0.5195660000000  0.4163230000000 1.0
C      1  0.5248870000000  0.4802020000000  0.5831210000000 1.0
C      1  0.4462280000000  0.4047360000000  0.4448170000000 1.0
C      1  0.5534410000000  0.5948660000000  0.5549180000000 1.0
C      1  0.5765310000000  0.3984880000000  0.5254290000000 1.0
C      1  0.4246000000000  0.6017160000000  0.4752540000000 1.0
C      1  0.5335190000000  0.4818840000000  0.3981200000000 1.0
C      1  0.4675450000000  0.5177110000000  0.6022190000000 1.0
C      1  0.5410600000000  0.4235780000000  0.5476220000000 1.0
C      1  0.4581370000000  0.5756180000000  0.4523490000000 1.0
C      1  0.5107500000000  0.4927620000000  0.5086580000000 1.0
C      1  0.4885070000000  0.5071910000000  0.4911470000000 1.0
C      1  0.5181050000000  0.5350080000000  0.5922650000000 1.0
C      1  0.4833860000000  0.4641170000000  0.4075700000000 1.0
C      1  0.4808790000000  0.4140170000000  0.4104360000000 1.0
C      1  0.5191490000000  0.5860550000000  0.5899420000000 1.0
C      1  0.5261810000000  0.5463640000000  0.5429920000000 1.0
C      1  0.4733890000000  0.4535780000000  0.4568040000000 1.0
C      1  0.4987700000000  0.4562640000000  0.5472870000000 1.0
C      1  0.5008840000000  0.5437570000000  0.4525520000000 1.0
C      1  0.4362100000000  0.4778330000000  0.5798790000000 1.0
C      1  0.5640650000000  0.5219490000000  0.4206030000000 1.0
C      1  0.5120720000000  0.4284350000000  0.5429530000000 1.0
C      1  0.4873740000000  0.5714480000000  0.4568350000000 1.0
C      1  0.4436620000000  0.4544440000000  0.4383640000000 1.0
C      1  0.5572550000000  0.5450660000000  0.5611090000000 1.0
C      1  0.4514330000000  0.5280920000000  0.5107740000000 1.0
C      1  0.5476980000000  0.4717550000000  0.4891520000000 1.0
C      1  0.4094410000000  0.5858780000000  0.4906410000000 1.0
C      1  0.5914560000000  0.4167630000000  0.5121250000000 1.0
C      1  0.5143760000000  0.5256530000000  0.5617780000000 1.0
C      1  0.4855080000000  0.4744660000000  0.4387080000000 1.0
C      1  0.6041730000000  0.4559060000000  0.5467280000000 1.0
C      1  0.3959990000000  0.5563670000000  0.4545790000000 1.0
C      1  0.5616250000000  0.4435730000000  0.4249750000000 1.0
C      1  0.4391250000000  0.5561010000000  0.5759760000000 1.0
C      1  0.5064330000000  0.4420800000000  0.4926800000000 1.0
C      1  0.4925540000000  0.5577670000000  0.5068950000000 1.0
C      1  0.5068920000000  0.5931510000000  0.4508560000000 1.0
C      1  0.4924560000000  0.4067820000000  0.5487870000000 1.0
C      1  0.4276150000000  0.4762760000000  0.4511090000000 1.0
C      1  0.5725000000000  0.5236070000000  0.5471370000000 1.0
C      1  0.4391130000000  0.5374370000000  0.4855290000000 1.0
C      1  0.5584510000000  0.4623160000000  0.5145020000000 1.0
C      1  0.4499580000000  0.4104290000000  0.5333790000000 1.0
C      1  0.5494260000000  0.5897580000000  0.4662880000000 1.0
C      1  0.5500990000000  0.5022600000000  0.5373770000000 1.0
C      1  0.4485770000000  0.4979000000000  0.4624070000000 1.0
C      1  0.5855790000000  0.5593050000000  0.4827280000000 1.0
C      1  0.4139480000000  0.4412100000000  0.5168420000000 1.0
C      1  0.5913520000000  0.5259100000000  0.5242210000000 1.0
C      1  0.4085260000000  0.4746780000000  0.4751010000000 1.0
C      1  0.5175690000000  0.5242650000000  0.4036930000000 1.0
C      1  0.4830550000000  0.4754780000000  0.5963130000000 1.0
C      1  0.5528630000000  0.6049670000000  0.5281950000000 1.0
C      1  0.4466190000000  0.3949830000000  0.4716290000000 1.0
C      1  0.5137350000000  0.4757920000000  0.4452990000000 1.0
C      1  0.4859690000000  0.5243230000000  0.5557170000000 1.0
C      1  0.5984130000000  0.5199930000000  0.4538870000000 1.0
C      1  0.4014700000000  0.4803690000000  0.5469180000000 1.0
C      1  0.4148830000000  0.4939650000000  0.5688260000000 1.0
C      1  0.5852520000000  0.5059320000000  0.4321200000000 1.0
C      1  0.4049340000000  0.5582440000000  0.5283090000000 1.0
C      1  0.5950120000000  0.4425760000000  0.4733150000000 1.0
C      1  0.4757820000000  0.5511200000000  0.5495190000000 1.0
C      1  0.5239880000000  0.4487290000000  0.4506330000000 1.0
C      1  0.3954510000000  0.5611380000000  0.4814170000000 1.0
C      1  0.6049790000000  0.4421290000000  0.5200970000000 1.0
C      1  0.4468760000000  0.5770880000000  0.5237890000000 1.0
C      1  0.5531160000000  0.4226430000000  0.4769670000000 1.0
C      1  0.4054710000000  0.5012330000000  0.4840320000000 1.0
C      1  0.5999330000000  0.4994950000000  0.5196980000000 1.0
C      1  0.5259560000000  0.4976510000000  0.5561480000000 1.0
C      1  0.4732590000000  0.5026510000000  0.4438600000000 1.0
C      1  0.5056040000000  0.4912390000000  0.6031640000000 1.0
C      1  0.4953740000000  0.5080910000000  0.3968770000000 1.0
C      1  0.4092550000000  0.5196220000000  0.5555550000000 1.0
C      1  0.5907040000000  0.4806230000000  0.4460570000000 1.0
C      1  0.5404380000000  0.4055750000000  0.4553000000000 1.0
C      1  0.4598800000000  0.5939500000000  0.5452830000000 1.0
C      1  0.4795710000000  0.4463120000000  0.5049820000000 1.0
C      1  0.5196260000000  0.5538330000000  0.4948250000000 1.0
C      1  0.4622360000000  0.4888330000000  0.4878640000000 1.0
C      1  0.5370200000000  0.5112810000000  0.5119850000000 1.0
C      1  0.4490440000000  0.4975770000000  0.5127290000000 1.0
C      1  0.5504370000000  0.5023280000000  0.4874140000000 1.0
C      1  0.4952650000000  0.4364480000000  0.4045770000000 1.0
C      1  0.5058500000000  0.5628610000000  0.5957430000000 1.0
C      1  0.4103670000000  0.5171810000000  0.4431470000000 1.0
C      1  0.5942230000000  0.4841490000000  0.5444500000000 1.0
END
