TITL C-4401-9425-4 264.471640566824 125000 -1302.00259128428 0 0 189 (C1) n - 1
REM
REM in /rds/project/t2_vol4/rds-t2-cs072/BORA/CARBON/from-Arr/AIRSS/Generating-Clusters/GAP-ML-2020/Higher-Symm/SD-CG/HFTN-CG/C160-200
REM
REM
REM
REM
REM
REM ./C.cell (6b4489405718ea1b717e0baf1da4c2d9)
REM AIRSS Version 0.9.1 bugfix July 2018 build 013d7b7c2542+ Fri, 06 Jul 2018 19:26:36 +0100
REM compiler GCC version 9.3.0
REM options -cpp -mtune=generic -march=x86-64 -g -O0
REM seed -1696577985 1167635906 1425243447 -1765871355 -497013787 288475471 645130226 -1743885998 1541474986 27036230 -895665499 914885347 -24038198 -1683275514 -71661518 558866408 893520780 -42978779 290614825 -1092189475 -1222761128 -549155920 1175358929 582094115 1385858279 744047470 -157533193 643231871 -2077407615 -2084750016 1856820867 -245901544 -1044047963
REM
CELL 1.54180   50.00000   50.00000   50.00000   90.00000   90.00000   90.00000
LATT -1
SFAC C  
C      1  0.5918960000000  0.5045370000000  0.5569770000000 1.0
C      1  0.5932690000000  0.5593550000000  0.5270130000000 1.0
C      1  0.5935770000000  0.5659900000000  0.4986000000000 1.0
C      1  0.5937180000000  0.5379580000000  0.4457420000000 1.0
C      1  0.5937450000000  0.5110600000000  0.4346810000000 1.0
C      1  0.5930450000000  0.4541140000000  0.4529050000000 1.0
C      1  0.5928120000000  0.4389150000000  0.4778110000000 1.0
C      1  0.5912510000000  0.4573150000000  0.5372180000000 1.0
C      1  0.5875380000000  0.4763460000000  0.5581040000000 1.0
C      1  0.5492370000000  0.5311060000000  0.4652010000000 1.0
C      1  0.5494550000000  0.5017420000000  0.4537690000000 1.0
C      1  0.5484770000000  0.4724330000000  0.4638870000000 1.0
C      1  0.5477410000000  0.4562560000000  0.4909680000000 1.0
C      1  0.5463540000000  0.4603160000000  0.5225150000000 1.0
C      1  0.5447740000000  0.4833050000000  0.5430910000000 1.0
C      1  0.5475270000000  0.5143660000000  0.5437910000000 1.0
C      1  0.5480480000000  0.5388310000000  0.5239250000000 1.0
C      1  0.5493300000000  0.5455530000000  0.4927170000000 1.0
C      1  0.4776880000000  0.4222510000000  0.4810920000000 1.0
C      1  0.4769210000000  0.4272990000000  0.5355500000000 1.0
C      1  0.4761240000000  0.4676710000000  0.5739360000000 1.0
C      1  0.4771730000000  0.5211030000000  0.5771570000000 1.0
C      1  0.4782840000000  0.5657490000000  0.5446100000000 1.0
C      1  0.4788850000000  0.5785470000000  0.4928410000000 1.0
C      1  0.4787520000000  0.5546100000000  0.4430400000000 1.0
C      1  0.4785660000000  0.5059780000000  0.4211700000000 1.0
C      1  0.4781920000000  0.4526990000000  0.4360310000000 1.0
C      1  0.4634590000000  0.4273120000000  0.5873670000000 1.0
C      1  0.4632140000000  0.5000980000000  0.6142150000000 1.0
C      1  0.4665440000000  0.5724160000000  0.5866690000000 1.0
C      1  0.4646350000000  0.6117660000000  0.5198270000000 1.0
C      1  0.4662820000000  0.5975260000000  0.4438160000000 1.0
C      1  0.4645050000000  0.5386920000000  0.3934030000000 1.0
C      1  0.4658850000000  0.4613230000000  0.3939050000000 1.0
C      1  0.4645180000000  0.4014020000000  0.4436020000000 1.0
C      1  0.4655690000000  0.3879020000000  0.5196520000000 1.0
C      1  0.5070030000000  0.4136140000000  0.4811130000000 1.0
C      1  0.5062290000000  0.4205790000000  0.5417410000000 1.0
C      1  0.5051100000000  0.4688790000000  0.5836400000000 1.0
C      1  0.5062530000000  0.5254990000000  0.5852240000000 1.0
C      1  0.5073110000000  0.5757100000000  0.5448390000000 1.0
C      1  0.5076540000000  0.5876830000000  0.4897730000000 1.0
C      1  0.5073610000000  0.5574920000000  0.4330130000000 1.0
C      1  0.5073490000000  0.5053430000000  0.4117470000000 1.0
C      1  0.5071700000000  0.4447570000000  0.4307750000000 1.0
C      1  0.5603200000000  0.4165520000000  0.5123070000000 1.0
C      1  0.5561260000000  0.4422090000000  0.5645770000000 1.0
C      1  0.5562810000000  0.4956530000000  0.5875990000000 1.0
C      1  0.5612940000000  0.5506260000000  0.5674050000000 1.0
C      1  0.5574990000000  0.5857590000000  0.5191590000000 1.0
C      1  0.5603170000000  0.5763850000000  0.4596360000000 1.0
C      1  0.5574420000000  0.5338920000000  0.4183950000000 1.0
C      1  0.5596900000000  0.4742450000000  0.4179490000000 1.0
C      1  0.5567630000000  0.4269060000000  0.4534640000000 1.0
C      1  0.4916840000000  0.4241890000000  0.5887820000000 1.0
C      1  0.4909590000000  0.4985170000000  0.6191350000000 1.0
C      1  0.4950250000000  0.5730680000000  0.5895120000000 1.0
C      1  0.4923250000000  0.6161890000000  0.5224110000000 1.0
C      1  0.4945420000000  0.6009040000000  0.4439030000000 1.0
C      1  0.4921690000000  0.5422580000000  0.3894620000000 1.0
C      1  0.4941570000000  0.4625550000000  0.3903940000000 1.0
C      1  0.4923700000000  0.3990420000000  0.4397750000000 1.0
C      1  0.4939040000000  0.3842310000000  0.5181890000000 1.0
C      1  0.4749360000000  0.4555700000000  0.5458460000000 1.0
C      1  0.4736710000000  0.4950770000000  0.5626200000000 1.0
C      1  0.4760760000000  0.5360190000000  0.5511890000000 1.0
C      1  0.4757320000000  0.5594750000000  0.5156920000000 1.0
C      1  0.4773640000000  0.5557100000000  0.4734770000000 1.0
C      1  0.4762600000000  0.5249820000000  0.4441600000000 1.0
C      1  0.4771040000000  0.4826870000000  0.4403340000000 1.0
C      1  0.4760490000000  0.4481580000000  0.4655960000000 1.0
C      1  0.4755030000000  0.4372450000000  0.5070060000000 1.0
C      1  0.5664990000000  0.4398190000000  0.5349130000000 1.0
C      1  0.5615830000000  0.4719830000000  0.5691200000000 1.0
C      1  0.5673040000000  0.5189390000000  0.5673300000000 1.0
C      1  0.5662620000000  0.5611130000000  0.5375310000000 1.0
C      1  0.5665290000000  0.5721050000000  0.4905400000000 1.0
C      1  0.5666580000000  0.5485270000000  0.4452860000000 1.0
C      1  0.5666010000000  0.5038240000000  0.4271590000000 1.0
C      1  0.5660110000000  0.4552880000000  0.4429030000000 1.0
C      1  0.5658640000000  0.4303330000000  0.4842520000000 1.0
C      1  0.5116990000000  0.4155070000000  0.5701890000000 1.0
C      1  0.5116200000000  0.4805710000000  0.6097080000000 1.0
C      1  0.5144740000000  0.5524970000000  0.5938850000000 1.0
C      1  0.5128210000000  0.6038450000000  0.5386480000000 1.0
C      1  0.5143940000000  0.6018430000000  0.4647150000000 1.0
C      1  0.5128260000000  0.5562500000000  0.4041700000000 1.0
C      1  0.5141240000000  0.4832590000000  0.3933040000000 1.0
C      1  0.5128580000000  0.4160450000000  0.4285240000000 1.0
C      1  0.5148770000000  0.3919080000000  0.4994240000000 1.0
C      1  0.5171080000000  0.3947450000000  0.5322370000000 1.0
C      1  0.5144560000000  0.4419990000000  0.5923980000000 1.0
C      1  0.5146090000000  0.5135310000000  0.6109510000000 1.0
C      1  0.5181310000000  0.5786260000000  0.5724440000000 1.0
C      1  0.5158730000000  0.6110370000000  0.5059960000000 1.0
C      1  0.5170100000000  0.5856130000000  0.4339080000000 1.0
C      1  0.5156680000000  0.5251350000000  0.3913270000000 1.0
C      1  0.5168340000000  0.4500620000000  0.4033810000000 1.0
C      1  0.5154870000000  0.3980160000000  0.4575360000000 1.0
C      1  0.5380360000000  0.5416460000000  0.3992780000000 1.0
C      1  0.5385230000000  0.4689040000000  0.4003350000000 1.0
C      1  0.5375820000000  0.4091170000000  0.4425640000000 1.0
C      1  0.5400760000000  0.3967970000000  0.5144300000000 1.0
C      1  0.5362470000000  0.4284750000000  0.5790110000000 1.0
C      1  0.5371770000000  0.4957020000000  0.6083740000000 1.0
C      1  0.5396740000000  0.5617440000000  0.5817100000000 1.0
C      1  0.5382190000000  0.6059410000000  0.5236160000000 1.0
C      1  0.5387080000000  0.5923160000000  0.4515790000000 1.0
C      1  0.4043070000000  0.4953070000000  0.5413930000000 1.0
C      1  0.4051000000000  0.5231590000000  0.5346810000000 1.0
C      1  0.4052570000000  0.5401680000000  0.5117970000000 1.0
C      1  0.4059190000000  0.5382230000000  0.4833100000000 1.0
C      1  0.4058000000000  0.5184560000000  0.4627470000000 1.0
C      1  0.4059680000000  0.4900450000000  0.4595490000000 1.0
C      1  0.4055440000000  0.4662280000000  0.4751710000000 1.0
C      1  0.4050750000000  0.4580910000000  0.5025490000000 1.0
C      1  0.4047680000000  0.4695680000000  0.5286400000000 1.0
C      1  0.4979060000000  0.5397750000000  0.5125060000000 1.0
C      1  0.5009550000000  0.5396540000000  0.4820360000000 1.0
C      1  0.4996510000000  0.5179440000000  0.4614540000000 1.0
C      1  0.5015010000000  0.4873730000000  0.4563910000000 1.0
C      1  0.4996580000000  0.4625270000000  0.4757500000000 1.0
C      1  0.4991890000000  0.4545430000000  0.5056500000000 1.0
C      1  0.4980660000000  0.4679710000000  0.5331820000000 1.0
C      1  0.4951770000000  0.4949020000000  0.5424990000000 1.0
C      1  0.4991560000000  0.5239000000000  0.5369300000000 1.0
C      1  0.6100110000000  0.5015470000000  0.4571560000000 1.0
C      1  0.6093780000000  0.4750290000000  0.4656790000000 1.0
C      1  0.6094420000000  0.4588270000000  0.4902720000000 1.0
C      1  0.6101020000000  0.4664740000000  0.5174960000000 1.0
C      1  0.6226720000000  0.4904900000000  0.5233860000000 1.0
C      1  0.6105020000000  0.5118170000000  0.5362730000000 1.0
C      1  0.6096750000000  0.5362390000000  0.5220470000000 1.0
C      1  0.6096880000000  0.5419750000000  0.4931260000000 1.0
C      1  0.6099660000000  0.5289710000000  0.4684830000000 1.0
C      1  0.4270760000000  0.5593200000000  0.4742270000000 1.0
C      1  0.4265500000000  0.5287350000000  0.4420050000000 1.0
C      1  0.4269770000000  0.4845530000000  0.4371110000000 1.0
C      1  0.4262880000000  0.4473900000000  0.4615340000000 1.0
C      1  0.4256850000000  0.4346550000000  0.5041790000000 1.0
C      1  0.4253170000000  0.4526020000000  0.5449890000000 1.0
C      1  0.4242590000000  0.4925530000000  0.5649770000000 1.0
C      1  0.4261100000000  0.5358120000000  0.5542040000000 1.0
C      1  0.4259880000000  0.5623970000000  0.5185710000000 1.0
C      1  0.4522360000000  0.4099100000000  0.5699850000000 1.0
C      1  0.4513890000000  0.4758430000000  0.6119170000000 1.0
C      1  0.4544280000000  0.5527130000000  0.6005630000000 1.0
C      1  0.4530940000000  0.6050250000000  0.5433290000000 1.0
C      1  0.4547090000000  0.6076900000000  0.4658670000000 1.0
C      1  0.4532370000000  0.5607130000000  0.4041820000000 1.0
C      1  0.4541250000000  0.4847250000000  0.3876430000000 1.0
C      1  0.4532930000000  0.4156190000000  0.4235800000000 1.0
C      1  0.4533860000000  0.3855160000000  0.4955890000000 1.0
C      1  0.4282900000000  0.4642100000000  0.5718360000000 1.0
C      1  0.4289530000000  0.5186460000000  0.5778970000000 1.0
C      1  0.4301030000000  0.5642070000000  0.5476720000000 1.0
C      1  0.4305110000000  0.5795600000000  0.4952020000000 1.0
C      1  0.4307350000000  0.5576590000000  0.4452060000000 1.0
C      1  0.4305730000000  0.5087610000000  0.4209440000000 1.0
C      1  0.4303990000000  0.4556620000000  0.4335990000000 1.0
C      1  0.4297920000000  0.4230120000000  0.4774840000000 1.0
C      1  0.4291140000000  0.4262080000000  0.5320800000000 1.0
C      1  0.4516920000000  0.5183250000000  0.4608510000000 1.0
C      1  0.4523040000000  0.4884290000000  0.4580240000000 1.0
C      1  0.4514730000000  0.4637900000000  0.4751780000000 1.0
C      1  0.4509410000000  0.4556150000000  0.5042230000000 1.0
C      1  0.4504780000000  0.4680530000000  0.5316920000000 1.0
C      1  0.4497380000000  0.4956660000000  0.5441960000000 1.0
C      1  0.4511520000000  0.5249840000000  0.5366110000000 1.0
C      1  0.4510440000000  0.5421610000000  0.5118680000000 1.0
C      1  0.4522590000000  0.5396870000000  0.4819210000000 1.0
C      1  0.4542760000000  0.5096910000000  0.4022230000000 1.0
C      1  0.4542550000000  0.4440750000000  0.4188060000000 1.0
C      1  0.4535120000000  0.4044600000000  0.4736220000000 1.0
C      1  0.4529120000000  0.4093000000000  0.5410960000000 1.0
C      1  0.4517570000000  0.4573150000000  0.5897710000000 1.0
C      1  0.4526870000000  0.5242780000000  0.5960330000000 1.0
C      1  0.4541480000000  0.5800440000000  0.5575670000000 1.0
C      1  0.4544500000000  0.5979010000000  0.4929510000000 1.0
C      1  0.4546600000000  0.5700710000000  0.4314170000000 1.0
C      1  0.5194020000000  0.5158070000000  0.5577030000000 1.0
C      1  0.5200920000000  0.5538610000000  0.5243890000000 1.0
C      1  0.5211780000000  0.5590210000000  0.4944510000000 1.0
C      1  0.5208280000000  0.5349200000000  0.4514780000000 1.0
C      1  0.5207810000000  0.5059860000000  0.4410960000000 1.0
C      1  0.5196720000000  0.4629070000000  0.4551630000000 1.0
C      1  0.5191520000000  0.4435210000000  0.4870320000000 1.0
C      1  0.5182180000000  0.4477510000000  0.5269980000000 1.0
C      1  0.5174820000000  0.4849170000000  0.5578060000000 1.0
END
