TITL C-44226-2636-4 156.256244135333 125000 -1292.78448731235 0 0 184 (C3) n - 1
REM
REM in /rds/project/t2_vol4/rds-t2-cs072/BORA/CARBON/from-Arr/AIRSS/Generating-Clusters/GAP-ML-2020/Higher-Symm/SD-CG/HFTN-CG/C160-200
REM
REM
REM
REM
REM
REM ./C.cell (6b4489405718ea1b717e0baf1da4c2d9)
REM AIRSS Version 0.9.1 bugfix July 2018 build 013d7b7c2542+ Fri, 06 Jul 2018 19:26:36 +0100
REM compiler GCC version 9.3.0
REM options -cpp -mtune=generic -march=x86-64 -g -O0
REM seed 1354518358 -1991516391 -43337931 -1934567731 127773155 2001081331 711353582 447459899 -175980441 -1867461632 241007485 1098058974 56201869 -1059102649 -1194688744 1975068145 -839974359 -509276264 115526630 777005595 -534228416 2058675424 -769346300 -1431884073 -180011347 108522074 1568848550 408826331 -75737076 2062853470 542095702 313884380 2001926198
REM
CELL 1.54180   50.00000   50.00000   50.00000   90.00000   90.00000   90.00000
LATT -1
SFAC C  
C      1  0.4747320000000  0.5445910000000  0.5464200000000 1.0
C      1  0.5530010000000  0.5445910000000  0.4990260000000 1.0
C      1  0.4728220000000  0.5445880000000  0.4549400000000 1.0
C      1  0.3869130000000  0.4777750000000  0.4933320000000 1.0
C      1  0.5509340000000  0.4777810000000  0.6016270000000 1.0
C      1  0.5627100000000  0.4777750000000  0.4054330000000 1.0
C      1  0.4540030000000  0.4427290000000  0.4365820000000 1.0
C      1  0.4682430000000  0.4427320000000  0.5719020000000 1.0
C      1  0.5783130000000  0.4427320000000  0.4919100000000 1.0
C      1  0.5314650000000  0.5458590000000  0.5911910000000 1.0
C      1  0.5634070000000  0.5458550000000  0.4275080000000 1.0
C      1  0.4056820000000  0.5458540000000  0.4816860000000 1.0
C      1  0.5255100000000  0.5572980000000  0.4618370000000 1.0
C      1  0.4543610000000  0.5572980000000  0.4973410000000 1.0
C      1  0.5206830000000  0.5573000000000  0.5412060000000 1.0
C      1  0.5280900000000  0.3846440000000  0.4921270000000 1.0
C      1  0.4793020000000  0.3846430000000  0.4799710000000 1.0
C      1  0.4931690000000  0.3846440000000  0.5283010000000 1.0
C      1  0.4332740000000  0.5755870000000  0.4492490000000 1.0
C      1  0.4895770000000  0.5755910000000  0.5835130000000 1.0
C      1  0.5777020000000  0.5755900000000  0.4676210000000 1.0
C      1  0.5893310000000  0.5340080000000  0.4354490000000 1.0
C      1  0.3995970000000  0.5340060000000  0.4552660000000 1.0
C      1  0.5116270000000  0.5340120000000  0.6096720000000 1.0
C      1  0.5334610000000  0.5897540000000  0.5684150000000 1.0
C      1  0.5426840000000  0.5897500000000  0.4371650000000 1.0
C      1  0.4244070000000  0.5897500000000  0.4948030000000 1.0
C      1  0.4912980000000  0.4642120000000  0.5537900000000 1.0
C      1  0.5511000000000  0.4642110000000  0.4809980000000 1.0
C      1  0.4581600000000  0.4642100000000  0.4656040000000 1.0
C      1  0.4672750000000  0.4536390000000  0.5115480000000 1.0
C      1  0.5265290000000  0.4536400000000  0.5229240000000 1.0
C      1  0.5067540000000  0.4536380000000  0.4659210000000 1.0
C      1  0.5150660000000  0.4003420000000  0.4505920000000 1.0
C      1  0.4498440000000  0.4003430000000  0.5120170000000 1.0
C      1  0.5356510000000  0.4003450000000  0.5377880000000 1.0
C      1  0.4574380000000  0.5855440000000  0.4369800000000 1.0
C      1  0.4668700000000  0.5855480000000  0.5687200000000 1.0
C      1  0.5762440000000  0.5855470000000  0.4946820000000 1.0
C      1  0.5553160000000  0.6035470000000  0.4855990000000 1.0
C      1  0.4600370000000  0.6035440000000  0.4596450000000 1.0
C      1  0.4851990000000  0.6035470000000  0.5551370000000 1.0
C      1  0.5977410000000  0.5091660000000  0.4260520000000 1.0
C      1  0.3872550000000  0.5091630000000  0.4526830000000 1.0
C      1  0.5155610000000  0.5091700000000  0.6216540000000 1.0
C      1  0.4632950000000  0.5378520000000  0.4097720000000 1.0
C      1  0.4403780000000  0.5378560000000  0.5772550000000 1.0
C      1  0.5968810000000  0.5378570000000  0.5133600000000 1.0
C      1  0.4159030000000  0.5300740000000  0.5346940000000 1.0
C      1  0.5722600000000  0.5300770000000  0.5558370000000 1.0
C      1  0.5123920000000  0.5300720000000  0.4098560000000 1.0
C      1  0.5598750000000  0.4125470000000  0.5296110000000 1.0
C      1  0.4958720000000  0.4125440000000  0.4337020000000 1.0
C      1  0.4448140000000  0.4125460000000  0.5370840000000 1.0
C      1  0.4846400000000  0.5358980000000  0.5983160000000 1.0
C      1  0.5929900000000  0.5358960000000  0.4644970000000 1.0
C      1  0.4229240000000  0.5358920000000  0.4375730000000 1.0
C      1  0.5550560000000  0.4379940000000  0.5748160000000 1.0
C      1  0.5374310000000  0.4379890000000  0.4152710000000 1.0
C      1  0.4080730000000  0.4379900000000  0.5103070000000 1.0
C      1  0.4192340000000  0.4952660000000  0.5650560000000 1.0
C      1  0.5968890000000  0.4952680000000  0.5377730000000 1.0
C      1  0.4844340000000  0.4952630000000  0.3975610000000 1.0
C      1  0.5258820000000  0.5538440000000  0.4896230000000 1.0
C      1  0.4782380000000  0.5538430000000  0.4831260000000 1.0
C      1  0.4964340000000  0.5538440000000  0.5276350000000 1.0
C      1  0.4554680000000  0.4909500000000  0.6011080000000 1.0
C      1  0.6099940000000  0.4909490000000  0.4883670000000 1.0
C      1  0.4350950000000  0.4909440000000  0.4109150000000 1.0
C      1  0.4665420000000  0.4167600000000  0.5565690000000 1.0
C      1  0.5658850000000  0.4167600000000  0.5010510000000 1.0
C      1  0.4681340000000  0.4167570000000  0.4427760000000 1.0
C      1  0.5004960000000  0.4858950000000  0.6205950000000 1.0
C      1  0.6043560000000  0.4858920000000  0.4396290000000 1.0
C      1  0.3957050000000  0.4858880000000  0.4401660000000 1.0
C      1  0.5673950000000  0.4313210000000  0.5498650000000 1.0
C      1  0.5096520000000  0.4313160000000  0.4170610000000 1.0
C      1  0.4235120000000  0.4313180000000  0.5334700000000 1.0
C      1  0.4605730000000  0.4021460000000  0.4662510000000 1.0
C      1  0.4906520000000  0.4021490000000  0.5513800000000 1.0
C      1  0.5493360000000  0.4021480000000  0.4827660000000 1.0
C      1  0.4133710000000  0.5569070000000  0.5259940000000 1.0
C      1  0.5659920000000  0.5569100000000  0.5623780000000 1.0
C      1  0.5211910000000  0.5569050000000  0.4120120000000 1.0
C      1  0.5536660000000  0.5075210000000  0.5467840000000 1.0
C      1  0.5138490000000  0.5075180000000  0.4304870000000 1.0
C      1  0.4330410000000  0.5075190000000  0.5231180000000 1.0
C      1  0.5530030000000  0.5155300000000  0.5102590000000 1.0
C      1  0.4825480000000  0.5155270000000  0.4493230000000 1.0
C      1  0.4650040000000  0.5155290000000  0.5408060000000 1.0
C      1  0.5298950000000  0.4849660000000  0.6164460000000 1.0
C      1  0.5860630000000  0.4849610000000  0.4162440000000 1.0
C      1  0.3845990000000  0.4849590000000  0.4677010000000 1.0
C      1  0.4721180000000  0.6036650000000  0.5075860000000 1.0
C      1  0.5206770000000  0.6036660000000  0.5207030000000 1.0
C      1  0.5077570000000  0.6036640000000  0.4720920000000 1.0
C      1  0.5603130000000  0.5963920000000  0.4575680000000 1.0
C      1  0.4332620000000  0.5963900000000  0.4693340000000 1.0
C      1  0.5069770000000  0.5963940000000  0.5734800000000 1.0
C      1  0.4342630000000  0.5726380000000  0.5367030000000 1.0
C      1  0.5648200000000  0.5726400000000  0.5389300000000 1.0
C      1  0.5014700000000  0.5726360000000  0.4247510000000 1.0
C      1  0.5794260000000  0.4546100000000  0.5398690000000 1.0
C      1  0.4949810000000  0.4546050000000  0.4116390000000 1.0
C      1  0.4261520000000  0.4546080000000  0.5488850000000 1.0
C      1  0.4507900000000  0.4487740000000  0.4892940000000 1.0
C      1  0.5154990000000  0.4487770000000  0.5483280000000 1.0
C      1  0.5342700000000  0.4487750000000  0.4627720000000 1.0
C      1  0.4481310000000  0.5844280000000  0.5123510000000 1.0
C      1  0.5367970000000  0.5844300000000  0.5390950000000 1.0
C      1  0.5156250000000  0.5844270000000  0.4489360000000 1.0
C      1  0.4505880000000  0.5624040000000  0.5586340000000 1.0
C      1  0.5756500000000  0.5624050000000  0.5138270000000 1.0
C      1  0.4743150000000  0.5624010000000  0.4279240000000 1.0
C      1  0.4726160000000  0.5059480000000  0.4953890000000 1.0
C      1  0.5098640000000  0.5059500000000  0.5263760000000 1.0
C      1  0.5180760000000  0.5059490000000  0.4786240000000 1.0
C      1  0.5373160000000  0.4726380000000  0.5065960000000 1.0
C      1  0.4872200000000  0.4726360000000  0.4647430000000 1.0
C      1  0.4760220000000  0.4726370000000  0.5290530000000 1.0
C      1  0.4059480000000  0.5670720000000  0.4996850000000 1.0
C      1  0.5469190000000  0.5670770000000  0.5819610000000 1.0
C      1  0.5476870000000  0.5670720000000  0.4187380000000 1.0
C      1  0.4161980000000  0.4734710000000  0.4249610000000 1.0
C      1  0.4770810000000  0.4734770000000  0.6104510000000 1.0
C      1  0.6072790000000  0.4734750000000  0.4649800000000 1.0
C      1  0.5017080000000  0.4341540000000  0.4844080000000 1.0
C      1  0.4858080000000  0.4341540000000  0.5066760000000 1.0
C      1  0.5130430000000  0.4341540000000  0.5093110000000 1.0
C      1  0.5569210000000  0.4263400000000  0.4352700000000 1.0
C      1  0.4156480000000  0.4263390000000  0.4834290000000 1.0
C      1  0.5279910000000  0.4263430000000  0.5816960000000 1.0
C      1  0.4429880000000  0.4146160000000  0.4867150000000 1.0
C      1  0.5171660000000  0.4146190000000  0.5563760000000 1.0
C      1  0.5404060000000  0.4146160000000  0.4573050000000 1.0
C      1  0.5673300000000  0.5478020000000  0.4709060000000 1.0
C      1  0.4413050000000  0.5477990000000  0.4565910000000 1.0
C      1  0.4919200000000  0.5478030000000  0.5728890000000 1.0
C      1  0.4617450000000  0.5190120000000  0.5915290000000 1.0
C      1  0.5985600000000  0.5190110000000  0.4877190000000 1.0
C      1  0.4402500000000  0.5190070000000  0.4211390000000 1.0
C      1  0.4737250000000  0.5043200000000  0.5663780000000 1.0
C      1  0.5707880000000  0.5043200000000  0.4899210000000 1.0
C      1  0.4560430000000  0.5043170000000  0.4440910000000 1.0
C      1  0.4817300000000  0.5004280000000  0.5215780000000 1.0
C      1  0.5279880000000  0.5004280000000  0.5053890000000 1.0
C      1  0.4908380000000  0.5004270000000  0.4734230000000 1.0
C      1  0.4729880000000  0.3841560000000  0.5080530000000 1.0
C      1  0.5206460000000  0.3841570000000  0.5197290000000 1.0
C      1  0.5069290000000  0.3841560000000  0.4726180000000 1.0
C      1  0.4431820000000  0.4908180000000  0.4669030000000 1.0
C      1  0.4999120000000  0.4908220000000  0.5661100000000 1.0
C      1  0.5574630000000  0.4908200000000  0.4673770000000 1.0
C      1  0.4004720000000  0.4665450000000  0.5139710000000 1.0
C      1  0.5620290000000  0.4665500000000  0.5795650000000 1.0
C      1  0.5380570000000  0.4665450000000  0.4068560000000 1.0
C      1  0.4198450000000  0.5236400000000  0.5635030000000 1.0
C      1  0.5952380000000  0.5236420000000  0.5380190000000 1.0
C      1  0.4854720000000  0.5236360000000  0.3988660000000 1.0
C      1  0.4097460000000  0.4357570000000  0.4581050000000 1.0
C      1  0.5090110000000  0.4357630000000  0.5994690000000 1.0
C      1  0.5818030000000  0.4357600000000  0.4428210000000 1.0
C      1  0.4348580000000  0.5391440000000  0.4846290000000 1.0
C      1  0.5194250000000  0.5391470000000  0.5644540000000 1.0
C      1  0.5462720000000  0.5391450000000  0.4513040000000 1.0
C      1  0.4839200000000  0.4470670000000  0.5980990000000 1.0
C      1  0.5931620000000  0.4470650000000  0.4652350000000 1.0
C      1  0.4234770000000  0.4470620000000  0.4370600000000 1.0
C      1  0.4671880000000  0.4553170000000  0.4131820000000 1.0
C      1  0.4413850000000  0.4553210000000  0.5721830000000 1.0
C      1  0.5919860000000  0.4553220000000  0.5150280000000 1.0
C      1  0.4923710000000  0.6069560000000  0.5274640000000 1.0
C      1  0.5277640000000  0.6069560000000  0.4932250000000 1.0
C      1  0.4804160000000  0.6069550000000  0.4796930000000 1.0
C      1  0.4179800000000  0.4811200000000  0.5367910000000 1.0
C      1  0.5730380000000  0.4811230000000  0.5529920000000 1.0
C      1  0.5095390000000  0.4811180000000  0.4106080000000 1.0
C      1  0.5215320000000  0.5091900000000  0.5532770000000 1.0
C      1  0.5355390000000  0.5091880000000  0.4550690000000 1.0
C      1  0.4434850000000  0.5091870000000  0.4920420000000 1.0
C      1  0.4349710000000  0.4801560000000  0.5840690000000 1.0
C      1  0.6054860000000  0.4801560000000  0.5146380000000 1.0
C      1  0.4601000000000  0.4801510000000  0.4016840000000 1.0
C      1  0.5001850000000  0.5528660000000  0.5001280000000 1.0
END
