TITL C-44203-2639-2 911.410648705984 125000 -1318.96979606947 0 0 183 (C1) n - 1
REM
REM in /rds/project/t2_vol4/rds-t2-cs072/BORA/CARBON/from-Arr/AIRSS/Generating-Clusters/GAP-ML-2020/Higher-Symm/SD-CG/HFTN-CG/C160-200
REM
REM
REM
REM
REM
REM ./C.cell (6b4489405718ea1b717e0baf1da4c2d9)
REM AIRSS Version 0.9.1 bugfix July 2018 build 013d7b7c2542+ Fri, 06 Jul 2018 19:26:36 +0100
REM compiler GCC version 9.3.0
REM options -cpp -mtune=generic -march=x86-64 -g -O0
REM seed -1811452212 -28091632 1073692663 856200336 -1706583151 -1237526387 -1807803774 1770812377 -1948009195 -487902835 1904180942 1371678250 513888995 589263038 2088986291 1259106785 1178072103 323918620 -1260631746 502613181 -2030277543 1024276822 -79665133 36172586 1657487394 475720426 -80046753 653014450 -1237886002 154907220 -1150505704 1977768477 1352254281
REM
CELL 1.54180   50.00000   50.00000   50.00000   90.00000   90.00000   90.00000
LATT -1
SFAC C  
C      1  0.4113060000000  0.4445990000000  0.4522810000000 1.0
C      1  0.4378590000000  0.4496550000000  0.5724450000000 1.0
C      1  0.5568790000000  0.4468670000000  0.5830420000000 1.0
C      1  0.5982250000000  0.4482210000000  0.4812620000000 1.0
C      1  0.5090850000000  0.4427480000000  0.4012180000000 1.0
C      1  0.4908390000000  0.4296980000000  0.5257340000000 1.0
C      1  0.5164020000000  0.4325050000000  0.5111470000000 1.0
C      1  0.5135540000000  0.4337470000000  0.4814340000000 1.0
C      1  0.4840340000000  0.4335210000000  0.4759950000000 1.0
C      1  0.4695600000000  0.4292750000000  0.5028360000000 1.0
C      1  0.5781490000000  0.5708200000000  0.4602610000000 1.0
C      1  0.4963460000000  0.5703750000000  0.4170220000000 1.0
C      1  0.4226820000000  0.5748580000000  0.4849370000000 1.0
C      1  0.4600010000000  0.5652510000000  0.5774680000000 1.0
C      1  0.5530600000000  0.5731550000000  0.5579860000000 1.0
C      1  0.4727490000000  0.5079450000000  0.3987840000000 1.0
C      1  0.3947980000000  0.5150590000000  0.5042800000000 1.0
C      1  0.4894620000000  0.5062550000000  0.6187260000000 1.0
C      1  0.5906040000000  0.5160100000000  0.5610820000000 1.0
C      1  0.5876040000000  0.5085190000000  0.4358400000000 1.0
C      1  0.4655990000000  0.5434520000000  0.5948230000000 1.0
C      1  0.5776270000000  0.5596930000000  0.5604330000000 1.0
C      1  0.5885250000000  0.5525050000000  0.4416250000000 1.0
C      1  0.4797160000000  0.5526680000000  0.4037180000000 1.0
C      1  0.4040330000000  0.5570700000000  0.4954510000000 1.0
C      1  0.4909510000000  0.3856700000000  0.4747350000000 1.0
C      1  0.4772700000000  0.3836390000000  0.4995510000000 1.0
C      1  0.4966040000000  0.3844480000000  0.5205240000000 1.0
C      1  0.5223200000000  0.3872130000000  0.5085690000000 1.0
C      1  0.5187420000000  0.3879870000000  0.4802220000000 1.0
C      1  0.4946360000000  0.5140000000000  0.5655870000000 1.0
C      1  0.5520820000000  0.5165580000000  0.5282020000000 1.0
C      1  0.5420860000000  0.5159420000000  0.4613090000000 1.0
C      1  0.4687460000000  0.5180080000000  0.4471620000000 1.0
C      1  0.4476910000000  0.4994440000000  0.5150220000000 1.0
C      1  0.5591750000000  0.4156390000000  0.4775340000000 1.0
C      1  0.4973410000000  0.4095210000000  0.4320770000000 1.0
C      1  0.4375830000000  0.4097510000000  0.4763810000000 1.0
C      1  0.4636480000000  0.4091020000000  0.5525270000000 1.0
C      1  0.5405260000000  0.4134480000000  0.5485280000000 1.0
C      1  0.4257750000000  0.5144740000000  0.4331970000000 1.0
C      1  0.4095210000000  0.5162630000000  0.5557800000000 1.0
C      1  0.5356270000000  0.5170210000000  0.6040520000000 1.0
C      1  0.6045280000000  0.5188470000000  0.5071170000000 1.0
C      1  0.5411420000000  0.5113800000000  0.4018810000000 1.0
C      1  0.4707920000000  0.4813850000000  0.4857820000000 1.0
C      1  0.4629810000000  0.4739140000000  0.5150960000000 1.0
C      1  0.4868100000000  0.4768170000000  0.5338260000000 1.0
C      1  0.5153600000000  0.4811810000000  0.5204840000000 1.0
C      1  0.5190700000000  0.4841740000000  0.4897550000000 1.0
C      1  0.4331040000000  0.5855590000000  0.5114260000000 1.0
C      1  0.4858910000000  0.5787730000000  0.5743360000000 1.0
C      1  0.5533310000000  0.5811660000000  0.5295020000000 1.0
C      1  0.5559080000000  0.5818970000000  0.4455900000000 1.0
C      1  0.4779180000000  0.5804760000000  0.4388560000000 1.0
C      1  0.4720140000000  0.5418070000000  0.4894640000000 1.0
C      1  0.4748140000000  0.5419450000000  0.5195640000000 1.0
C      1  0.5047450000000  0.5442230000000  0.5296640000000 1.0
C      1  0.5196790000000  0.5404500000000  0.5035880000000 1.0
C      1  0.5080780000000  0.5431250000000  0.4601770000000 1.0
C      1  0.5351120000000  0.5612770000000  0.5791560000000 1.0
C      1  0.5844190000000  0.5617180000000  0.4877430000000 1.0
C      1  0.5236270000000  0.5595830000000  0.4113810000000 1.0
C      1  0.4313450000000  0.5630950000000  0.4582320000000 1.0
C      1  0.4358070000000  0.5600500000000  0.5614390000000 1.0
C      1  0.4909110000000  0.4726050000000  0.4447790000000 1.0
C      1  0.4188110000000  0.4810470000000  0.4807280000000 1.0
C      1  0.4487910000000  0.4953420000000  0.5950720000000 1.0
C      1  0.5465170000000  0.4782110000000  0.5545070000000 1.0
C      1  0.5649500000000  0.4750850000000  0.4889210000000 1.0
C      1  0.4192720000000  0.4314470000000  0.4765620000000 1.0
C      1  0.4617310000000  0.4330450000000  0.5701960000000 1.0
C      1  0.5583620000000  0.4340800000000  0.5577210000000 1.0
C      1  0.5762080000000  0.4356910000000  0.4693670000000 1.0
C      1  0.4889480000000  0.4246850000000  0.4089800000000 1.0
C      1  0.4943540000000  0.5954390000000  0.5534660000000 1.0
C      1  0.5283050000000  0.5879440000000  0.5149590000000 1.0
C      1  0.5338530000000  0.5934500000000  0.4570820000000 1.0
C      1  0.4886130000000  0.5868270000000  0.4656670000000 1.0
C      1  0.4589150000000  0.5958220000000  0.5120690000000 1.0
C      1  0.5054290000000  0.4704470000000  0.3945750000000 1.0
C      1  0.4100500000000  0.4727770000000  0.4543230000000 1.0
C      1  0.4327260000000  0.4777840000000  0.5793120000000 1.0
C      1  0.5606950000000  0.4780440000000  0.5810760000000 1.0
C      1  0.5936450000000  0.4781430000000  0.4776130000000 1.0
C      1  0.5593510000000  0.4221800000000  0.5044970000000 1.0
C      1  0.5241400000000  0.4158450000000  0.4377360000000 1.0
C      1  0.4510050000000  0.4064730000000  0.4510940000000 1.0
C      1  0.4453670000000  0.4059720000000  0.5314890000000 1.0
C      1  0.5154220000000  0.4090690000000  0.5609370000000 1.0
C      1  0.5754700000000  0.5363150000000  0.5757640000000 1.0
C      1  0.5977640000000  0.5296380000000  0.4543920000000 1.0
C      1  0.4923070000000  0.5285760000000  0.3954630000000 1.0
C      1  0.4024540000000  0.5327460000000  0.4822190000000 1.0
C      1  0.4453790000000  0.5234700000000  0.5908070000000 1.0
C      1  0.4186980000000  0.4870210000000  0.4310400000000 1.0
C      1  0.4128790000000  0.4883540000000  0.5611190000000 1.0
C      1  0.5406010000000  0.4891860000000  0.6001180000000 1.0
C      1  0.6066400000000  0.4913330000000  0.5013000000000 1.0
C      1  0.5303900000000  0.4843900000000  0.4028270000000 1.0
C      1  0.5447300000000  0.5004610000000  0.4854600000000 1.0
C      1  0.4933300000000  0.5015410000000  0.4506330000000 1.0
C      1  0.4458120000000  0.4987060000000  0.4855870000000 1.0
C      1  0.4785490000000  0.5025630000000  0.5474800000000 1.0
C      1  0.5324890000000  0.5002230000000  0.5401670000000 1.0
C      1  0.4310350000000  0.4653680000000  0.4148860000000 1.0
C      1  0.4052150000000  0.4663290000000  0.5436820000000 1.0
C      1  0.5206140000000  0.4681700000000  0.6019780000000 1.0
C      1  0.6068410000000  0.4700790000000  0.5214240000000 1.0
C      1  0.5416190000000  0.4661420000000  0.4236040000000 1.0
C      1  0.5647120000000  0.4575390000000  0.5400560000000 1.0
C      1  0.5562300000000  0.4574710000000  0.4663230000000 1.0
C      1  0.4625800000000  0.4331170000000  0.4080990000000 1.0
C      1  0.4220510000000  0.4528580000000  0.4971310000000 1.0
C      1  0.4876240000000  0.4443440000000  0.5778330000000 1.0
C      1  0.4545630000000  0.4020950000000  0.5022220000000 1.0
C      1  0.4917740000000  0.4033620000000  0.5431190000000 1.0
C      1  0.5383530000000  0.4096530000000  0.5198160000000 1.0
C      1  0.5320940000000  0.4102210000000  0.4661200000000 1.0
C      1  0.4798400000000  0.4039250000000  0.4550200000000 1.0
C      1  0.5071580000000  0.5644250000000  0.5871330000000 1.0
C      1  0.5773730000000  0.5698710000000  0.5149960000000 1.0
C      1  0.5493560000000  0.5663790000000  0.4213170000000 1.0
C      1  0.4513810000000  0.5684840000000  0.4380360000000 1.0
C      1  0.4241370000000  0.5701530000000  0.5362920000000 1.0
C      1  0.5647750000000  0.4682400000000  0.4411430000000 1.0
C      1  0.4562600000000  0.4606470000000  0.4010030000000 1.0
C      1  0.4006120000000  0.4657700000000  0.5161080000000 1.0
C      1  0.4924900000000  0.4664650000000  0.5980540000000 1.0
C      1  0.5908950000000  0.4701420000000  0.5453200000000 1.0
C      1  0.4746620000000  0.6192620000000  0.5192270000000 1.0
C      1  0.4863090000000  0.6195400000000  0.5441970000000 1.0
C      1  0.5236300000000  0.6148300000000  0.5015920000000 1.0
C      1  0.5257490000000  0.6153290000000  0.4725360000000 1.0
C      1  0.4964350000000  0.6150090000000  0.4734370000000 1.0
C      1  0.5111950000000  0.4271850000000  0.5816340000000 1.0
C      1  0.5579950000000  0.4534080000000  0.5114810000000 1.0
C      1  0.5178640000000  0.4643090000000  0.4439780000000 1.0
C      1  0.4442470000000  0.4214320000000  0.4273150000000 1.0
C      1  0.4315060000000  0.4298870000000  0.5305740000000 1.0
C      1  0.4770470000000  0.4801040000000  0.3933430000000 1.0
C      1  0.3961650000000  0.4880480000000  0.4997230000000 1.0
C      1  0.4746610000000  0.4877070000000  0.6060460000000 1.0
C      1  0.5860400000000  0.4884300000000  0.5665530000000 1.0
C      1  0.5877310000000  0.4833160000000  0.4473900000000 1.0
C      1  0.6086070000000  0.4462290000000  0.5062370000000 1.0
C      1  0.5301430000000  0.4386880000000  0.4201730000000 1.0
C      1  0.4236670000000  0.4404060000000  0.4278940000000 1.0
C      1  0.4200380000000  0.4437090000000  0.5516110000000 1.0
C      1  0.5316720000000  0.4428670000000  0.5937430000000 1.0
C      1  0.4051350000000  0.5534730000000  0.5245270000000 1.0
C      1  0.4940120000000  0.5450050000000  0.6026900000000 1.0
C      1  0.5909060000000  0.5554640000000  0.5355660000000 1.0
C      1  0.5700370000000  0.5471130000000  0.4195590000000 1.0
C      1  0.4553630000000  0.5493010000000  0.4170990000000 1.0
C      1  0.5156600000000  0.5715400000000  0.4669740000000 1.0
C      1  0.4741060000000  0.5718530000000  0.4864170000000 1.0
C      1  0.4784480000000  0.5747840000000  0.5147650000000 1.0
C      1  0.5038930000000  0.5776920000000  0.5305820000000 1.0
C      1  0.5255240000000  0.5670710000000  0.4936020000000 1.0
C      1  0.5211300000000  0.5329330000000  0.3991360000000 1.0
C      1  0.4238500000000  0.5334800000000  0.4594140000000 1.0
C      1  0.4268500000000  0.5338820000000  0.5709100000000 1.0
C      1  0.5495810000000  0.5377570000000  0.5895440000000 1.0
C      1  0.5981730000000  0.5360200000000  0.4842770000000 1.0
C      1  0.4474720000000  0.4482710000000  0.5117310000000 1.0
C      1  0.4880840000000  0.4510840000000  0.5466710000000 1.0
C      1  0.5295720000000  0.4567260000000  0.5178990000000 1.0
C      1  0.5257470000000  0.4590060000000  0.4709710000000 1.0
C      1  0.4753040000000  0.4598960000000  0.4648190000000 1.0
C      1  0.5138480000000  0.5226210000000  0.5491730000000 1.0
C      1  0.5444330000000  0.5234460000000  0.5035340000000 1.0
C      1  0.5185470000000  0.5202510000000  0.4483140000000 1.0
C      1  0.4527580000000  0.5239550000000  0.4713580000000 1.0
C      1  0.4623190000000  0.5182510000000  0.5303070000000 1.0
C      1  0.5091500000000  0.5235390000000  0.6133260000000 1.0
C      1  0.5998150000000  0.5287070000000  0.5345660000000 1.0
C      1  0.5675070000000  0.5195510000000  0.4146520000000 1.0
C      1  0.4528550000000  0.5204840000000  0.4212170000000 1.0
C      1  0.3991500000000  0.5269900000000  0.5308210000000 1.0
C      1  0.4986270000000  0.5303230000000  0.4846870000000 1.0
C      1  0.4950270000000  0.4994390000000  0.4810420000000 1.0
C      1  0.4953020000000  0.6219430000000  0.5010330000000 1.0
END
