TITL C-4416-9524-3 55.7578043911236 125000 -1115.84660196448 0 0 164 (Ci) n - 1
REM
REM in /rds/project/t2_vol4/rds-t2-cs072/BORA/CARBON/from-Arr/AIRSS/Generating-Clusters/GAP-ML-2020/Higher-Symm/SD-CG/HFTN-CG/C160-200
REM
REM
REM
REM
REM
REM ./C.cell (6b4489405718ea1b717e0baf1da4c2d9)
REM AIRSS Version 0.9.1 bugfix July 2018 build 013d7b7c2542+ Fri, 06 Jul 2018 19:26:36 +0100
REM compiler GCC version 9.3.0
REM options -cpp -mtune=generic -march=x86-64 -g -O0
REM seed -1920372142 203205194 1410660753 526333820 -1922779082 1779527146 722240255 599725953 -1635630959 783090658 -1056542474 950089799 -94277795 866582422 -271896512 -954045746 397138959 -252949485 -1491555605 1473492644 -2103652268 878044966 -1208500057 -1218282421 -217736881 -1443747535 2130653873 -2065037384 -507768464 278523256 -1828604844 -19712471 -984209785
REM
CELL 1.54180   50.00000   50.00000   50.00000   90.00000   90.00000   90.00000
LATT -1
SFAC C  
C      1  0.4962800000000  0.4593580000000  0.5552180000000 1.0
C      1  0.5390070000000  0.4955910000000  0.5550100000000 1.0
C      1  0.5034390000000  0.5390380000000  0.5555860000000 1.0
C      1  0.4611650000000  0.5025420000000  0.5557560000000 1.0
C      1  0.4965610000000  0.4609620000000  0.4433160000000 1.0
C      1  0.5388350000000  0.4974580000000  0.4431450000000 1.0
C      1  0.5037200000000  0.5406420000000  0.4436830000000 1.0
C      1  0.4609930000000  0.5044090000000  0.4438920000000 1.0
C      1  0.4379370000000  0.5602050000000  0.5604890000000 1.0
C      1  0.4343350000000  0.4364420000000  0.5631270000000 1.0
C      1  0.5601090000000  0.4336400000000  0.5609140000000 1.0
C      1  0.5631790000000  0.5618310000000  0.5571490000000 1.0
C      1  0.4398910000000  0.5663600000000  0.4379880000000 1.0
C      1  0.4368210000000  0.4381690000000  0.4417520000000 1.0
C      1  0.5620630000000  0.4397950000000  0.4384120000000 1.0
C      1  0.5656650000000  0.5635580000000  0.4357750000000 1.0
C      1  0.4116070000000  0.4720940000000  0.5265140000000 1.0
C      1  0.5253480000000  0.4128600000000  0.5219920000000 1.0
C      1  0.5874430000000  0.5260210000000  0.5213250000000 1.0
C      1  0.4719350000000  0.5884880000000  0.5260380000000 1.0
C      1  0.4125570000000  0.4739790000000  0.4775770000000 1.0
C      1  0.5280650000000  0.4115120000000  0.4728640000000 1.0
C      1  0.5883930000000  0.5279060000000  0.4723880000000 1.0
C      1  0.4746520000000  0.5871400000000  0.4769100000000 1.0
C      1  0.5362230000000  0.4186490000000  0.5701810000000 1.0
C      1  0.5798870000000  0.5386580000000  0.5674680000000 1.0
C      1  0.4599720000000  0.5765890000000  0.5720070000000 1.0
C      1  0.4192530000000  0.4595310000000  0.5739420000000 1.0
C      1  0.5400280000000  0.4234110000000  0.4268950000000 1.0
C      1  0.5807470000000  0.5404690000000  0.4249590000000 1.0
C      1  0.4637770000000  0.5813510000000  0.4287200000000 1.0
C      1  0.4201130000000  0.4613420000000  0.4314330000000 1.0
C      1  0.5545640000000  0.4129990000000  0.5123760000000 1.0
C      1  0.5870690000000  0.5550170000000  0.5118020000000 1.0
C      1  0.4442960000000  0.5865970000000  0.5151190000000 1.0
C      1  0.4121010000000  0.4440410000000  0.5155580000000 1.0
C      1  0.5557040000000  0.4134030000000  0.4837830000000 1.0
C      1  0.5878990000000  0.5559590000000  0.4833430000000 1.0
C      1  0.4454360000000  0.5870010000000  0.4865250000000 1.0
C      1  0.4129310000000  0.4449830000000  0.4871000000000 1.0
C      1  0.5018790000000  0.5925010000000  0.5549070000000 1.0
C      1  0.4063280000000  0.5017270000000  0.5553760000000 1.0
C      1  0.4943010000000  0.4061560000000  0.5489570000000 1.0
C      1  0.5921230000000  0.4944740000000  0.5482920000000 1.0
C      1  0.5056990000000  0.5938440000000  0.4499450000000 1.0
C      1  0.4078770000000  0.5055260000000  0.4506090000000 1.0
C      1  0.4981210000000  0.4074990000000  0.4439950000000 1.0
C      1  0.5936720000000  0.4982730000000  0.4435260000000 1.0
C      1  0.5961890000000  0.4949170000000  0.5184800000000 1.0
C      1  0.5017730000000  0.5988390000000  0.5261230000000 1.0
C      1  0.4006740000000  0.5015580000000  0.5264370000000 1.0
C      1  0.4949580000000  0.4032330000000  0.5190170000000 1.0
C      1  0.5993260000000  0.4984420000000  0.4724640000000 1.0
C      1  0.5050420000000  0.5967670000000  0.4798840000000 1.0
C      1  0.4038110000000  0.5050830000000  0.4804220000000 1.0
C      1  0.4982270000000  0.4011610000000  0.4727790000000 1.0
C      1  0.5459390000000  0.4657100000000  0.5151130000000 1.0
C      1  0.5335060000000  0.5476640000000  0.5128650000000 1.0
C      1  0.4523150000000  0.5326510000000  0.5141060000000 1.0
C      1  0.4648910000000  0.4536990000000  0.5165780000000 1.0
C      1  0.5476850000000  0.4673490000000  0.4847960000000 1.0
C      1  0.5351090000000  0.5463010000000  0.4823230000000 1.0
C      1  0.4540610000000  0.5342900000000  0.4837890000000 1.0
C      1  0.4664940000000  0.4523360000000  0.4860370000000 1.0
C      1  0.4435980000000  0.4786760000000  0.4854660000000 1.0
C      1  0.5216430000000  0.4444680000000  0.4834000000000 1.0
C      1  0.5563440000000  0.5215030000000  0.4828590000000 1.0
C      1  0.4800220000000  0.5561330000000  0.4850120000000 1.0
C      1  0.4436560000000  0.4784970000000  0.5160420000000 1.0
C      1  0.5199780000000  0.4438670000000  0.5138900000000 1.0
C      1  0.5564020000000  0.5213240000000  0.5134360000000 1.0
C      1  0.4783570000000  0.5555320000000  0.5155020000000 1.0
C      1  0.5452130000000  0.5768680000000  0.5093220000000 1.0
C      1  0.4230980000000  0.5447230000000  0.5108030000000 1.0
C      1  0.4481630000000  0.4283460000000  0.5180420000000 1.0
C      1  0.5707560000000  0.4481040000000  0.5163680000000 1.0
C      1  0.5518370000000  0.5716540000000  0.4808600000000 1.0
C      1  0.4292440000000  0.5518960000000  0.4825330000000 1.0
C      1  0.4547870000000  0.4231320000000  0.4895790000000 1.0
C      1  0.5769020000000  0.4552770000000  0.4880980000000 1.0
C      1  0.4322540000000  0.4294540000000  0.4700930000000 1.0
C      1  0.5705270000000  0.4339950000000  0.4671990000000 1.0
C      1  0.5731090000000  0.5715990000000  0.4630950000000 1.0
C      1  0.4306380000000  0.5733990000000  0.4649740000000 1.0
C      1  0.4268910000000  0.4284010000000  0.5358060000000 1.0
C      1  0.5693620000000  0.4266010000000  0.5339280000000 1.0
C      1  0.5677460000000  0.5705460000000  0.5288090000000 1.0
C      1  0.4294730000000  0.5660050000000  0.5317030000000 1.0
C      1  0.5223960000000  0.4738500000000  0.4349390000000 1.0
C      1  0.5241740000000  0.5217370000000  0.4318720000000 1.0
C      1  0.4776200000000  0.5279550000000  0.4348970000000 1.0
C      1  0.4761820000000  0.4802940000000  0.4311760000000 1.0
C      1  0.5223800000000  0.4720450000000  0.5640050000000 1.0
C      1  0.5238180000000  0.5197060000000  0.5677260000000 1.0
C      1  0.4776040000000  0.5261500000000  0.5639620000000 1.0
C      1  0.4758260000000  0.4782630000000  0.5670290000000 1.0
C      1  0.5194850000000  0.4365540000000  0.4124730000000 1.0
C      1  0.5655530000000  0.5205480000000  0.4124120000000 1.0
C      1  0.4829600000000  0.5670170000000  0.4142150000000 1.0
C      1  0.4331540000000  0.4811860000000  0.4166840000000 1.0
C      1  0.5170400000000  0.4329830000000  0.5846870000000 1.0
C      1  0.5668460000000  0.5188140000000  0.5822170000000 1.0
C      1  0.4805150000000  0.5634460000000  0.5864290000000 1.0
C      1  0.4344470000000  0.4794520000000  0.5864890000000 1.0
C      1  0.4317500000000  0.5114580000000  0.4311500000000 1.0
C      1  0.4909890000000  0.4322790000000  0.4279630000000 1.0
C      1  0.5683680000000  0.4927220000000  0.4271060000000 1.0
C      1  0.5112580000000  0.5701830000000  0.4300620000000 1.0
C      1  0.4316320000000  0.5072780000000  0.5717960000000 1.0
C      1  0.4887420000000  0.4298170000000  0.5688390000000 1.0
C      1  0.5682500000000  0.4885420000000  0.5677520000000 1.0
C      1  0.5090110000000  0.5677210000000  0.5709390000000 1.0
C      1  0.4418070000000  0.5406010000000  0.4238290000000 1.0
C      1  0.4603530000000  0.4399670000000  0.4247200000000 1.0
C      1  0.5594300000000  0.4638020000000  0.4219580000000 1.0
C      1  0.5399000000000  0.5618080000000  0.4220670000000 1.0
C      1  0.4405700000000  0.5361980000000  0.5769440000000 1.0
C      1  0.4601000000000  0.4381920000000  0.5768340000000 1.0
C      1  0.5581930000000  0.4593990000000  0.5750730000000 1.0
C      1  0.5396470000000  0.5600330000000  0.5741820000000 1.0
C      1  0.4860340000000  0.5143640000000  0.5974560000000 1.0
C      1  0.4849860000000  0.4851440000000  0.5954440000000 1.0
C      1  0.5140170000000  0.4824060000000  0.5961250000000 1.0
C      1  0.5148070000000  0.5114890000000  0.5947580000000 1.0
C      1  0.4859830000000  0.5175940000000  0.4027770000000 1.0
C      1  0.4851930000000  0.4885110000000  0.4041430000000 1.0
C      1  0.5139660000000  0.4856360000000  0.4014460000000 1.0
C      1  0.5150140000000  0.5148560000000  0.4034580000000 1.0
C      1  0.5268080000000  0.4066900000000  0.4441290000000 1.0
C      1  0.5956540000000  0.5266890000000  0.4436580000000 1.0
C      1  0.4774450000000  0.5953820000000  0.4485700000000 1.0
C      1  0.4059700000000  0.4770140000000  0.4494230000000 1.0
C      1  0.5225550000000  0.4046180000000  0.5503320000000 1.0
C      1  0.5940300000000  0.5229860000000  0.5494790000000 1.0
C      1  0.4731920000000  0.5933100000000  0.5547730000000 1.0
C      1  0.4043460000000  0.4733110000000  0.5552440000000 1.0
C      1  0.5402330000000  0.5343330000000  0.4108630000000 1.0
C      1  0.4689040000000  0.5409350000000  0.4102430000000 1.0
C      1  0.4578510000000  0.4670150000000  0.4134160000000 1.0
C      1  0.5313120000000  0.4630100000000  0.4091230000000 1.0
C      1  0.5421490000000  0.5329850000000  0.5854860000000 1.0
C      1  0.4686880000000  0.5369900000000  0.5897780000000 1.0
C      1  0.4597670000000  0.4656670000000  0.5880390000000 1.0
C      1  0.5310960000000  0.4590650000000  0.5886590000000 1.0
C      1  0.5449000000000  0.4960980000000  0.4719260000000 1.0
C      1  0.5056610000000  0.5447440000000  0.4724320000000 1.0
C      1  0.4550510000000  0.5045090000000  0.4728390000000 1.0
C      1  0.4951650000000  0.4550990000000  0.4723490000000 1.0
C      1  0.5449490000000  0.4954910000000  0.5260630000000 1.0
C      1  0.5048350000000  0.5449010000000  0.5265520000000 1.0
C      1  0.4551000000000  0.5039020000000  0.5269750000000 1.0
C      1  0.4943390000000  0.4552560000000  0.5264700000000 1.0
C      1  0.4982970000000  0.4797050000000  0.5146350000000 1.0
C      1  0.5204000000000  0.4987940000000  0.5145560000000 1.0
C      1  0.5014650000000  0.5207060000000  0.5142820000000 1.0
C      1  0.4793500000000  0.5017400000000  0.5143880000000 1.0
C      1  0.4985350000000  0.4792940000000  0.4846200000000 1.0
C      1  0.5206500000000  0.4982600000000  0.4845140000000 1.0
C      1  0.5017030000000  0.5202950000000  0.4842670000000 1.0
C      1  0.4796000000000  0.5012060000000  0.4843460000000 1.0
C      1  0.5954370000000  0.4802040000000  0.4937240000000 1.0
C      1  0.5199550000000  0.5954190000000  0.5046090000000 1.0
C      1  0.4045630000000  0.5197960000000  0.5051770000000 1.0
C      1  0.4800450000000  0.4045810000000  0.4942920000000 1.0
END
