TITL C-4401-9425-3 -0.329751392841414 125000 -1116.21056148128 0 0 160 (C1) n - 1
REM
REM in /rds/project/t2_vol4/rds-t2-cs072/BORA/CARBON/from-Arr/AIRSS/Generating-Clusters/GAP-ML-2020/Higher-Symm/SD-CG/HFTN-CG/C160-200
REM
REM
REM
REM
REM
REM ./C.cell (6b4489405718ea1b717e0baf1da4c2d9)
REM AIRSS Version 0.9.1 bugfix July 2018 build 013d7b7c2542+ Fri, 06 Jul 2018 19:26:36 +0100
REM compiler GCC version 9.3.0
REM options -cpp -mtune=generic -march=x86-64 -g -O0
REM seed 1665762067 547928816 -416226277 1284124973 2129673295 873425899 425008741 -1452712173 1111796231 1806331338 -402150062 -1426697689 1141845557 -874398565 635929856 -1942431061 611544026 -514078822 -901477438 -1079252629 -402521367 1075889648 523029518 1675712877 2085839010 371220731 -1136095825 -1761914143 -499372389 -975594562 -32223160 -1525442123 -2068058263
REM
CELL 1.54180   50.00000   50.00000   50.00000   90.00000   90.00000   90.00000
LATT -1
SFAC C  
C      1  0.5172130000000  0.4069920000000  0.4566750000000 1.0
C      1  0.4975220000000  0.5814240000000  0.4490040000000 1.0
C      1  0.4988180000000  0.5062410000000  0.5945760000000 1.0
C      1  0.5111380000000  0.4099660000000  0.5426780000000 1.0
C      1  0.5005600000000  0.5817730000000  0.5555450000000 1.0
C      1  0.5053760000000  0.5010040000000  0.4023860000000 1.0
C      1  0.5635190000000  0.5146560000000  0.4228010000000 1.0
C      1  0.5604490000000  0.5602560000000  0.5545000000000 1.0
C      1  0.5696290000000  0.4256440000000  0.5318710000000 1.0
C      1  0.5579910000000  0.5133170000000  0.5858230000000 1.0
C      1  0.5584390000000  0.5614430000000  0.4525490000000 1.0
C      1  0.5726910000000  0.4268020000000  0.4754350000000 1.0
C      1  0.5192600000000  0.5272940000000  0.4830720000000 1.0
C      1  0.5411380000000  0.5002530000000  0.5254320000000 1.0
C      1  0.5298320000000  0.4753410000000  0.4809020000000 1.0
C      1  0.5284600000000  0.5245000000000  0.5153970000000 1.0
C      1  0.5244650000000  0.5010980000000  0.4644400000000 1.0
C      1  0.5320000000000  0.4744800000000  0.5114740000000 1.0
C      1  0.4969640000000  0.5421270000000  0.3972990000000 1.0
C      1  0.4948310000000  0.5697480000000  0.5943730000000 1.0
C      1  0.5121000000000  0.3806210000000  0.5146160000000 1.0
C      1  0.4935550000000  0.5451540000000  0.6072520000000 1.0
C      1  0.4957870000000  0.5669720000000  0.4100060000000 1.0
C      1  0.5148740000000  0.3791680000000  0.4874960000000 1.0
C      1  0.4724050000000  0.4109950000000  0.5116350000000 1.0
C      1  0.4302600000000  0.5146180000000  0.4219930000000 1.0
C      1  0.4552480000000  0.5584270000000  0.5648260000000 1.0
C      1  0.4750520000000  0.4088420000000  0.4827660000000 1.0
C      1  0.4546640000000  0.5286880000000  0.5799750000000 1.0
C      1  0.4505240000000  0.5636220000000  0.4307910000000 1.0
C      1  0.4650610000000  0.5399560000000  0.4378270000000 1.0
C      1  0.4621600000000  0.5164210000000  0.5528540000000 1.0
C      1  0.4696520000000  0.4307700000000  0.4650700000000 1.0
C      1  0.4620320000000  0.5451740000000  0.5385030000000 1.0
C      1  0.4605640000000  0.5142180000000  0.4234660000000 1.0
C      1  0.4626750000000  0.4352050000000  0.5249840000000 1.0
C      1  0.4225120000000  0.4647120000000  0.4008510000000 1.0
C      1  0.4721260000000  0.5870550000000  0.4906540000000 1.0
C      1  0.4272650000000  0.4401050000000  0.5708380000000 1.0
C      1  0.4377220000000  0.4616970000000  0.5809130000000 1.0
C      1  0.4541430000000  0.6010410000000  0.4740240000000 1.0
C      1  0.4431320000000  0.4483430000000  0.4088130000000 1.0
C      1  0.4980250000000  0.4700170000000  0.4783410000000 1.0
C      1  0.4891520000000  0.5218900000000  0.4784040000000 1.0
C      1  0.4851240000000  0.4945880000000  0.5201120000000 1.0
C      1  0.4976090000000  0.4709630000000  0.5091770000000 1.0
C      1  0.5067070000000  0.5254580000000  0.5354370000000 1.0
C      1  0.4917620000000  0.4960260000000  0.4629580000000 1.0
C      1  0.4487500000000  0.5740290000000  0.5025910000000 1.0
C      1  0.4185070000000  0.4570410000000  0.5440450000000 1.0
C      1  0.4139590000000  0.4684620000000  0.4294640000000 1.0
C      1  0.4323270000000  0.5856260000000  0.4817280000000 1.0
C      1  0.4347660000000  0.4491140000000  0.4366090000000 1.0
C      1  0.4269230000000  0.4819170000000  0.5606260000000 1.0
C      1  0.5075520000000  0.5711550000000  0.5292680000000 1.0
C      1  0.5104640000000  0.4392240000000  0.5431720000000 1.0
C      1  0.5148800000000  0.4777540000000  0.4141910000000 1.0
C      1  0.4990390000000  0.5806890000000  0.4787600000000 1.0
C      1  0.5182510000000  0.4351460000000  0.4488590000000 1.0
C      1  0.5045590000000  0.4898890000000  0.5700050000000 1.0
C      1  0.5093840000000  0.4642300000000  0.5851690000000 1.0
C      1  0.5315730000000  0.4341550000000  0.4209570000000 1.0
C      1  0.5147390000000  0.6022110000000  0.4916610000000 1.0
C      1  0.5287810000000  0.4549880000000  0.4028580000000 1.0
C      1  0.5142220000000  0.4398860000000  0.5723790000000 1.0
C      1  0.5180460000000  0.5976020000000  0.5190270000000 1.0
C      1  0.4411680000000  0.5495980000000  0.5169110000000 1.0
C      1  0.4375180000000  0.4489820000000  0.5225700000000 1.0
C      1  0.4187620000000  0.4939990000000  0.4409360000000 1.0
C      1  0.4141580000000  0.5710710000000  0.4648440000000 1.0
C      1  0.4451540000000  0.4446840000000  0.4614520000000 1.0
C      1  0.4424110000000  0.4979780000000  0.5434260000000 1.0
C      1  0.5458270000000  0.5747130000000  0.4735990000000 1.0
C      1  0.5481080000000  0.4876310000000  0.5808430000000 1.0
C      1  0.5670160000000  0.4470000000000  0.4537160000000 1.0
C      1  0.5579610000000  0.5693470000000  0.5253810000000 1.0
C      1  0.5562780000000  0.4876870000000  0.4202420000000 1.0
C      1  0.5603900000000  0.4463670000000  0.5515490000000 1.0
C      1  0.3729000000000  0.4651390000000  0.4836610000000 1.0
C      1  0.3990260000000  0.5590800000000  0.4835460000000 1.0
C      1  0.4109050000000  0.5068270000000  0.5628060000000 1.0
C      1  0.3906850000000  0.4603340000000  0.5348180000000 1.0
C      1  0.4164540000000  0.5517530000000  0.5342330000000 1.0
C      1  0.3994670000000  0.5155550000000  0.4520880000000 1.0
C      1  0.5575530000000  0.4620810000000  0.4071670000000 1.0
C      1  0.5467120000000  0.5960530000000  0.5160150000000 1.0
C      1  0.5428750000000  0.4420310000000  0.5771480000000 1.0
C      1  0.5376150000000  0.4644880000000  0.5928050000000 1.0
C      1  0.5433760000000  0.5989310000000  0.4883440000000 1.0
C      1  0.5600770000000  0.4397080000000  0.4242520000000 1.0
C      1  0.5327140000000  0.4824800000000  0.4390640000000 1.0
C      1  0.5318350000000  0.5551440000000  0.5155830000000 1.0
C      1  0.5346650000000  0.4592660000000  0.5380400000000 1.0
C      1  0.5333170000000  0.4864490000000  0.5537870000000 1.0
C      1  0.5234490000000  0.5579960000000  0.4860280000000 1.0
C      1  0.5384270000000  0.4584300000000  0.4578250000000 1.0
C      1  0.3910470000000  0.5367510000000  0.4964860000000 1.0
C      1  0.3921200000000  0.5107160000000  0.5397520000000 1.0
C      1  0.3817110000000  0.4897300000000  0.4932960000000 1.0
C      1  0.3951240000000  0.5349660000000  0.5252920000000 1.0
C      1  0.3880310000000  0.5140840000000  0.4784230000000 1.0
C      1  0.3860950000000  0.4881300000000  0.5243080000000 1.0
C      1  0.4673390000000  0.4929780000000  0.4450800000000 1.0
C      1  0.4881220000000  0.5451530000000  0.5246940000000 1.0
C      1  0.4879600000000  0.4491880000000  0.5267340000000 1.0
C      1  0.4891620000000  0.5035430000000  0.5474410000000 1.0
C      1  0.4665490000000  0.5355560000000  0.4654610000000 1.0
C      1  0.4934940000000  0.4463110000000  0.4611530000000 1.0
C      1  0.4250480000000  0.5535350000000  0.5613220000000 1.0
C      1  0.3744670000000  0.4405510000000  0.5233810000000 1.0
C      1  0.4133580000000  0.5345250000000  0.4345440000000 1.0
C      1  0.4230440000000  0.5612230000000  0.4387840000000 1.0
C      1  0.3670800000000  0.4445290000000  0.4987640000000 1.0
C      1  0.4239820000000  0.5291510000000  0.5753380000000 1.0
C      1  0.6185520000000  0.4773760000000  0.4929890000000 1.0
C      1  0.6096350000000  0.5249890000000  0.4938900000000 1.0
C      1  0.6121860000000  0.4994160000000  0.5358400000000 1.0
C      1  0.6180910000000  0.4760400000000  0.5209990000000 1.0
C      1  0.6128000000000  0.5238540000000  0.5225570000000 1.0
C      1  0.6117770000000  0.5016630000000  0.4793940000000 1.0
C      1  0.5415740000000  0.5575240000000  0.4302860000000 1.0
C      1  0.5410190000000  0.5352390000000  0.5914300000000 1.0
C      1  0.5555830000000  0.4085000000000  0.4882380000000 1.0
C      1  0.5417640000000  0.5594310000000  0.5759690000000 1.0
C      1  0.5440380000000  0.5338680000000  0.4149640000000 1.0
C      1  0.5539310000000  0.4079050000000  0.5170470000000 1.0
C      1  0.4751900000000  0.5233750000000  0.5996320000000 1.0
C      1  0.4959200000000  0.3939650000000  0.4715510000000 1.0
C      1  0.4752640000000  0.5767180000000  0.4290960000000 1.0
C      1  0.4807180000000  0.5168390000000  0.4017780000000 1.0
C      1  0.4911760000000  0.3965560000000  0.5265800000000 1.0
C      1  0.4763460000000  0.5765900000000  0.5722970000000 1.0
C      1  0.5962500000000  0.5437730000000  0.5325520000000 1.0
C      1  0.6039180000000  0.4550810000000  0.5334550000000 1.0
C      1  0.5937280000000  0.4958970000000  0.4576280000000 1.0
C      1  0.5897510000000  0.5445530000000  0.4871710000000 1.0
C      1  0.6064590000000  0.4566260000000  0.4785340000000 1.0
C      1  0.5926930000000  0.4936000000000  0.5562940000000 1.0
C      1  0.5798930000000  0.5182730000000  0.4458700000000 1.0
C      1  0.5817280000000  0.5418010000000  0.5562220000000 1.0
C      1  0.5932580000000  0.4334980000000  0.5192360000000 1.0
C      1  0.5802960000000  0.5163920000000  0.5689650000000 1.0
C      1  0.5778240000000  0.5424690000000  0.4609810000000 1.0
C      1  0.5949800000000  0.4339670000000  0.4907520000000 1.0
C      1  0.4464610000000  0.5204820000000  0.5026750000000 1.0
C      1  0.4362140000000  0.4704550000000  0.5041020000000 1.0
C      1  0.4422780000000  0.4923490000000  0.4608760000000 1.0
C      1  0.4434110000000  0.5202670000000  0.4740190000000 1.0
C      1  0.4397390000000  0.4681750000000  0.4768090000000 1.0
C      1  0.4375440000000  0.4963590000000  0.5161600000000 1.0
C      1  0.5363010000000  0.3942470000000  0.4736900000000 1.0
C      1  0.5166710000000  0.5717240000000  0.4297920000000 1.0
C      1  0.5164260000000  0.5277100000000  0.6032320000000 1.0
C      1  0.5322100000000  0.3951630000000  0.5298570000000 1.0
C      1  0.5181430000000  0.5753670000000  0.5776400000000 1.0
C      1  0.5210440000000  0.5259410000000  0.4002270000000 1.0
C      1  0.5822550000000  0.5570600000000  0.5123130000000 1.0
C      1  0.5898490000000  0.4670590000000  0.4579360000000 1.0
C      1  0.5856470000000  0.4651310000000  0.5530260000000 1.0
C      1  0.4772370000000  0.5189970000000  0.5053830000000 1.0
END
