TITL C-44209-2655-1 0.166221516443685 125000 -1232.64688544763 0 0 176 (C1) n - 1
REM
REM in /rds/project/t2_vol4/rds-t2-cs072/BORA/CARBON/from-Arr/AIRSS/Generating-Clusters/GAP-ML-2020/Higher-Symm/SD-CG/HFTN-CG/C160-200
REM
REM
REM
REM
REM
REM ./C.cell (6b4489405718ea1b717e0baf1da4c2d9)
REM AIRSS Version 0.9.1 bugfix July 2018 build 013d7b7c2542+ Fri, 06 Jul 2018 19:26:36 +0100
REM compiler GCC version 9.3.0
REM options -cpp -mtune=generic -march=x86-64 -g -O0
REM seed 466967996 -949591389 555094059 910147920 196994648 1424142937 1826890047 1382031061 -1138468088 1515489052 319592642 1487975562 -1790825973 -1922297377 -513367328 1592284206 -914693584 -10045134 546914061 766823816 78148542 1250365784 -1868109493 167618032 -1768003149 -1142337576 -291141692 -1426751615 810247105 -1654348915 -1918084213 23119679 940308366
REM
CELL 1.54180   50.00000   50.00000   50.00000   90.00000   90.00000   90.00000
LATT -1
SFAC C  
C      1  0.4204070000000  0.4688810000000  0.5369230000000 1.0
C      1  0.5768920000000  0.5317310000000  0.5372820000000 1.0
C      1  0.6073770000000  0.4759640000000  0.4666440000000 1.0
C      1  0.3940440000000  0.5253940000000  0.4668830000000 1.0
C      1  0.5608330000000  0.4200210000000  0.4623210000000 1.0
C      1  0.4399550000000  0.5799140000000  0.4624590000000 1.0
C      1  0.4935750000000  0.6086510000000  0.5448900000000 1.0
C      1  0.5045340000000  0.3908900000000  0.5446910000000 1.0
C      1  0.4377110000000  0.5596540000000  0.5652810000000 1.0
C      1  0.5609080000000  0.4418580000000  0.5648860000000 1.0
C      1  0.5269340000000  0.4683870000000  0.5891010000000 1.0
C      1  0.4718360000000  0.5333280000000  0.5907200000000 1.0
C      1  0.5589920000000  0.5203200000000  0.5619900000000 1.0
C      1  0.4399260000000  0.4811510000000  0.5604210000000 1.0
C      1  0.4431860000000  0.5049210000000  0.4700540000000 1.0
C      1  0.5613340000000  0.4938720000000  0.4675110000000 1.0
C      1  0.5081420000000  0.5632470000000  0.5901850000000 1.0
C      1  0.4907230000000  0.4389160000000  0.5877370000000 1.0
C      1  0.5108490000000  0.5560220000000  0.4795520000000 1.0
C      1  0.4936630000000  0.4439320000000  0.4790660000000 1.0
C      1  0.4510700000000  0.4596070000000  0.4993050000000 1.0
C      1  0.5400500000000  0.5215590000000  0.5028180000000 1.0
C      1  0.4444720000000  0.5764450000000  0.4942180000000 1.0
C      1  0.5561350000000  0.4242320000000  0.4939250000000 1.0
C      1  0.5121070000000  0.4402480000000  0.4585050000000 1.0
C      1  0.4921080000000  0.5590870000000  0.4587430000000 1.0
C      1  0.5157130000000  0.5069390000000  0.4595580000000 1.0
C      1  0.4905310000000  0.4945510000000  0.4607260000000 1.0
C      1  0.4734750000000  0.4192520000000  0.5766520000000 1.0
C      1  0.5254480000000  0.5827090000000  0.5785520000000 1.0
C      1  0.5939120000000  0.4908860000000  0.5538960000000 1.0
C      1  0.4054390000000  0.5107810000000  0.5538940000000 1.0
C      1  0.4219890000000  0.4700880000000  0.4374700000000 1.0
C      1  0.5810890000000  0.5308280000000  0.4313970000000 1.0
C      1  0.4729730000000  0.5110310000000  0.4764880000000 1.0
C      1  0.5320790000000  0.4878820000000  0.4727550000000 1.0
C      1  0.5086840000000  0.4649750000000  0.5510120000000 1.0
C      1  0.4906220000000  0.5366570000000  0.5539080000000 1.0
C      1  0.4960230000000  0.5603940000000  0.5026340000000 1.0
C      1  0.5078090000000  0.4431050000000  0.5032340000000 1.0
C      1  0.5599740000000  0.5797080000000  0.5467540000000 1.0
C      1  0.4379620000000  0.4210970000000  0.5459670000000 1.0
C      1  0.4277560000000  0.5071690000000  0.5699580000000 1.0
C      1  0.5714770000000  0.4941660000000  0.5700650000000 1.0
C      1  0.4622110000000  0.3901870000000  0.4858250000000 1.0
C      1  0.5369790000000  0.6100930000000  0.4863760000000 1.0
C      1  0.4188360000000  0.4373940000000  0.5318820000000 1.0
C      1  0.5766700000000  0.5620280000000  0.5312670000000 1.0
C      1  0.5790340000000  0.4803050000000  0.4220100000000 1.0
C      1  0.4207940000000  0.5198370000000  0.4233680000000 1.0
C      1  0.4582710000000  0.5566770000000  0.4223230000000 1.0
C      1  0.5421240000000  0.4427300000000  0.4209780000000 1.0
C      1  0.4695030000000  0.3871550000000  0.5138230000000 1.0
C      1  0.5293820000000  0.6133160000000  0.5144350000000 1.0
C      1  0.5629380000000  0.5211560000000  0.4517310000000 1.0
C      1  0.4419030000000  0.4787880000000  0.4561030000000 1.0
C      1  0.5800560000000  0.4383730000000  0.4541670000000 1.0
C      1  0.4204120000000  0.5625780000000  0.4531000000000 1.0
C      1  0.5863460000000  0.5660580000000  0.5037730000000 1.0
C      1  0.4087100000000  0.4329360000000  0.5038170000000 1.0
C      1  0.5181990000000  0.4125340000000  0.4530250000000 1.0
C      1  0.4831020000000  0.5862440000000  0.4536620000000 1.0
C      1  0.4559020000000  0.4583080000000  0.4699330000000 1.0
C      1  0.5495470000000  0.5434370000000  0.4621630000000 1.0
C      1  0.5089420000000  0.5460720000000  0.5337940000000 1.0
C      1  0.4941260000000  0.4501020000000  0.5294970000000 1.0
C      1  0.5343440000000  0.5437150000000  0.4147720000000 1.0
C      1  0.4648090000000  0.4548020000000  0.4150260000000 1.0
C      1  0.5214140000000  0.4616390000000  0.4093650000000 1.0
C      1  0.4781120000000  0.5376540000000  0.4105310000000 1.0
C      1  0.4581090000000  0.3995610000000  0.5382920000000 1.0
C      1  0.5404760000000  0.6017400000000  0.5391920000000 1.0
C      1  0.5274280000000  0.4101270000000  0.5392660000000 1.0
C      1  0.4673280000000  0.5961790000000  0.5432680000000 1.0
C      1  0.4035510000000  0.5579260000000  0.5270500000000 1.0
C      1  0.5966950000000  0.4430610000000  0.5279100000000 1.0
C      1  0.4412500000000  0.4740200000000  0.4169010000000 1.0
C      1  0.5588330000000  0.5250780000000  0.4146040000000 1.0
C      1  0.4716350000000  0.4623060000000  0.5181730000000 1.0
C      1  0.5225850000000  0.5226300000000  0.5268770000000 1.0
C      1  0.4594720000000  0.5796640000000  0.4406700000000 1.0
C      1  0.5416320000000  0.4196680000000  0.4399530000000 1.0
C      1  0.4495570000000  0.4329070000000  0.5699240000000 1.0
C      1  0.5494320000000  0.5686100000000  0.5715520000000 1.0
C      1  0.5731450000000  0.4722720000000  0.5099080000000 1.0
C      1  0.4286880000000  0.5279450000000  0.5100290000000 1.0
C      1  0.3928930000000  0.5038950000000  0.4874270000000 1.0
C      1  0.6074780000000  0.4974920000000  0.4874020000000 1.0
C      1  0.5009310000000  0.6174330000000  0.5188870000000 1.0
C      1  0.4977300000000  0.3818990000000  0.5183840000000 1.0
C      1  0.5275280000000  0.5329530000000  0.4769600000000 1.0
C      1  0.4835530000000  0.4665990000000  0.4667520000000 1.0
C      1  0.4911500000000  0.4652320000000  0.4056680000000 1.0
C      1  0.5080200000000  0.5338780000000  0.4053900000000 1.0
C      1  0.4331840000000  0.5443900000000  0.4322310000000 1.0
C      1  0.5670730000000  0.4554160000000  0.4289620000000 1.0
C      1  0.3911160000000  0.4771470000000  0.4743490000000 1.0
C      1  0.6063650000000  0.5239490000000  0.4745530000000 1.0
C      1  0.5442530000000  0.4725980000000  0.5167710000000 1.0
C      1  0.4574840000000  0.5313440000000  0.5175590000000 1.0
C      1  0.5038180000000  0.4243560000000  0.5231610000000 1.0
C      1  0.5104650000000  0.5698690000000  0.5224870000000 1.0
C      1  0.5774040000000  0.4956910000000  0.4931530000000 1.0
C      1  0.4253310000000  0.5032290000000  0.4939640000000 1.0
C      1  0.4270950000000  0.4749460000000  0.5067290000000 1.0
C      1  0.5702360000000  0.5217540000000  0.5072650000000 1.0
C      1  0.4502980000000  0.4299040000000  0.4554770000000 1.0
C      1  0.5521480000000  0.5716630000000  0.4539900000000 1.0
C      1  0.5005160000000  0.4845610000000  0.5934260000000 1.0
C      1  0.4988610000000  0.5169360000000  0.5948390000000 1.0
C      1  0.4157360000000  0.5656230000000  0.5503610000000 1.0
C      1  0.5830550000000  0.4353400000000  0.5504720000000 1.0
C      1  0.5982840000000  0.4731660000000  0.5300950000000 1.0
C      1  0.4027210000000  0.5282510000000  0.5296510000000 1.0
C      1  0.5521270000000  0.4712260000000  0.5718150000000 1.0
C      1  0.4469310000000  0.5304250000000  0.5727520000000 1.0
C      1  0.5407830000000  0.4026170000000  0.5109370000000 1.0
C      1  0.4580960000000  0.5985630000000  0.5132220000000 1.0
C      1  0.4601510000000  0.4329690000000  0.4308590000000 1.0
C      1  0.5382160000000  0.5640850000000  0.4325850000000 1.0
C      1  0.5827370000000  0.4434060000000  0.5001420000000 1.0
C      1  0.4183960000000  0.5572840000000  0.4995100000000 1.0
C      1  0.5361190000000  0.4486290000000  0.4982350000000 1.0
C      1  0.4669130000000  0.5542480000000  0.4984990000000 1.0
C      1  0.5325740000000  0.4874150000000  0.4029590000000 1.0
C      1  0.4664510000000  0.5118540000000  0.4045760000000 1.0
C      1  0.4840420000000  0.3851620000000  0.4702820000000 1.0
C      1  0.5150750000000  0.6135320000000  0.4710760000000 1.0
C      1  0.5998590000000  0.4891490000000  0.4420100000000 1.0
C      1  0.4005430000000  0.5112900000000  0.4424140000000 1.0
C      1  0.4825750000000  0.5573810000000  0.5775330000000 1.0
C      1  0.5162780000000  0.4447420000000  0.5756690000000 1.0
C      1  0.5322260000000  0.5088810000000  0.5509030000000 1.0
C      1  0.4671730000000  0.4944260000000  0.5496020000000 1.0
C      1  0.6012410000000  0.5133960000000  0.5373210000000 1.0
C      1  0.3970310000000  0.4883350000000  0.5377360000000 1.0
C      1  0.5617140000000  0.4629630000000  0.4573200000000 1.0
C      1  0.4446740000000  0.5325640000000  0.4586310000000 1.0
C      1  0.4418220000000  0.4084340000000  0.4737960000000 1.0
C      1  0.5576080000000  0.5926120000000  0.4737660000000 1.0
C      1  0.5061690000000  0.5138100000000  0.5662660000000 1.0
C      1  0.4923140000000  0.4862640000000  0.5644950000000 1.0
C      1  0.4796730000000  0.6125440000000  0.4999830000000 1.0
C      1  0.5192660000000  0.3875500000000  0.4989020000000 1.0
C      1  0.4888210000000  0.6080180000000  0.4718050000000 1.0
C      1  0.5102370000000  0.3911680000000  0.4708100000000 1.0
C      1  0.4792200000000  0.3988410000000  0.5574970000000 1.0
C      1  0.5189620000000  0.6018530000000  0.5582130000000 1.0
C      1  0.4047720000000  0.4599490000000  0.4926840000000 1.0
C      1  0.5905900000000  0.5398140000000  0.4928150000000 1.0
C      1  0.4405050000000  0.5025700000000  0.4108610000000 1.0
C      1  0.5587210000000  0.4966620000000  0.4094120000000 1.0
C      1  0.6005030000000  0.5178100000000  0.4466420000000 1.0
C      1  0.3982580000000  0.4826290000000  0.4466430000000 1.0
C      1  0.4781920000000  0.4638970000000  0.5911780000000 1.0
C      1  0.5209060000000  0.5383590000000  0.5941640000000 1.0
C      1  0.4872370000000  0.4926520000000  0.3978560000000 1.0
C      1  0.5114430000000  0.5064750000000  0.3969390000000 1.0
C      1  0.5351880000000  0.4782780000000  0.5456700000000 1.0
C      1  0.4641740000000  0.5249900000000  0.5472240000000 1.0
C      1  0.5368500000000  0.4266990000000  0.5628670000000 1.0
C      1  0.4614270000000  0.5755950000000  0.5640210000000 1.0
C      1  0.4044090000000  0.5513240000000  0.4737780000000 1.0
C      1  0.5957920000000  0.4502560000000  0.4743240000000 1.0
C      1  0.4772150000000  0.4889640000000  0.5227540000000 1.0
C      1  0.5037160000000  0.5018270000000  0.5167880000000 1.0
C      1  0.4517820000000  0.4602020000000  0.5786750000000 1.0
C      1  0.5469150000000  0.5412870000000  0.5803120000000 1.0
C      1  0.3873330000000  0.5061140000000  0.5164950000000 1.0
C      1  0.6126050000000  0.4958560000000  0.5166480000000 1.0
C      1  0.4753140000000  0.5108290000000  0.5051700000000 1.0
C      1  0.5284440000000  0.4927070000000  0.5015300000000 1.0
C      1  0.5806570000000  0.5876700000000  0.4879030000000 1.0
C      1  0.4183190000000  0.4139330000000  0.4871630000000 1.0
C      1  0.4699580000000  0.5408660000000  0.4702940000000 1.0
C      1  0.5348300000000  0.4583740000000  0.4693590000000 1.0
END
