TITL C-44221-2655-2 -345.028285894867 125000 -1278.50451814321 0 0 181 (C1) n - 1
REM
REM in /rds/project/t2_vol4/rds-t2-cs072/BORA/CARBON/from-Arr/AIRSS/Generating-Clusters/GAP-ML-2020/Higher-Symm/SD-CG/HFTN-CG/C160-200
REM
REM
REM
REM
REM
REM ./C.cell (6b4489405718ea1b717e0baf1da4c2d9)
REM AIRSS Version 0.9.1 bugfix July 2018 build 013d7b7c2542+ Fri, 06 Jul 2018 19:26:36 +0100
REM compiler GCC version 9.3.0
REM options -cpp -mtune=generic -march=x86-64 -g -O0
REM seed -688372119 288047113 904487166 -1200354655 -666352482 540652871 -1431210393 -1806602375 -569355546 1288528626 -1598075218 1063979880 -45812676 169271175 100345388 888905088 1967421777 37773997 -1074438086 698750977 -1096899825 -1470217951 863272302 -782370960 -1724104578 487251275 -636963916 369355125 150506536 -1326242261 -1389535914 1284771853 -758537684
REM
CELL 1.54180   50.00000   50.00000   50.00000   90.00000   90.00000   90.00000
LATT -1
SFAC C  
C      1  0.4510720000000  0.4847710000000  0.3936600000000 1.0
C      1  0.5355580000000  0.5141330000000  0.3966580000000 1.0
C      1  0.5847500000000  0.4443850000000  0.4430920000000 1.0
C      1  0.6101280000000  0.4831920000000  0.5256320000000 1.0
C      1  0.5714850000000  0.5102780000000  0.5846310000000 1.0
C      1  0.5291520000000  0.4908980000000  0.6088410000000 1.0
C      1  0.4908550000000  0.4679090000000  0.5882600000000 1.0
C      1  0.5300980000000  0.5912550000000  0.4592380000000 1.0
C      1  0.4382780000000  0.4119750000000  0.4904710000000 1.0
C      1  0.5678500000000  0.4272610000000  0.5246610000000 1.0
C      1  0.4173750000000  0.4521330000000  0.4654320000000 1.0
C      1  0.6079290000000  0.4761560000000  0.4720160000000 1.0
C      1  0.5714530000000  0.5669750000000  0.4580590000000 1.0
C      1  0.4660130000000  0.5400510000000  0.6181460000000 1.0
C      1  0.4604630000000  0.4438950000000  0.5545610000000 1.0
C      1  0.5272770000000  0.4511320000000  0.4765640000000 1.0
C      1  0.5277440000000  0.5341770000000  0.5829930000000 1.0
C      1  0.4748330000000  0.4039770000000  0.4576040000000 1.0
C      1  0.5536170000000  0.4914920000000  0.4578020000000 1.0
C      1  0.5178850000000  0.5169530000000  0.4744960000000 1.0
C      1  0.4648670000000  0.4994740000000  0.4741860000000 1.0
C      1  0.4308310000000  0.4418060000000  0.5980900000000 1.0
C      1  0.4567090000000  0.5902380000000  0.4693120000000 1.0
C      1  0.5269940000000  0.5452580000000  0.5251040000000 1.0
C      1  0.4947960000000  0.4220460000000  0.5752110000000 1.0
C      1  0.5031670000000  0.3989980000000  0.4568230000000 1.0
C      1  0.4925430000000  0.4225060000000  0.4201790000000 1.0
C      1  0.5448820000000  0.4035310000000  0.4842910000000 1.0
C      1  0.4856440000000  0.4563910000000  0.3895690000000 1.0
C      1  0.5906120000000  0.4952810000000  0.5674000000000 1.0
C      1  0.5751750000000  0.5652020000000  0.5055300000000 1.0
C      1  0.4233630000000  0.5113400000000  0.5642020000000 1.0
C      1  0.4421540000000  0.5003960000000  0.5443490000000 1.0
C      1  0.4045120000000  0.5623580000000  0.5130050000000 1.0
C      1  0.5248390000000  0.4881310000000  0.3877000000000 1.0
C      1  0.5046230000000  0.6014350000000  0.4685990000000 1.0
C      1  0.5471660000000  0.4266670000000  0.4686680000000 1.0
C      1  0.4936830000000  0.6072220000000  0.4964530000000 1.0
C      1  0.4808400000000  0.4947820000000  0.5990410000000 1.0
C      1  0.5033940000000  0.4376870000000  0.3991310000000 1.0
C      1  0.5059890000000  0.3963340000000  0.5062860000000 1.0
C      1  0.6092090000000  0.4908630000000  0.4973110000000 1.0
C      1  0.4233420000000  0.4264360000000  0.4732880000000 1.0
C      1  0.4785720000000  0.4529800000000  0.4606770000000 1.0
C      1  0.4963070000000  0.5488910000000  0.4105870000000 1.0
C      1  0.4827050000000  0.5108820000000  0.4112930000000 1.0
C      1  0.4824390000000  0.5905140000000  0.4538790000000 1.0
C      1  0.4466200000000  0.4461920000000  0.4238400000000 1.0
C      1  0.5145240000000  0.4104750000000  0.4332490000000 1.0
C      1  0.4881180000000  0.5186140000000  0.4734660000000 1.0
C      1  0.4744730000000  0.5430580000000  0.4720740000000 1.0
C      1  0.5236640000000  0.4366780000000  0.5415920000000 1.0
C      1  0.5279450000000  0.5010920000000  0.4524570000000 1.0
C      1  0.5863960000000  0.4693470000000  0.4287530000000 1.0
C      1  0.5509900000000  0.4835930000000  0.5006790000000 1.0
C      1  0.4107230000000  0.4546860000000  0.5375170000000 1.0
C      1  0.4458660000000  0.5270620000000  0.6063240000000 1.0
C      1  0.4072340000000  0.5598290000000  0.4833160000000 1.0
C      1  0.4669020000000  0.5417990000000  0.5683390000000 1.0
C      1  0.4545130000000  0.5984790000000  0.5611650000000 1.0
C      1  0.4783110000000  0.3936690000000  0.5064570000000 1.0
C      1  0.4645880000000  0.6052850000000  0.4920470000000 1.0
C      1  0.4822470000000  0.5134630000000  0.5715990000000 1.0
C      1  0.3976430000000  0.5338580000000  0.4738050000000 1.0
C      1  0.4160450000000  0.5176980000000  0.4495460000000 1.0
C      1  0.5359070000000  0.5633930000000  0.5457410000000 1.0
C      1  0.4654660000000  0.4050440000000  0.5293130000000 1.0
C      1  0.5801110000000  0.5503890000000  0.5312550000000 1.0
C      1  0.5262880000000  0.5903740000000  0.5410280000000 1.0
C      1  0.3986530000000  0.5156150000000  0.5417530000000 1.0
C      1  0.4975490000000  0.4808420000000  0.3815070000000 1.0
C      1  0.5106530000000  0.4817760000000  0.4420030000000 1.0
C      1  0.5871130000000  0.4662960000000  0.5632880000000 1.0
C      1  0.6015840000000  0.5050780000000  0.5424960000000 1.0
C      1  0.4199680000000  0.5001710000000  0.4921330000000 1.0
C      1  0.4198220000000  0.4693380000000  0.4916690000000 1.0
C      1  0.4414720000000  0.5276570000000  0.4118320000000 1.0
C      1  0.4251190000000  0.4624900000000  0.4389960000000 1.0
C      1  0.5615810000000  0.5085040000000  0.4079710000000 1.0
C      1  0.4421480000000  0.4175810000000  0.5192320000000 1.0
C      1  0.4887420000000  0.5470900000000  0.4968880000000 1.0
C      1  0.4791020000000  0.5647870000000  0.5829900000000 1.0
C      1  0.4612210000000  0.4897020000000  0.5038130000000 1.0
C      1  0.5393150000000  0.4237720000000  0.4241470000000 1.0
C      1  0.4870100000000  0.6122240000000  0.5264090000000 1.0
C      1  0.5645670000000  0.5519610000000  0.4330580000000 1.0
C      1  0.5156000000000  0.5564850000000  0.4997560000000 1.0
C      1  0.4374650000000  0.5341600000000  0.5792430000000 1.0
C      1  0.5548070000000  0.4980780000000  0.6028950000000 1.0
C      1  0.3960760000000  0.5362270000000  0.5212560000000 1.0
C      1  0.5348520000000  0.5185800000000  0.5234480000000 1.0
C      1  0.4938270000000  0.5682270000000  0.4355190000000 1.0
C      1  0.5058590000000  0.4814100000000  0.5140510000000 1.0
C      1  0.4758140000000  0.4190190000000  0.5522600000000 1.0
C      1  0.5557300000000  0.5891300000000  0.4703920000000 1.0
C      1  0.5078060000000  0.4669510000000  0.5412570000000 1.0
C      1  0.3943070000000  0.5163220000000  0.4981580000000 1.0
C      1  0.4692290000000  0.4294190000000  0.4389990000000 1.0
C      1  0.5180000000000  0.3943390000000  0.4809510000000 1.0
C      1  0.6012670000000  0.4363260000000  0.4929220000000 1.0
C      1  0.5265930000000  0.5018760000000  0.5014560000000 1.0
C      1  0.4007220000000  0.4694660000000  0.5153540000000 1.0
C      1  0.5524360000000  0.4466580000000  0.5394650000000 1.0
C      1  0.5664820000000  0.4801560000000  0.4098400000000 1.0
C      1  0.5110340000000  0.5153150000000  0.5665830000000 1.0
C      1  0.5992140000000  0.5175810000000  0.4981190000000 1.0
C      1  0.4369500000000  0.5144790000000  0.4711850000000 1.0
C      1  0.5989120000000  0.4878990000000  0.4474960000000 1.0
C      1  0.5811380000000  0.5107220000000  0.4518300000000 1.0
C      1  0.5135510000000  0.5868530000000  0.5033860000000 1.0
C      1  0.4698400000000  0.5505570000000  0.5408080000000 1.0
C      1  0.4463230000000  0.5407750000000  0.4822570000000 1.0
C      1  0.4345330000000  0.5681410000000  0.4699980000000 1.0
C      1  0.4694800000000  0.4809120000000  0.4525050000000 1.0
C      1  0.5604150000000  0.4285350000000  0.4431130000000 1.0
C      1  0.4279110000000  0.4899280000000  0.5867320000000 1.0
C      1  0.5495450000000  0.4096600000000  0.5123140000000 1.0
C      1  0.5382460000000  0.5547820000000  0.4251330000000 1.0
C      1  0.6003030000000  0.4480520000000  0.4687030000000 1.0
C      1  0.4337370000000  0.5000360000000  0.4090810000000 1.0
C      1  0.4698160000000  0.5354530000000  0.4160800000000 1.0
C      1  0.4010200000000  0.4566620000000  0.5627210000000 1.0
C      1  0.5732500000000  0.5255040000000  0.4276120000000 1.0
C      1  0.5004920000000  0.6003860000000  0.5487960000000 1.0
C      1  0.5241570000000  0.4111050000000  0.5239550000000 1.0
C      1  0.4885580000000  0.5523530000000  0.6078050000000 1.0
C      1  0.5114030000000  0.5350860000000  0.6078330000000 1.0
C      1  0.4395000000000  0.5061580000000  0.5151620000000 1.0
C      1  0.5027600000000  0.4564220000000  0.4979490000000 1.0
C      1  0.4757290000000  0.4504130000000  0.4902640000000 1.0
C      1  0.6022140000000  0.5701070000000  0.4923890000000 1.0
C      1  0.4688410000000  0.5524390000000  0.4422040000000 1.0
C      1  0.5211650000000  0.4713240000000  0.5885810000000 1.0
C      1  0.4395800000000  0.5602150000000  0.4431180000000 1.0
C      1  0.4579330000000  0.4582500000000  0.4004750000000 1.0
C      1  0.4624260000000  0.3978980000000  0.4821970000000 1.0
C      1  0.5547940000000  0.4753620000000  0.5269540000000 1.0
C      1  0.4198090000000  0.4905830000000  0.4318680000000 1.0
C      1  0.5316500000000  0.4414710000000  0.4024550000000 1.0
C      1  0.4860900000000  0.4901860000000  0.4320520000000 1.0
C      1  0.5619510000000  0.5525060000000  0.5544320000000 1.0
C      1  0.5431910000000  0.4675150000000  0.3970620000000 1.0
C      1  0.5995840000000  0.5594620000000  0.4680180000000 1.0
C      1  0.4258700000000  0.5387690000000  0.4318570000000 1.0
C      1  0.5869150000000  0.5293650000000  0.4745690000000 1.0
C      1  0.5565680000000  0.5349720000000  0.5760960000000 1.0
C      1  0.5386180000000  0.4482530000000  0.5831650000000 1.0
C      1  0.4708330000000  0.4947970000000  0.5500280000000 1.0
C      1  0.4167520000000  0.4629800000000  0.5848380000000 1.0
C      1  0.3903810000000  0.4955290000000  0.5214170000000 1.0
C      1  0.5081600000000  0.4580060000000  0.4566230000000 1.0
C      1  0.5301590000000  0.5452310000000  0.4755920000000 1.0
C      1  0.5236660000000  0.5395190000000  0.4063650000000 1.0
C      1  0.5590240000000  0.5891220000000  0.4996500000000 1.0
C      1  0.5212420000000  0.4287420000000  0.5699240000000 1.0
C      1  0.5505080000000  0.4705210000000  0.4771510000000 1.0
C      1  0.5936920000000  0.4375930000000  0.5188870000000 1.0
C      1  0.5623270000000  0.4521800000000  0.5674990000000 1.0
C      1  0.4393480000000  0.5982610000000  0.5384820000000 1.0
C      1  0.4507760000000  0.4618930000000  0.5044350000000 1.0
C      1  0.4779020000000  0.5317180000000  0.5189420000000 1.0
C      1  0.4822410000000  0.4996050000000  0.5218160000000 1.0
C      1  0.5440740000000  0.4976890000000  0.5422910000000 1.0
C      1  0.4402020000000  0.4448140000000  0.5306960000000 1.0
C      1  0.4500010000000  0.4982310000000  0.6034310000000 1.0
C      1  0.5372550000000  0.5976060000000  0.5152330000000 1.0
C      1  0.5052850000000  0.5071790000000  0.6144320000000 1.0
C      1  0.4481250000000  0.5334640000000  0.5110220000000 1.0
C      1  0.4755820000000  0.4982450000000  0.3865320000000 1.0
C      1  0.5619650000000  0.5471320000000  0.4808060000000 1.0
C      1  0.4244520000000  0.5746280000000  0.5300680000000 1.0
C      1  0.5221240000000  0.5649070000000  0.4474940000000 1.0
C      1  0.4541650000000  0.4391660000000  0.5856790000000 1.0
C      1  0.4810740000000  0.4671520000000  0.5572320000000 1.0
C      1  0.6007630000000  0.4592540000000  0.5379570000000 1.0
C      1  0.4436150000000  0.5547120000000  0.5307800000000 1.0
C      1  0.4815830000000  0.4399600000000  0.5933450000000 1.0
C      1  0.5956210000000  0.5273470000000  0.5249870000000 1.0
C      1  0.5225510000000  0.4887860000000  0.5591820000000 1.0
C      1  0.4590570000000  0.6092020000000  0.5203600000000 1.0
C      1  0.4802420000000  0.5899390000000  0.5679740000000 1.0
END
