TITL C-4414-9417-1 -1727.66670352762 125000 -1174.57273677329 0 0 170 (C4) n - 1
REM
REM in /rds/project/t2_vol4/rds-t2-cs072/BORA/CARBON/from-Arr/AIRSS/Generating-Clusters/GAP-ML-2020/Higher-Symm/SD-CG/HFTN-CG/C160-200
REM
REM
REM
REM
REM
REM ./C.cell (6b4489405718ea1b717e0baf1da4c2d9)
REM AIRSS Version 0.9.1 bugfix July 2018 build 013d7b7c2542+ Fri, 06 Jul 2018 19:26:36 +0100
REM compiler GCC version 9.3.0
REM options -cpp -mtune=generic -march=x86-64 -g -O0
REM seed 1858403527 -1450944791 -329889552 -551398623 207579781 -1739680345 -1005044048 829959372 1461641350 174488510 77696088 -1104107577 201600753 2086276768 -1805341284 1914605672 1308470756 -648959960 -1640649259 1201384316 660799831 755578108 -384066521 -13160179 -1245360265 748197723 609861423 -1599121205 676644820 -1649014963 -587380298 -717055452 -410404464
REM
CELL 1.54180   50.00000   50.00000   50.00000   90.00000   90.00000   90.00000
LATT -1
SFAC C  
C      1  0.4835580000000  0.4552980000000  0.5872390000000 1.0
C      1  0.4835580000000  0.5872310000000  0.5446470000000 1.0
C      1  0.4834530000000  0.5446390000000  0.4127140000000 1.0
C      1  0.4834530000000  0.4127060000000  0.4553070000000 1.0
C      1  0.5158450000000  0.4553280000000  0.4126720000000 1.0
C      1  0.5159070000000  0.5872430000000  0.4553200000000 1.0
C      1  0.5159930000000  0.5445930000000  0.5872350000000 1.0
C      1  0.5159310000000  0.4126790000000  0.5445850000000 1.0
C      1  0.5280850000000  0.4562150000000  0.5442050000000 1.0
C      1  0.5281050000000  0.5442200000000  0.5436880000000 1.0
C      1  0.5280410000000  0.5437020000000  0.4556830000000 1.0
C      1  0.5280210000000  0.4556970000000  0.4562010000000 1.0
C      1  0.4713200000000  0.4562470000000  0.4557050000000 1.0
C      1  0.4713400000000  0.5442510000000  0.4562610000000 1.0
C      1  0.4714040000000  0.5436960000000  0.5442660000000 1.0
C      1  0.4713830000000  0.4556910000000  0.5437100000000 1.0
C      1  0.5976350000000  0.5221510000000  0.4559770000000 1.0
C      1  0.5976360000000  0.4560260000000  0.4776850000000 1.0
C      1  0.5976880000000  0.4777330000000  0.5438100000000 1.0
C      1  0.5976880000000  0.5438590000000  0.5221030000000 1.0
C      1  0.4018000000000  0.5221780000000  0.5439620000000 1.0
C      1  0.4017690000000  0.4560610000000  0.5222260000000 1.0
C      1  0.4017260000000  0.4777970000000  0.4561100000000 1.0
C      1  0.4017570000000  0.5439140000000  0.4778450000000 1.0
C      1  0.4775190000000  0.4931750000000  0.4788090000000 1.0
C      1  0.4775360000000  0.4787980000000  0.5067750000000 1.0
C      1  0.4775530000000  0.5067640000000  0.5211530000000 1.0
C      1  0.4775370000000  0.5211410000000  0.4931860000000 1.0
C      1  0.5219020000000  0.4931560000000  0.5211170000000 1.0
C      1  0.5218790000000  0.4787910000000  0.4931450000000 1.0
C      1  0.5218740000000  0.5067630000000  0.4787800000000 1.0
C      1  0.5218980000000  0.5211280000000  0.5067520000000 1.0
C      1  0.4668570000000  0.5109740000000  0.5956170000000 1.0
C      1  0.4668000000000  0.5956010000000  0.4889870000000 1.0
C      1  0.4667140000000  0.4889700000000  0.4043600000000 1.0
C      1  0.4667720000000  0.4043430000000  0.5109910000000 1.0
C      1  0.5325720000000  0.5110000000000  0.4043170000000 1.0
C      1  0.5326690000000  0.5955810000000  0.5109840000000 1.0
C      1  0.5327060000000  0.4889140000000  0.5955650000000 1.0
C      1  0.5326090000000  0.4043320000000  0.4888980000000 1.0
C      1  0.4853150000000  0.4371860000000  0.4741610000000 1.0
C      1  0.4853880000000  0.4741540000000  0.5627570000000 1.0
C      1  0.4853810000000  0.5627500000000  0.5257890000000 1.0
C      1  0.4853090000000  0.5257820000000  0.4371930000000 1.0
C      1  0.5140800000000  0.4371680000000  0.5257410000000 1.0
C      1  0.5140250000000  0.4741740000000  0.4371610000000 1.0
C      1  0.5140720000000  0.5627540000000  0.4741670000000 1.0
C      1  0.5141280000000  0.5257490000000  0.5627470000000 1.0
C      1  0.4019050000000  0.5255410000000  0.4566090000000 1.0
C      1  0.4019020000000  0.4565610000000  0.4744820000000 1.0
C      1  0.4019560000000  0.4744330000000  0.5434620000000 1.0
C      1  0.4019590000000  0.5434140000000  0.5255900000000 1.0
C      1  0.5975320000000  0.5254780000000  0.5433320000000 1.0
C      1  0.5975030000000  0.4565050000000  0.5254290000000 1.0
C      1  0.5974570000000  0.4744070000000  0.4564560000000 1.0
C      1  0.5974860000000  0.5433800000000  0.4743590000000 1.0
C      1  0.5570930000000  0.4980060000000  0.4468510000000 1.0
C      1  0.5571210000000  0.4468790000000  0.5018690000000 1.0
C      1  0.5571710000000  0.5018970000000  0.5529950000000 1.0
C      1  0.5571430000000  0.5530240000000  0.4979770000000 1.0
C      1  0.4423310000000  0.4980090000000  0.5530780000000 1.0
C      1  0.4422790000000  0.4469060000000  0.4980380000000 1.0
C      1  0.4422550000000  0.5019470000000  0.4469350000000 1.0
C      1  0.4423070000000  0.5530490000000  0.5019750000000 1.0
C      1  0.4520030000000  0.5668820000000  0.5715300000000 1.0
C      1  0.4519040000000  0.5715060000000  0.4330930000000 1.0
C      1  0.4518680000000  0.4330690000000  0.4284690000000 1.0
C      1  0.4519680000000  0.4284450000000  0.5669060000000 1.0
C      1  0.5474530000000  0.5668910000000  0.4284280000000 1.0
C      1  0.5475540000000  0.5714560000000  0.5668680000000 1.0
C      1  0.5475250000000  0.4330170000000  0.5714320000000 1.0
C      1  0.5474240000000  0.4284520000000  0.4329940000000 1.0
C      1  0.5716340000000  0.4400490000000  0.5278260000000 1.0
C      1  0.5716770000000  0.5278610000000  0.5598120000000 1.0
C      1  0.5716210000000  0.5598470000000  0.4720000000000 1.0
C      1  0.5715770000000  0.4720350000000  0.4400140000000 1.0
C      1  0.4277630000000  0.4400940000000  0.4720780000000 1.0
C      1  0.4277610000000  0.5279200000000  0.4401300000000 1.0
C      1  0.4278320000000  0.5598680000000  0.5279560000000 1.0
C      1  0.4278340000000  0.4720430000000  0.5599040000000 1.0
C      1  0.4850710000000  0.4804470000000  0.4502300000000 1.0
C      1  0.4851140000000  0.4502230000000  0.5194970000000 1.0
C      1  0.4851520000000  0.5194890000000  0.5497200000000 1.0
C      1  0.4851090000000  0.5497130000000  0.4804540000000 1.0
C      1  0.5143450000000  0.4804190000000  0.5496910000000 1.0
C      1  0.5142870000000  0.4502240000000  0.4804120000000 1.0
C      1  0.5142820000000  0.5195040000000  0.4502170000000 1.0
C      1  0.5143390000000  0.5496980000000  0.5194970000000 1.0
C      1  0.4416430000000  0.4535510000000  0.4473990000000 1.0
C      1  0.4417130000000  0.4473700000000  0.5464340000000 1.0
C      1  0.4417410000000  0.5464060000000  0.5526160000000 1.0
C      1  0.4416700000000  0.5525870000000  0.4535800000000 1.0
C      1  0.5577610000000  0.4535010000000  0.5525110000000 1.0
C      1  0.5576870000000  0.4473630000000  0.4534730000000 1.0
C      1  0.5577060000000  0.5464010000000  0.4473340000000 1.0
C      1  0.5577790000000  0.5525400000000  0.5463730000000 1.0
C      1  0.5515770000000  0.5216860000000  0.5006820000000 1.0
C      1  0.5515560000000  0.5007080000000  0.4781930000000 1.0
C      1  0.5515660000000  0.4782190000000  0.4991720000000 1.0
C      1  0.5515870000000  0.4991970000000  0.5216610000000 1.0
C      1  0.4478580000000  0.5217110000000  0.4992570000000 1.0
C      1  0.4478690000000  0.5007230000000  0.5217360000000 1.0
C      1  0.4478480000000  0.4782430000000  0.5007480000000 1.0
C      1  0.4478370000000  0.4992310000000  0.4782680000000 1.0
C      1  0.4700760000000  0.5926830000000  0.4404750000000 1.0
C      1  0.4700160000000  0.4404600000000  0.4072760000000 1.0
C      1  0.4701190000000  0.4072610000000  0.5594970000000 1.0
C      1  0.4701780000000  0.5594830000000  0.5926970000000 1.0
C      1  0.5293920000000  0.5926430000000  0.5594950000000 1.0
C      1  0.5293810000000  0.4404070000000  0.5926280000000 1.0
C      1  0.5292630000000  0.4072720000000  0.4403930000000 1.0
C      1  0.5292740000000  0.5595090000000  0.4072580000000 1.0
C      1  0.3930070000000  0.5318450000000  0.5015780000000 1.0
C      1  0.3929760000000  0.5015250000000  0.4681870000000 1.0
C      1  0.3929900000000  0.4681340000000  0.4985060000000 1.0
C      1  0.3930210000000  0.4984540000000  0.5318970000000 1.0
C      1  0.6064330000000  0.5317960000000  0.4983650000000 1.0
C      1  0.6064500000000  0.5014620000000  0.5317430000000 1.0
C      1  0.6064200000000  0.4680840000000  0.5014100000000 1.0
C      1  0.6064030000000  0.4984180000000  0.4680320000000 1.0
C      1  0.5297840000000  0.4998490000000  0.5675200000000 1.0
C      1  0.5297510000000  0.5675340000000  0.5000510000000 1.0
C      1  0.5296860000000  0.5000660000000  0.4323660000000 1.0
C      1  0.5297200000000  0.4323810000000  0.4998340000000 1.0
C      1  0.4696400000000  0.4998920000000  0.4324100000000 1.0
C      1  0.4697050000000  0.5675480000000  0.4999070000000 1.0
C      1  0.4697380000000  0.5000510000000  0.5675630000000 1.0
C      1  0.4696740000000  0.4323950000000  0.5000660000000 1.0
C      1  0.5327910000000  0.6053610000000  0.5342480000000 1.0
C      1  0.5326740000000  0.5342640000000  0.3945370000000 1.0
C      1  0.5326930000000  0.3945510000000  0.4656340000000 1.0
C      1  0.5328100000000  0.4656500000000  0.6053450000000 1.0
C      1  0.4666820000000  0.6053920000000  0.4657270000000 1.0
C      1  0.4667670000000  0.5342340000000  0.6054080000000 1.0
C      1  0.4666830000000  0.3945530000000  0.5342500000000 1.0
C      1  0.4665980000000  0.4657110000000  0.3945700000000 1.0
C      1  0.5633640000000  0.5339830000000  0.5870800000000 1.0
C      1  0.5632890000000  0.5871110000000  0.4658850000000 1.0
C      1  0.5632220000000  0.4659160000000  0.4127580000000 1.0
C      1  0.5632980000000  0.4127890000000  0.5339520000000 1.0
C      1  0.4360760000000  0.5340510000000  0.4128650000000 1.0
C      1  0.4361760000000  0.5871260000000  0.5340820000000 1.0
C      1  0.4361860000000  0.4659080000000  0.5871580000000 1.0
C      1  0.4360860000000  0.4128330000000  0.4659400000000 1.0
C      1  0.5729200000000  0.5219730000000  0.4417470000000 1.0
C      1  0.5729280000000  0.4417830000000  0.4778860000000 1.0
C      1  0.5729950000000  0.4779220000000  0.5580770000000 1.0
C      1  0.5729870000000  0.5581130000000  0.5219370000000 1.0
C      1  0.4265140000000  0.5219820000000  0.5581920000000 1.0
C      1  0.4264690000000  0.4418070000000  0.5220180000000 1.0
C      1  0.4264200000000  0.4779810000000  0.4418440000000 1.0
C      1  0.4264640000000  0.5581560000000  0.4780180000000 1.0
C      1  0.5436710000000  0.4471190000000  0.4108570000000 1.0
C      1  0.5437660000000  0.4108780000000  0.5527680000000 1.0
C      1  0.5438250000000  0.5527890000000  0.5890090000000 1.0
C      1  0.5437310000000  0.5890310000000  0.4470980000000 1.0
C      1  0.4557280000000  0.4471020000000  0.5890500000000 1.0
C      1  0.4556170000000  0.4109220000000  0.4471240000000 1.0
C      1  0.4556240000000  0.5528480000000  0.4109430000000 1.0
C      1  0.4557350000000  0.5890280000000  0.5528700000000 1.0
C      1  0.5022120000000  0.4129210000000  0.4333940000000 1.0
C      1  0.5023280000000  0.4333940000000  0.5870060000000 1.0
C      1  0.5023490000000  0.5870070000000  0.5665330000000 1.0
C      1  0.5022330000000  0.5665340000000  0.4129200000000 1.0
C      1  0.4971720000000  0.4128930000000  0.5664990000000 1.0
C      1  0.4970650000000  0.4334330000000  0.4128950000000 1.0
C      1  0.4971160000000  0.5870370000000  0.4334350000000 1.0
C      1  0.4972220000000  0.5664970000000  0.5870390000000 1.0
C      1  0.3888010000000  0.4999900000000  0.5000450000000 1.0
C      1  0.6106240000000  0.4999390000000  0.4998840000000 1.0
END
