TITL C-47319-2942-9 -0.010415275284697 125000 -492.346137442703 0 0 70 (C1) n - 1
REM
REM in /rds/project/t2_vol4/rds-t2-cs072/BORA/CARBON/from-Arr/AIRSS/Generating-Clusters/GAP-ML-2020/Higher-Symm/SD-CG/HFTN-CG
REM
REM
REM
REM
REM
REM ./C.cell (b20cbc046b6831c77cfcea5457e17084)
REM AIRSS Version 0.9.1 bugfix July 2018 build 013d7b7c2542+ Fri, 06 Jul 2018 19:26:36 +0100
REM compiler GCC version 9.3.0
REM options -cpp -mtune=generic -march=x86-64 -g -O0
REM seed 198096400 -988073957 -324677804 1973480327 910840103 -1109377875 451458091 1343386238 -10245006 -1105414427 385690101 1199164689 1611707793 1226431206 -234226563 767242831 -177349963 676934137 -1694451739 344134739 770570811 -721372295 93487280 -832396583 1668068956 -1068746236 -1854432714 -270159549 -882261237 1088577209 -497280890 -1546227011 227928824
REM
CELL 1.54180   50.00000   50.00000   50.00000   90.00000   90.00000   90.00000
LATT -1
SFAC C  
C      1  0.5531740000000  0.4944900000000  0.4518540000000 1.0
C      1  0.5528530000000  0.4517900000000  0.4902870000000 1.0
C      1  0.5529100000000  0.4746430000000  0.5434450000000 1.0
C      1  0.5519190000000  0.5312470000000  0.5373520000000 1.0
C      1  0.5524320000000  0.5442370000000  0.4804140000000 1.0
C      1  0.4531650000000  0.4948550000000  0.4552080000000 1.0
C      1  0.4477510000000  0.4516330000000  0.4895960000000 1.0
C      1  0.4475460000000  0.4750970000000  0.5426590000000 1.0
C      1  0.4471700000000  0.5328660000000  0.5367960000000 1.0
C      1  0.4530030000000  0.5414440000000  0.4820210000000 1.0
C      1  0.5384320000000  0.4487920000000  0.4649890000000 1.0
C      1  0.5378030000000  0.4503370000000  0.5378420000000 1.0
C      1  0.5371640000000  0.5191140000000  0.5592020000000 1.0
C      1  0.5377130000000  0.5620700000000  0.4981740000000 1.0
C      1  0.5396630000000  0.5177050000000  0.4400960000000 1.0
C      1  0.4631350000000  0.4481690000000  0.4646900000000 1.0
C      1  0.4618060000000  0.4502620000000  0.5377140000000 1.0
C      1  0.4609130000000  0.5202010000000  0.5596360000000 1.0
C      1  0.4637780000000  0.5633280000000  0.4996090000000 1.0
C      1  0.4649870000000  0.5182250000000  0.4400850000000 1.0
C      1  0.4335380000000  0.4873780000000  0.5213250000000 1.0
C      1  0.4332850000000  0.5162180000000  0.5184170000000 1.0
C      1  0.4328420000000  0.5218340000000  0.4904760000000 1.0
C      1  0.4328390000000  0.4971310000000  0.4761550000000 1.0
C      1  0.4333850000000  0.4756110000000  0.4948910000000 1.0
C      1  0.5677030000000  0.4867510000000  0.5223490000000 1.0
C      1  0.5666930000000  0.5153090000000  0.5194880000000 1.0
C      1  0.5658050000000  0.5216540000000  0.4914060000000 1.0
C      1  0.5664940000000  0.4967540000000  0.4767660000000 1.0
C      1  0.5672640000000  0.4753550000000  0.4959090000000 1.0
C      1  0.5144690000000  0.4813150000000  0.4895660000000 1.0
C      1  0.5196100000000  0.4943070000000  0.5148040000000 1.0
C      1  0.5146230000000  0.5226770000000  0.5112200000000 1.0
C      1  0.5055860000000  0.5266120000000  0.4838820000000 1.0
C      1  0.5059070000000  0.5007690000000  0.4702910000000 1.0
C      1  0.4854350000000  0.4761320000000  0.4973520000000 1.0
C      1  0.4906940000000  0.4892750000000  0.5224190000000 1.0
C      1  0.4851350000000  0.5172510000000  0.5193030000000 1.0
C      1  0.4761300000000  0.5215910000000  0.4919020000000 1.0
C      1  0.4762010000000  0.4964170000000  0.4782950000000 1.0
C      1  0.4848430000000  0.4766260000000  0.5696680000000 1.0
C      1  0.4843100000000  0.5587830000000  0.5463640000000 1.0
C      1  0.4864440000000  0.5615350000000  0.4563550000000 1.0
C      1  0.4868740000000  0.4774090000000  0.4293810000000 1.0
C      1  0.4851850000000  0.4261920000000  0.4999200000000 1.0
C      1  0.5144220000000  0.4761170000000  0.5700990000000 1.0
C      1  0.5135770000000  0.5575410000000  0.5453080000000 1.0
C      1  0.5162580000000  0.5609920000000  0.4562070000000 1.0
C      1  0.5164250000000  0.4774550000000  0.4292850000000 1.0
C      1  0.5148360000000  0.4267620000000  0.4999430000000 1.0
C      1  0.5158730000000  0.5728340000000  0.4831100000000 1.0
C      1  0.5166820000000  0.5067030000000  0.4258290000000 1.0
C      1  0.5152320000000  0.4323230000000  0.4712740000000 1.0
C      1  0.5143480000000  0.4511390000000  0.5548390000000 1.0
C      1  0.5139150000000  0.5354520000000  0.5644720000000 1.0
C      1  0.4863060000000  0.5728620000000  0.4835770000000 1.0
C      1  0.4869870000000  0.5065810000000  0.4256520000000 1.0
C      1  0.4856440000000  0.4316320000000  0.4711870000000 1.0
C      1  0.4848650000000  0.4514510000000  0.5546120000000 1.0
C      1  0.4839880000000  0.5364960000000  0.5652190000000 1.0
C      1  0.4624660000000  0.5565700000000  0.5276870000000 1.0
C      1  0.4647480000000  0.5428930000000  0.4540190000000 1.0
C      1  0.4640230000000  0.4688290000000  0.4450250000000 1.0
C      1  0.4618000000000  0.4385090000000  0.5117310000000 1.0
C      1  0.4614800000000  0.4918100000000  0.5620350000000 1.0
C      1  0.5336040000000  0.5507090000000  0.5249060000000 1.0
C      1  0.5394410000000  0.5427650000000  0.4542570000000 1.0
C      1  0.5387890000000  0.4699350000000  0.4457110000000 1.0
C      1  0.5378080000000  0.4392450000000  0.5118560000000 1.0
C      1  0.5378770000000  0.4910050000000  0.5625810000000 1.0
END
