TITL C-47320-2576-4 -11.1639336448732 125000 -417.637674889306 0 0 62 (C1) n - 1
REM
REM in /rds/project/t2_vol4/rds-t2-cs072/BORA/CARBON/from-Arr/AIRSS/Generating-Clusters/GAP-ML-2020/Higher-Symm/SD-CG/HFTN-CG
REM
REM
REM
REM
REM
REM ./C.cell (b20cbc046b6831c77cfcea5457e17084)
REM AIRSS Version 0.9.1 bugfix July 2018 build 013d7b7c2542+ Fri, 06 Jul 2018 19:26:36 +0100
REM compiler GCC version 9.3.0
REM options -cpp -mtune=generic -march=x86-64 -g -O0
REM seed 679620162 -586641791 -35904494 1597415581 537513426 270864542 -1371338055 168751297 -73759999 -1896864788 -271509683 -1091183909 1497264657 -1386277888 1010995999 -1214108044 -1761127590 -253742789 13672108 -1409057992 863201212 1329735200 1871863231 -929258918 1391234481 1740860583 466088380 468429732 -1583083830 1500973242 -1921209527 -865750446 -1238060981
REM
CELL 1.54180   50.00000   50.00000   50.00000   90.00000   90.00000   90.00000
LATT -1
SFAC C  
C      1  0.4741830000000  0.4953630000000  0.4796940000000 1.0
C      1  0.4984760000000  0.4821720000000  0.4912550000000 1.0
C      1  0.5219390000000  0.5004440000000  0.4908700000000 1.0
C      1  0.5081580000000  0.5261360000000  0.4955770000000 1.0
C      1  0.4812280000000  0.5264740000000  0.4839180000000 1.0
C      1  0.5117510000000  0.5703460000000  0.4852400000000 1.0
C      1  0.4359280000000  0.5239230000000  0.4829780000000 1.0
C      1  0.4574650000000  0.4507170000000  0.4794640000000 1.0
C      1  0.5308860000000  0.4492130000000  0.4788790000000 1.0
C      1  0.5633080000000  0.5152150000000  0.4809620000000 1.0
C      1  0.5152900000000  0.4819300000000  0.5857240000000 1.0
C      1  0.5229380000000  0.5095480000000  0.5861290000000 1.0
C      1  0.4988540000000  0.5255940000000  0.5844820000000 1.0
C      1  0.4764810000000  0.5077050000000  0.5831050000000 1.0
C      1  0.4866620000000  0.4807890000000  0.5842520000000 1.0
C      1  0.4629490000000  0.5112520000000  0.5578900000000 1.0
C      1  0.4797900000000  0.4673040000000  0.5597960000000 1.0
C      1  0.5261130000000  0.4699630000000  0.5617680000000 1.0
C      1  0.5387190000000  0.5149880000000  0.5626960000000 1.0
C      1  0.4993920000000  0.5411300000000  0.5602440000000 1.0
C      1  0.5349350000000  0.5199000000000  0.4394500000000 1.0
C      1  0.4804080000000  0.5452970000000  0.4591120000000 1.0
C      1  0.4585860000000  0.4961590000000  0.4508210000000 1.0
C      1  0.4803080000000  0.4312580000000  0.4379050000000 1.0
C      1  0.5386630000000  0.4722670000000  0.4368140000000 1.0
C      1  0.4571700000000  0.5370530000000  0.4976710000000 1.0
C      1  0.4525890000000  0.4778720000000  0.4931030000000 1.0
C      1  0.5054450000000  0.4532900000000  0.4953040000000 1.0
C      1  0.5498020000000  0.4937820000000  0.4964970000000 1.0
C      1  0.5252520000000  0.5491180000000  0.5003170000000 1.0
C      1  0.5042960000000  0.4549600000000  0.5487650000000 1.0
C      1  0.5457170000000  0.4890260000000  0.5500410000000 1.0
C      1  0.5278130000000  0.5399740000000  0.5509460000000 1.0
C      1  0.4725360000000  0.5368970000000  0.5462660000000 1.0
C      1  0.4596370000000  0.4838780000000  0.5462880000000 1.0
C      1  0.5532950000000  0.4632900000000  0.4895060000000 1.0
C      1  0.5572150000000  0.5404650000000  0.4921410000000 1.0
C      1  0.4923060000000  0.5830450000000  0.5000670000000 1.0
C      1  0.4280960000000  0.4986370000000  0.4926350000000 1.0
C      1  0.4787870000000  0.4372320000000  0.4921480000000 1.0
C      1  0.4539250000000  0.4732930000000  0.4382230000000 1.0
C      1  0.5049280000000  0.4349760000000  0.4415870000000 1.0
C      1  0.5638240000000  0.4838950000000  0.4435950000000 1.0
C      1  0.5248030000000  0.5440300000000  0.4455810000000 1.0
C      1  0.4588150000000  0.5419010000000  0.4433900000000 1.0
C      1  0.5603610000000  0.5095500000000  0.4533430000000 1.0
C      1  0.5063420000000  0.5586360000000  0.4580310000000 1.0
C      1  0.4452890000000  0.5209810000000  0.4550350000000 1.0
C      1  0.4609040000000  0.4492030000000  0.4503670000000 1.0
C      1  0.5273380000000  0.4488620000000  0.4508940000000 1.0
C      1  0.4847930000000  0.4222900000000  0.5146960000000 1.0
C      1  0.5680010000000  0.4600600000000  0.5128750000000 1.0
C      1  0.5642150000000  0.5528060000000  0.5154890000000 1.0
C      1  0.4735530000000  0.5772740000000  0.5164150000000 1.0
C      1  0.4192600000000  0.4899080000000  0.5168480000000 1.0
C      1  0.5043870000000  0.4400630000000  0.5240880000000 1.0
C      1  0.5596340000000  0.4836890000000  0.5255220000000 1.0
C      1  0.5384660000000  0.5523980000000  0.5275270000000 1.0
C      1  0.4629710000000  0.5510920000000  0.5227120000000 1.0
C      1  0.4443310000000  0.4781710000000  0.5228020000000 1.0
C      1  0.5236840000000  0.4954100000000  0.4317010000000 1.0
C      1  0.5035950000000  0.5021180000000  0.5115740000000 1.0
END
