TITL C-47338-2597-2 0.0435700352328966 125000 -1092.51631261979 0 0 161 (C7) n - 1
REM
REM in /rds/project/t2_vol4/rds-t2-cs072/BORA/CARBON/from-Arr/AIRSS/Generating-Clusters/GAP-ML-2020/Higher-Symm/SD-CG/HFTN-CG
REM
REM
REM
REM
REM
REM ./C.cell (b20cbc046b6831c77cfcea5457e17084)
REM AIRSS Version 0.9.1 bugfix July 2018 build 013d7b7c2542+ Fri, 06 Jul 2018 19:26:36 +0100
REM compiler GCC version 9.3.0
REM options -cpp -mtune=generic -march=x86-64 -g -O0
REM seed 1386581809 -1762648713 1804431358 1317032951 -1108782973 -237686358 145136037 -445380736 -1594669240 425532266 -753074156 -1126652511 1698787096 -531160550 -466660317 217397867 655047671 -1576443636 -1017385568 -2078481183 276240822 -57456098 -1046986893 1890323341 467832492 285081748 2104661289 721124579 2054824908 2130381817 -894155747 -1699874521 -1199113975
REM
CELL 1.54180   50.00000   50.00000   50.00000   90.00000   90.00000   90.00000
LATT -1
SFAC C  
C      1  0.4548100000000  0.5787810000000  0.4579370000000 1.0
C      1  0.4389370000000  0.5787800000000  0.5091040000000 1.0
C      1  0.4690450000000  0.5787810000000  0.5534160000000 1.0
C      1  0.5224610000000  0.5787820000000  0.5575050000000 1.0
C      1  0.5589630000000  0.5787820000000  0.5182920000000 1.0
C      1  0.5510630000000  0.5787830000000  0.4653050000000 1.0
C      1  0.5047110000000  0.5787820000000  0.4384440000000 1.0
C      1  0.4667010000000  0.4412610000000  0.4988260000000 1.0
C      1  0.4783210000000  0.4412610000000  0.5253020000000 1.0
C      1  0.5062670000000  0.4412610000000  0.5327260000000 1.0
C      1  0.5294940000000  0.4412620000000  0.5155050000000 1.0
C      1  0.5305120000000  0.4412620000000  0.4866090000000 1.0
C      1  0.5085550000000  0.4412620000000  0.4677960000000 1.0
C      1  0.4801570000000  0.4412610000000  0.4732330000000 1.0
C      1  0.5221380000000  0.5462550000000  0.4740960000000 1.0
C      1  0.4935500000000  0.5462550000000  0.4665400000000 1.0
C      1  0.4698180000000  0.5462540000000  0.4841800000000 1.0
C      1  0.4688130000000  0.5462540000000  0.5137340000000 1.0
C      1  0.4912920000000  0.5462540000000  0.5329450000000 1.0
C      1  0.5203280000000  0.5462550000000  0.5273490000000 1.0
C      1  0.5340560000000  0.5462550000000  0.5011580000000 1.0
C      1  0.4828060000000  0.4579810000000  0.5823500000000 1.0
C      1  0.5536640000000  0.4579820000000  0.5647880000000 1.0
C      1  0.5841120000000  0.4579830000000  0.4984390000000 1.0
C      1  0.5512230000000  0.4579830000000  0.4332650000000 1.0
C      1  0.4797630000000  0.4579820000000  0.4183440000000 1.0
C      1  0.4235420000000  0.4579810000000  0.4649110000000 1.0
C      1  0.4248960000000  0.4579800000000  0.5379010000000 1.0
C      1  0.4867650000000  0.4722830000000  0.4676310000000 1.0
C      1  0.4664410000000  0.4722820000000  0.4901660000000 1.0
C      1  0.4713880000000  0.4722820000000  0.5201070000000 1.0
C      1  0.4978810000000  0.4722820000000  0.5349060000000 1.0
C      1  0.5259700000000  0.4722830000000  0.5234210000000 1.0
C      1  0.5345030000000  0.4722830000000  0.4942990000000 1.0
C      1  0.5170550000000  0.4722830000000  0.4694700000000 1.0
C      1  0.4724850000000  0.5070750000000  0.5559820000000 1.0
C      1  0.5266130000000  0.5070760000000  0.5564160000000 1.0
C      1  0.5607000000000  0.5070770000000  0.5143680000000 1.0
C      1  0.5490790000000  0.5070770000000  0.4615010000000 1.0
C      1  0.5005000000000  0.5070760000000  0.4376240000000 1.0
C      1  0.4515450000000  0.5070750000000  0.4607180000000 1.0
C      1  0.4390770000000  0.5070740000000  0.5133920000000 1.0
C      1  0.4410270000000  0.4824260000000  0.4759660000000 1.0
C      1  0.4444410000000  0.4824260000000  0.5311220000000 1.0
C      1  0.4896920000000  0.4824260000000  0.5628420000000 1.0
C      1  0.5427060000000  0.4824280000000  0.5472410000000 1.0
C      1  0.5635610000000  0.4824280000000  0.4960660000000 1.0
C      1  0.5365540000000  0.4824280000000  0.4478530000000 1.0
C      1  0.4820210000000  0.4824270000000  0.4389080000000 1.0
C      1  0.6020380000000  0.5275590000000  0.5248470000000 1.0
C      1  0.5830450000000  0.5275590000000  0.4357150000000 1.0
C      1  0.5015180000000  0.5275580000000  0.3949910000000 1.0
C      1  0.4188470000000  0.5275560000000  0.4333410000000 1.0
C      1  0.3972860000000  0.5275550000000  0.5218870000000 1.0
C      1  0.4530700000000  0.5275560000000  0.5939510000000 1.0
C      1  0.5441930000000  0.5275570000000  0.5952690000000 1.0
C      1  0.5299130000000  0.4006120000000  0.4820590000000 1.0
C      1  0.5046250000000  0.4006110000000  0.4654280000000 1.0
C      1  0.4758560000000  0.4006110000000  0.4748300000000 1.0
C      1  0.4652680000000  0.4006110000000  0.5031850000000 1.0
C      1  0.4808360000000  0.4006110000000  0.5291410000000 1.0
C      1  0.5108360000000  0.4006110000000  0.5331530000000 1.0
C      1  0.5326770000000  0.4006120000000  0.5122000000000 1.0
C      1  0.5533200000000  0.4786420000000  0.5870140000000 1.0
C      1  0.6012750000000  0.4786440000000  0.5125660000000 1.0
C      1  0.5729680000000  0.4786440000000  0.4286550000000 1.0
C      1  0.4897150000000  0.4786420000000  0.3984690000000 1.0
C      1  0.4142080000000  0.4786410000000  0.4447370000000 1.0
C      1  0.4033030000000  0.4786400000000  0.5326200000000 1.0
C      1  0.4652140000000  0.4786410000000  0.5959390000000 1.0
C      1  0.5441260000000  0.5306720000000  0.5659650000000 1.0
C      1  0.5790850000000  0.5306730000000  0.5066290000000 1.0
C      1  0.5544910000000  0.5306730000000  0.4423010000000 1.0
C      1  0.4888640000000  0.5306720000000  0.4214220000000 1.0
C      1  0.4316220000000  0.5306710000000  0.4597140000000 1.0
C      1  0.4258700000000  0.5306700000000  0.5283420000000 1.0
C      1  0.4759390000000  0.5306710000000  0.5756280000000 1.0
C      1  0.5301090000000  0.5916310000000  0.4815360000000 1.0
C      1  0.5043350000000  0.5916310000000  0.4649470000000 1.0
C      1  0.4752960000000  0.5916300000000  0.4747540000000 1.0
C      1  0.4648590000000  0.5916300000000  0.5035730000000 1.0
C      1  0.4808820000000  0.5916300000000  0.5297010000000 1.0
C      1  0.5113000000000  0.5916310000000  0.5334650000000 1.0
C      1  0.5332080000000  0.5916310000000  0.5120290000000 1.0
C      1  0.4694460000000  0.5060520000000  0.6047820000000 1.0
C      1  0.5628720000000  0.5060540000000  0.5892180000000 1.0
C      1  0.6089530000000  0.5060550000000  0.5064710000000 1.0
C      1  0.5729910000000  0.5060550000000  0.4188520000000 1.0
C      1  0.4820650000000  0.5060540000000  0.3923380000000 1.0
C      1  0.4046440000000  0.5060520000000  0.4468960000000 1.0
C      1  0.3990280000000  0.5060510000000  0.5414430000000 1.0
C      1  0.5155680000000  0.4221440000000  0.5535380000000 1.0
C      1  0.5515650000000  0.4221450000000  0.5212090000000 1.0
C      1  0.5487330000000  0.4221450000000  0.4729100000000 1.0
C      1  0.5092060000000  0.4221450000000  0.4450090000000 1.0
C      1  0.4627470000000  0.4221440000000  0.4585170000000 1.0
C      1  0.4443410000000  0.4221430000000  0.5032630000000 1.0
C      1  0.4678490000000  0.4221430000000  0.5455510000000 1.0
C      1  0.5250700000000  0.4964320000000  0.4246050000000 1.0
C      1  0.4566840000000  0.4964310000000  0.4333910000000 1.0
C      1  0.4209160000000  0.4964300000000  0.4923360000000 1.0
C      1  0.4447000000000  0.4964300000000  0.5570520000000 1.0
C      1  0.5101260000000  0.4964310000000  0.5788060000000 1.0
C      1  0.5679270000000  0.4964320000000  0.5412180000000 1.0
C      1  0.5745770000000  0.4964320000000  0.4725920000000 1.0
C      1  0.5634860000000  0.4379190000000  0.4541510000000 1.0
C      1  0.5037370000000  0.4379180000000  0.4217790000000 1.0
C      1  0.4411750000000  0.4379170000000  0.4483090000000 1.0
C      1  0.4229100000000  0.4379160000000  0.5137630000000 1.0
C      1  0.4626960000000  0.4379160000000  0.5688530000000 1.0
C      1  0.5305740000000  0.4379170000000  0.5720950000000 1.0
C      1  0.5754290000000  0.4379190000000  0.5210480000000 1.0
C      1  0.4029530000000  0.4762260000000  0.5040260000000 1.0
C      1  0.4426400000000  0.4762260000000  0.5783850000000 1.0
C      1  0.5255210000000  0.4762280000000  0.5937180000000 1.0
C      1  0.5891840000000  0.4762290000000  0.5384800000000 1.0
C      1  0.5856900000000  0.4762300000000  0.4542650000000 1.0
C      1  0.5176700000000  0.4762290000000  0.4044890000000 1.0
C      1  0.4363440000000  0.4762270000000  0.4266350000000 1.0
C      1  0.4860030000000  0.5565300000000  0.5624710000000 1.0
C      1  0.5401140000000  0.5565310000000  0.5498930000000 1.0
C      1  0.5640180000000  0.5565320000000  0.4997450000000 1.0
C      1  0.5397140000000  0.5565320000000  0.4497890000000 1.0
C      1  0.4855040000000  0.5565310000000  0.4376440000000 1.0
C      1  0.4422090000000  0.5565300000000  0.4724540000000 1.0
C      1  0.4424310000000  0.5565300000000  0.5280080000000 1.0
C      1  0.4664520000000  0.5160150000000  0.5072700000000 1.0
C      1  0.4847660000000  0.5160150000000  0.5307610000000 1.0
C      1  0.5145520000000  0.5160160000000  0.5310890000000 1.0
C      1  0.5333790000000  0.5160160000000  0.5080060000000 1.0
C      1  0.5270710000000  0.5160160000000  0.4788950000000 1.0
C      1  0.5003780000000  0.5160160000000  0.4656760000000 1.0
C      1  0.4734000000000  0.5160160000000  0.4783040000000 1.0
C      1  0.5771400000000  0.4520680000000  0.5456550000000 1.0
C      1  0.5837910000000  0.4520690000000  0.4681550000000 1.0
C      1  0.5273460000000  0.4520680000000  0.4146350000000 1.0
C      1  0.4503090000000  0.4520670000000  0.4253960000000 1.0
C      1  0.4106910000000  0.4520660000000  0.4923350000000 1.0
C      1  0.4383250000000  0.4520660000000  0.5650460000000 1.0
C      1  0.5124020000000  0.4520670000000  0.5887750000000 1.0
C      1  0.5715730000000  0.5186120000000  0.5611470000000 1.0
C      1  0.5924310000000  0.5186130000000  0.4821660000000 1.0
C      1  0.5436870000000  0.5186130000000  0.4166150000000 1.0
C      1  0.4620450000000  0.5186110000000  0.4138550000000 1.0
C      1  0.4089840000000  0.5186100000000  0.4759640000000 1.0
C      1  0.4244600000000  0.5186100000000  0.5561720000000 1.0
C      1  0.4968190000000  0.5186110000000  0.5940820000000 1.0
C      1  0.4424180000000  0.5397770000000  0.4220200000000 1.0
C      1  0.4031310000000  0.5397750000000  0.4964000000000 1.0
C      1  0.4367880000000  0.5397750000000  0.5734900000000 1.0
C      1  0.5180440000000  0.5397770000000  0.5952410000000 1.0
C      1  0.5857130000000  0.5397780000000  0.5452740000000 1.0
C      1  0.5888370000000  0.5397790000000  0.4612150000000 1.0
C      1  0.5250650000000  0.5397780000000  0.4063620000000 1.0
C      1  0.4222680000000  0.5630450000000  0.4924250000000 1.0
C      1  0.4456120000000  0.5630450000000  0.5560500000000 1.0
C      1  0.5099100000000  0.5630460000000  0.5774680000000 1.0
C      1  0.5667450000000  0.5630470000000  0.5405520000000 1.0
C      1  0.5733190000000  0.5630480000000  0.4730990000000 1.0
C      1  0.5246810000000  0.5630470000000  0.4259040000000 1.0
C      1  0.4574570000000  0.5630460000000  0.4345050000000 1.0
END
