TITL C-47328-2748-4 -68.3697756843437 125000 -725.508758823493 0 0 107 (C1) n - 1
REM
REM in /rds/project/t2_vol4/rds-t2-cs072/BORA/CARBON/from-Arr/AIRSS/Generating-Clusters/GAP-ML-2020/Higher-Symm/SD-CG/HFTN-CG
REM
REM
REM
REM
REM
REM ./C.cell (b20cbc046b6831c77cfcea5457e17084)
REM AIRSS Version 0.9.1 bugfix July 2018 build 013d7b7c2542+ Fri, 06 Jul 2018 19:26:36 +0100
REM compiler GCC version 9.3.0
REM options -cpp -mtune=generic -march=x86-64 -g -O0
REM seed 1322246507 361968403 -1555391781 1634022358 -143741306 472667409 1800986698 -1213273230 218368342 -1176122788 -1786801585 -1913928773 -1003075644 1943129402 -345486901 -1129286224 -941807317 -293406288 -1477947827 2015612604 497870605 1040427966 443797411 1455708936 -2092073879 -2059735585 2084032060 110498062 -293998981 1127498862 1130046081 1776627051 900865525
REM
CELL 1.54180   50.00000   50.00000   50.00000   90.00000   90.00000   90.00000
LATT -1
SFAC C  
C      1  0.5222530000000  0.5308720000000  0.4089250000000 1.0
C      1  0.5156010000000  0.4217030000000  0.4403540000000 1.0
C      1  0.5235250000000  0.4249580000000  0.5561320000000 1.0
C      1  0.5169810000000  0.5307480000000  0.5949030000000 1.0
C      1  0.5216090000000  0.5953950000000  0.5005080000000 1.0
C      1  0.4766380000000  0.5308120000000  0.5919660000000 1.0
C      1  0.4840550000000  0.4224280000000  0.5576560000000 1.0
C      1  0.4748350000000  0.4225290000000  0.4404650000000 1.0
C      1  0.4812530000000  0.5296410000000  0.4092120000000 1.0
C      1  0.4818760000000  0.5969030000000  0.4984930000000 1.0
C      1  0.4442800000000  0.5337220000000  0.4777940000000 1.0
C      1  0.4420570000000  0.5017430000000  0.4759540000000 1.0
C      1  0.4457010000000  0.4553720000000  0.5054710000000 1.0
C      1  0.4418470000000  0.4799870000000  0.5215130000000 1.0
C      1  0.4402190000000  0.5293880000000  0.5083390000000 1.0
C      1  0.5545870000000  0.5309160000000  0.5259540000000 1.0
C      1  0.5573840000000  0.5006380000000  0.5303980000000 1.0
C      1  0.5585590000000  0.4730130000000  0.4870470000000 1.0
C      1  0.5541880000000  0.4799740000000  0.4585900000000 1.0
C      1  0.5576960000000  0.5233580000000  0.4943830000000 1.0
C      1  0.5623110000000  0.4876410000000  0.5565030000000 1.0
C      1  0.5649030000000  0.5529440000000  0.5421140000000 1.0
C      1  0.5626590000000  0.5423610000000  0.4713020000000 1.0
C      1  0.5652400000000  0.4764340000000  0.4330770000000 1.0
C      1  0.5609490000000  0.4437960000000  0.4948840000000 1.0
C      1  0.4375220000000  0.4859650000000  0.4508790000000 1.0
C      1  0.4345870000000  0.5551500000000  0.4603440000000 1.0
C      1  0.4377680000000  0.5495300000000  0.5301900000000 1.0
C      1  0.4402200000000  0.4789020000000  0.5519670000000 1.0
C      1  0.4347940000000  0.4296260000000  0.5027400000000 1.0
C      1  0.5419850000000  0.5279140000000  0.5820040000000 1.0
C      1  0.5460910000000  0.5814600000000  0.5026700000000 1.0
C      1  0.5465490000000  0.5236440000000  0.4220230000000 1.0
C      1  0.5405830000000  0.4302460000000  0.4501020000000 1.0
C      1  0.5466730000000  0.4374040000000  0.5469760000000 1.0
C      1  0.4560760000000  0.5261860000000  0.4224570000000 1.0
C      1  0.4561210000000  0.5855350000000  0.4976200000000 1.0
C      1  0.4553920000000  0.5257720000000  0.5744100000000 1.0
C      1  0.4586500000000  0.4310500000000  0.5503410000000 1.0
C      1  0.4521480000000  0.4321690000000  0.4545200000000 1.0
C      1  0.5004360000000  0.5957560000000  0.5206970000000 1.0
C      1  0.5015760000000  0.5493220000000  0.4148160000000 1.0
C      1  0.4952700000000  0.4367520000000  0.4252350000000 1.0
C      1  0.5039330000000  0.4112000000000  0.5396150000000 1.0
C      1  0.4963190000000  0.5118370000000  0.6003540000000 1.0
C      1  0.5029840000000  0.5941130000000  0.4784380000000 1.0
C      1  0.4972170000000  0.5503720000000  0.5888880000000 1.0
C      1  0.5033510000000  0.4375450000000  0.5728320000000 1.0
C      1  0.4949200000000  0.4083280000000  0.4541400000000 1.0
C      1  0.5020220000000  0.5120080000000  0.4014170000000 1.0
C      1  0.5114450000000  0.4687720000000  0.4716680000000 1.0
C      1  0.5165680000000  0.4705280000000  0.5184800000000 1.0
C      1  0.5095930000000  0.5136090000000  0.5402780000000 1.0
C      1  0.5137740000000  0.5398530000000  0.5034760000000 1.0
C      1  0.5153630000000  0.5134710000000  0.4636800000000 1.0
C      1  0.4894780000000  0.4650230000000  0.5200200000000 1.0
C      1  0.4839880000000  0.4685790000000  0.4767340000000 1.0
C      1  0.4874320000000  0.5152550000000  0.4643320000000 1.0
C      1  0.4866730000000  0.5431570000000  0.4994850000000 1.0
C      1  0.4824930000000  0.5104730000000  0.5337630000000 1.0
C      1  0.4536210000000  0.4222150000000  0.5234950000000 1.0
C      1  0.4539760000000  0.4966280000000  0.5714980000000 1.0
C      1  0.4510460000000  0.5742830000000  0.5234620000000 1.0
C      1  0.4518150000000  0.5496150000000  0.4375660000000 1.0
C      1  0.4493840000000  0.4596370000000  0.4449220000000 1.0
C      1  0.5459200000000  0.4254320000000  0.4778810000000 1.0
C      1  0.5490720000000  0.4951260000000  0.4183240000000 1.0
C      1  0.5507910000000  0.5680900000000  0.4774840000000 1.0
C      1  0.5472590000000  0.5501240000000  0.5652090000000 1.0
C      1  0.5500150000000  0.4617510000000  0.5622020000000 1.0
C      1  0.5269610000000  0.4934360000000  0.5302240000000 1.0
C      1  0.5235240000000  0.5384500000000  0.5311310000000 1.0
C      1  0.5274460000000  0.5203760000000  0.4887400000000 1.0
C      1  0.5245030000000  0.4877310000000  0.4530130000000 1.0
C      1  0.5285080000000  0.4695490000000  0.4933140000000 1.0
C      1  0.4726360000000  0.4948540000000  0.4776970000000 1.0
C      1  0.4751200000000  0.5405360000000  0.4730000000000 1.0
C      1  0.4699150000000  0.5283080000000  0.5159000000000 1.0
C      1  0.4723140000000  0.4856740000000  0.5256580000000 1.0
C      1  0.4755540000000  0.4506450000000  0.4985770000000 1.0
C      1  0.4523770000000  0.5479370000000  0.5559260000000 1.0
C      1  0.4512720000000  0.5764840000000  0.4710630000000 1.0
C      1  0.4517240000000  0.4982180000000  0.4284150000000 1.0
C      1  0.4508090000000  0.4202780000000  0.4803700000000 1.0
C      1  0.4534130000000  0.4560180000000  0.5634880000000 1.0
C      1  0.5488680000000  0.5416770000000  0.4449780000000 1.0
C      1  0.5494080000000  0.5740210000000  0.5297720000000 1.0
C      1  0.5461230000000  0.5002680000000  0.5772160000000 1.0
C      1  0.5501220000000  0.4309900000000  0.5189220000000 1.0
C      1  0.5456040000000  0.4549970000000  0.4361380000000 1.0
C      1  0.4700200000000  0.5707170000000  0.5467500000000 1.0
C      1  0.4745030000000  0.5644260000000  0.4544500000000 1.0
C      1  0.4676300000000  0.4732910000000  0.4250170000000 1.0
C      1  0.4757190000000  0.4200820000000  0.5008300000000 1.0
C      1  0.4723420000000  0.4738030000000  0.5789650000000 1.0
C      1  0.5320500000000  0.5656110000000  0.4543160000000 1.0
C      1  0.5254410000000  0.5645260000000  0.5468810000000 1.0
C      1  0.5302960000000  0.4747780000000  0.5798320000000 1.0
C      1  0.5307840000000  0.4159700000000  0.5020050000000 1.0
C      1  0.5237440000000  0.4761630000000  0.4249890000000 1.0
C      1  0.4948680000000  0.4640350000000  0.4186500000000 1.0
C      1  0.5036200000000  0.4095630000000  0.5111790000000 1.0
C      1  0.5016100000000  0.4647350000000  0.5821870000000 1.0
C      1  0.4982050000000  0.5798660000000  0.5442670000000 1.0
C      1  0.5042810000000  0.5768920000000  0.4559000000000 1.0
C      1  0.4319160000000  0.5012340000000  0.5038250000000 1.0
C      1  0.5671840000000  0.4965350000000  0.5023770000000 1.0
END
