TITL C-47334-2654-10 12.2018170398581 125000 -323.333259902169 0 0 48 (C1) n - 1
REM
REM in /rds/project/t2_vol4/rds-t2-cs072/BORA/CARBON/from-Arr/AIRSS/Generating-Clusters/GAP-ML-2020/Higher-Symm/SD-CG/HFTN-CG
REM
REM
REM
REM
REM
REM ./C.cell (b20cbc046b6831c77cfcea5457e17084)
REM AIRSS Version 0.9.1 bugfix July 2018 build 013d7b7c2542+ Fri, 06 Jul 2018 19:26:36 +0100
REM compiler GCC version 9.3.0
REM options -cpp -mtune=generic -march=x86-64 -g -O0
REM seed 300135989 1293464200 504586482 1195733857 1053981559 -1317697412 -320814562 -797637744 -1679625693 513525201 -1442608182 -291831218 -1928978435 2145833319 -1754941852 1522640149 -1574676590 1492227985 -370778015 -1356733375 1962377373 904748980 1139917194 -1963380942 -1858735903 1411558559 -1645979856 1268603092 -250441593 -2046284609 -1313727009 -1588678843 1922529853
REM
CELL 1.54180   50.00000   50.00000   50.00000   90.00000   90.00000   90.00000
LATT -1
SFAC C  
C      1  0.5255010000000  0.5335830000000  0.5403500000000 1.0
C      1  0.5469780000000  0.5360230000000  0.4876520000000 1.0
C      1  0.4992450000000  0.5372150000000  0.4479290000000 1.0
C      1  0.4523330000000  0.5315570000000  0.4827560000000 1.0
C      1  0.4681980000000  0.5330710000000  0.5377220000000 1.0
C      1  0.5209500000000  0.4974260000000  0.5721480000000 1.0
C      1  0.5736210000000  0.4964780000000  0.4981200000000 1.0
C      1  0.5238700000000  0.4977650000000  0.4311160000000 1.0
C      1  0.4423740000000  0.4937480000000  0.4522770000000 1.0
C      1  0.4374740000000  0.4951800000000  0.5434460000000 1.0
C      1  0.5090770000000  0.4803110000000  0.5516950000000 1.0
C      1  0.5571000000000  0.4787060000000  0.4867580000000 1.0
C      1  0.5155520000000  0.4807070000000  0.4529300000000 1.0
C      1  0.4621410000000  0.4758470000000  0.4551710000000 1.0
C      1  0.4611070000000  0.4797330000000  0.5374080000000 1.0
C      1  0.5249470000000  0.5242070000000  0.4419910000000 1.0
C      1  0.4522640000000  0.5199620000000  0.4567260000000 1.0
C      1  0.4430120000000  0.5198430000000  0.5308510000000 1.0
C      1  0.5114480000000  0.5230760000000  0.5627470000000 1.0
C      1  0.5592510000000  0.5188490000000  0.5070540000000 1.0
C      1  0.5336850000000  0.4401530000000  0.4757740000000 1.0
C      1  0.4882970000000  0.4394180000000  0.4613220000000 1.0
C      1  0.4619650000000  0.4597510000000  0.4989630000000 1.0
C      1  0.4879450000000  0.4364350000000  0.5380700000000 1.0
C      1  0.5320430000000  0.4604370000000  0.5215410000000 1.0
C      1  0.4965250000000  0.5546020000000  0.4713330000000 1.0
C      1  0.4741180000000  0.5487860000000  0.4904410000000 1.0
C      1  0.4831900000000  0.5474310000000  0.5178890000000 1.0
C      1  0.5117950000000  0.5493250000000  0.5211400000000 1.0
C      1  0.5264900000000  0.5548830000000  0.4964320000000 1.0
C      1  0.4810610000000  0.4901270000000  0.5548510000000 1.0
C      1  0.5256160000000  0.4890530000000  0.5255010000000 1.0
C      1  0.5335140000000  0.4924790000000  0.4755190000000 1.0
C      1  0.4875310000000  0.4913830000000  0.4593520000000 1.0
C      1  0.4639470000000  0.4889320000000  0.5046750000000 1.0
C      1  0.5433030000000  0.5134250000000  0.5296230000000 1.0
C      1  0.5397230000000  0.5200270000000  0.4657560000000 1.0
C      1  0.4793020000000  0.5176660000000  0.4477700000000 1.0
C      1  0.4452000000000  0.5124860000000  0.5030870000000 1.0
C      1  0.4838780000000  0.5185810000000  0.5559090000000 1.0
C      1  0.5115750000000  0.4515490000000  0.5397950000000 1.0
C      1  0.5445650000000  0.4530720000000  0.4967410000000 1.0
C      1  0.5135650000000  0.4500330000000  0.4596300000000 1.0
C      1  0.4665440000000  0.4515810000000  0.4717430000000 1.0
C      1  0.4676110000000  0.4513990000000  0.5257370000000 1.0
C      1  0.4885860000000  0.4933600000000  0.4894390000000 1.0
C      1  0.5143790000000  0.4938130000000  0.4986270000000 1.0
C      1  0.5160510000000  0.5729850000000  0.4778880000000 1.0
END
