TITL C-47344-2713-5 195.84756504458 125000 -439.673195510569 0 0 72 (Td) n - 1
REM
REM in /rds/project/t2_vol4/rds-t2-cs072/BORA/CARBON/from-Arr/AIRSS/Generating-Clusters/GAP-ML-2020/Higher-Symm/SD-CG/HFTN-CG
REM
REM
REM
REM
REM
REM ./C.cell (b20cbc046b6831c77cfcea5457e17084)
REM AIRSS Version 0.9.1 bugfix July 2018 build 013d7b7c2542+ Fri, 06 Jul 2018 19:26:36 +0100
REM compiler GCC version 9.3.0
REM options -cpp -mtune=generic -march=x86-64 -g -O0
REM seed 788446095 469048212 -677116813 -268146044 -659556803 -1442984972 -1769140334 126444375 -313462876 39949848 512889648 2003391195 -272805325 -888526924 -1565362416 170749406 -233467791 1822274382 1807555041 906380323 -1021721518 -234992641 -1929466086 -885955576 792088764 -2073934608 -1498186798 -476240427 -186484286 768879707 1599184079 1842081903 1658663869
REM
CELL 1.54180   50.00000   50.00000   50.00000   90.00000   90.00000   90.00000
LATT -1
SFAC C  
C      1  0.5194710000000  0.5413900000000  0.4359090000000 1.0
C      1  0.5413900000000  0.4359090000000  0.5194710000000 1.0
C      1  0.4359090000000  0.5194710000000  0.5413900000000 1.0
C      1  0.4805300000000  0.4586100000000  0.4359090000000 1.0
C      1  0.5194700000000  0.4586100000000  0.5640910000000 1.0
C      1  0.4805290000000  0.5413900000000  0.5640900000000 1.0
C      1  0.4586100000000  0.5640910000000  0.5194700000000 1.0
C      1  0.5413900000000  0.5640900000000  0.4805290000000 1.0
C      1  0.4586100000000  0.4359090000000  0.4805290000000 1.0
C      1  0.5640900000000  0.4805300000000  0.5413900000000 1.0
C      1  0.4359090000000  0.4805300000000  0.4586100000000 1.0
C      1  0.5640910000000  0.5194700000000  0.4586100000000 1.0
C      1  0.5413900000000  0.5194700000000  0.4359090000000 1.0
C      1  0.4359090000000  0.5413900000000  0.5194700000000 1.0
C      1  0.5194700000000  0.4359090000000  0.5413900000000 1.0
C      1  0.4586100000000  0.4805300000000  0.4359090000000 1.0
C      1  0.4586100000000  0.5194710000000  0.5640900000000 1.0
C      1  0.5413900000000  0.4805300000000  0.5640910000000 1.0
C      1  0.5640900000000  0.4586100000000  0.5194710000000 1.0
C      1  0.5640910000000  0.5413900000000  0.4805290000000 1.0
C      1  0.4359090000000  0.4586100000000  0.4805290000000 1.0
C      1  0.4805300000000  0.5640910000000  0.5413900000000 1.0
C      1  0.4805300000000  0.4359090000000  0.4586100000000 1.0
C      1  0.5194710000000  0.5640910000000  0.4586100000000 1.0
C      1  0.4591620000000  0.5000620000000  0.5209610000000 1.0
C      1  0.5000620000000  0.5209610000000  0.4591620000000 1.0
C      1  0.5209610000000  0.4591620000000  0.5000620000000 1.0
C      1  0.5408380000000  0.4999380000000  0.5209610000000 1.0
C      1  0.4591620000000  0.4999380000000  0.4790390000000 1.0
C      1  0.5408380000000  0.5000620000000  0.4790390000000 1.0
C      1  0.4999380000000  0.4790390000000  0.4591620000000 1.0
C      1  0.5000610000000  0.4790390000000  0.5408380000000 1.0
C      1  0.4999380000000  0.5209610000000  0.5408380000000 1.0
C      1  0.4790390000000  0.5408380000000  0.5000620000000 1.0
C      1  0.5209610000000  0.5408380000000  0.4999380000000 1.0
C      1  0.4790390000000  0.4591620000000  0.4999380000000 1.0
C      1  0.5000620000000  0.4591620000000  0.5209610000000 1.0
C      1  0.5209610000000  0.5000620000000  0.4591620000000 1.0
C      1  0.4591620000000  0.5209610000000  0.5000620000000 1.0
C      1  0.4999380000000  0.5408380000000  0.5209610000000 1.0
C      1  0.4999380000000  0.4591620000000  0.4790390000000 1.0
C      1  0.5000620000000  0.5408380000000  0.4790390000000 1.0
C      1  0.4790390000000  0.4999380000000  0.4591620000000 1.0
C      1  0.4790390000000  0.5000620000000  0.5408380000000 1.0
C      1  0.5209610000000  0.4999380000000  0.5408380000000 1.0
C      1  0.5408380000000  0.4790390000000  0.5000620000000 1.0
C      1  0.5408380000000  0.5209610000000  0.4999380000000 1.0
C      1  0.4591620000000  0.4790390000000  0.4999380000000 1.0
C      1  0.5274880000000  0.4936340000000  0.4302170000000 1.0
C      1  0.4936340000000  0.4302170000000  0.5274880000000 1.0
C      1  0.4302170000000  0.5274880000000  0.4936340000000 1.0
C      1  0.4725130000000  0.5063660000000  0.4302170000000 1.0
C      1  0.5274870000000  0.5063660000000  0.5697830000000 1.0
C      1  0.4725120000000  0.4936340000000  0.5697830000000 1.0
C      1  0.5063660000000  0.5697830000000  0.5274870000000 1.0
C      1  0.4936340000000  0.5697830000000  0.4725120000000 1.0
C      1  0.5063660000000  0.4302170000000  0.4725130000000 1.0
C      1  0.5697830000000  0.4725120000000  0.4936340000000 1.0
C      1  0.4302170000000  0.4725130000000  0.5063660000000 1.0
C      1  0.5697830000000  0.5274870000000  0.5063660000000 1.0
C      1  0.4936340000000  0.5274870000000  0.4302170000000 1.0
C      1  0.4302170000000  0.4936340000000  0.5274870000000 1.0
C      1  0.5274870000000  0.4302170000000  0.4936340000000 1.0
C      1  0.5063660000000  0.4725120000000  0.4302170000000 1.0
C      1  0.5063660000000  0.5274880000000  0.5697830000000 1.0
C      1  0.4936340000000  0.4725130000000  0.5697830000000 1.0
C      1  0.5697830000000  0.5063660000000  0.5274880000000 1.0
C      1  0.5697830000000  0.4936340000000  0.4725130000000 1.0
C      1  0.4302170000000  0.5063660000000  0.4725120000000 1.0
C      1  0.4725130000000  0.5697830000000  0.4936340000000 1.0
C      1  0.4725120000000  0.4302170000000  0.5063660000000 1.0
C      1  0.5274880000000  0.5697830000000  0.5063660000000 1.0
END
