TITL C-47344-2713-2 30.06041749613 125000 -111.369715943567 0 0 18 (C1) n - 1
REM
REM in /rds/project/t2_vol4/rds-t2-cs072/BORA/CARBON/from-Arr/AIRSS/Generating-Clusters/GAP-ML-2020/Higher-Symm/SD-CG/HFTN-CG
REM
REM
REM
REM
REM
REM ./C.cell (b20cbc046b6831c77cfcea5457e17084)
REM AIRSS Version 0.9.1 bugfix July 2018 build 013d7b7c2542+ Fri, 06 Jul 2018 19:26:36 +0100
REM compiler GCC version 9.3.0
REM options -cpp -mtune=generic -march=x86-64 -g -O0
REM seed -641329368 -38187431 633743463 -1037878003 -1630806848 1494734246 149068756 -1137150570 -93088657 -175895488 -869475185 -767623141 -923490500 -55988218 -2046182140 -496684969 -722614007 1852926524 -463245386 557410908 -1960876287 1977322489 -1074681887 -788425185 -1005691221 1184358150 1210764751 1755173778 -1642480494 -1639364279 1163422813 -626385220 585717262
REM
CELL 1.54180   50.00000   50.00000   50.00000   90.00000   90.00000   90.00000
LATT -1
SFAC C  
C      1  0.4713520000000  0.4703460000000  0.4943940000000 1.0
C      1  0.5156780000000  0.4645520000000  0.4726820000000 1.0
C      1  0.5644060000000  0.4919050000000  0.5281260000000 1.0
C      1  0.4571160000000  0.5087170000000  0.5080110000000 1.0
C      1  0.4647950000000  0.4951500000000  0.4799090000000 1.0
C      1  0.4682930000000  0.4842790000000  0.5199560000000 1.0
C      1  0.4745610000000  0.5305020000000  0.5098070000000 1.0
C      1  0.5008530000000  0.5331110000000  0.5182560000000 1.0
C      1  0.4998580000000  0.4649390000000  0.4958530000000 1.0
C      1  0.4851500000000  0.4746610000000  0.5389590000000 1.0
C      1  0.5174440000000  0.5141580000000  0.4567050000000 1.0
C      1  0.5016320000000  0.5300840000000  0.4710210000000 1.0
C      1  0.5181310000000  0.4881970000000  0.4627170000000 1.0
C      1  0.5467690000000  0.5098890000000  0.5241570000000 1.0
C      1  0.4947400000000  0.5047440000000  0.4881400000000 1.0
C      1  0.5192990000000  0.5101940000000  0.5176980000000 1.0
C      1  0.5074640000000  0.4799600000000  0.5218030000000 1.0
C      1  0.4924600000000  0.5446110000000  0.4918070000000 1.0
END
