TITL C-47326-5787-8 21.9561469819032 125000 -720.840228970584 0 0 106 (C1) n - 1
REM
REM in /rds/project/t2_vol4/rds-t2-cs072/BORA/CARBON/from-Arr/AIRSS/Generating-Clusters/GAP-ML-2020/Higher-Symm/SD-CG/HFTN-CG
REM
REM
REM
REM
REM
REM ./C.cell (b20cbc046b6831c77cfcea5457e17084)
REM AIRSS Version 0.9.1 bugfix July 2018 build 013d7b7c2542+ Fri, 06 Jul 2018 19:26:36 +0100
REM compiler GCC version 9.3.0
REM options -cpp -mtune=generic -march=x86-64 -g -O0
REM seed -1620296566 433021106 834050661 -373625921 218561069 -1069716226 -972491310 2028510448 -253869661 -1139876976 -860735982 784775089 -214968304 -233366084 -1689320931 -1724572570 -1005174542 -1449630254 -1810030264 1163763198 327516429 311827151 1678704574 -1850959228 -1822231830 -1192474008 -1153874753 -1110646976 1256087875 -1471352885 -1799092263 1552407708 -1379416931
REM
CELL 1.54180   50.00000   50.00000   50.00000   90.00000   90.00000   90.00000
LATT -1
SFAC C  
C      1  0.5282010000000  0.5461220000000  0.4235170000000 1.0
C      1  0.4714840000000  0.5393740000000  0.4248150000000 1.0
C      1  0.4556170000000  0.4854030000000  0.4233690000000 1.0
C      1  0.4984500000000  0.4521450000000  0.4242430000000 1.0
C      1  0.5370980000000  0.4939930000000  0.4189210000000 1.0
C      1  0.5194490000000  0.4721790000000  0.4253680000000 1.0
C      1  0.4721830000000  0.4619580000000  0.4301010000000 1.0
C      1  0.4639960000000  0.5112190000000  0.4293710000000 1.0
C      1  0.4981340000000  0.5480910000000  0.4294540000000 1.0
C      1  0.5432970000000  0.5232910000000  0.4189570000000 1.0
C      1  0.4550940000000  0.5129970000000  0.5118470000000 1.0
C      1  0.4822100000000  0.4724280000000  0.5151150000000 1.0
C      1  0.5286730000000  0.4581500000000  0.5142300000000 1.0
C      1  0.5458690000000  0.5116090000000  0.4996710000000 1.0
C      1  0.4986940000000  0.5467650000000  0.5115380000000 1.0
C      1  0.4606170000000  0.4854960000000  0.5015900000000 1.0
C      1  0.4735790000000  0.5334840000000  0.4994670000000 1.0
C      1  0.5289180000000  0.5364070000000  0.5109680000000 1.0
C      1  0.5475080000000  0.4840170000000  0.5136460000000 1.0
C      1  0.5027270000000  0.4576080000000  0.5000180000000 1.0
C      1  0.5074890000000  0.5713270000000  0.5537110000000 1.0
C      1  0.4308660000000  0.5287560000000  0.5509780000000 1.0
C      1  0.4530560000000  0.4483830000000  0.5506830000000 1.0
C      1  0.5352200000000  0.4340820000000  0.5565490000000 1.0
C      1  0.5708670000000  0.5135400000000  0.5573760000000 1.0
C      1  0.5065570000000  0.4288550000000  0.5590680000000 1.0
C      1  0.4362410000000  0.4697900000000  0.5583160000000 1.0
C      1  0.4482930000000  0.5517920000000  0.5562830000000 1.0
C      1  0.5352170000000  0.5620010000000  0.5526590000000 1.0
C      1  0.5733350000000  0.4843900000000  0.5550010000000 1.0
C      1  0.5776460000000  0.5363080000000  0.5419730000000 1.0
C      1  0.4855410000000  0.5868410000000  0.5456780000000 1.0
C      1  0.4106990000000  0.5110830000000  0.5442310000000 1.0
C      1  0.4577370000000  0.4231130000000  0.5417710000000 1.0
C      1  0.5622010000000  0.4324550000000  0.5519060000000 1.0
C      1  0.5815050000000  0.4585790000000  0.5503460000000 1.0
C      1  0.4867740000000  0.4157700000000  0.5423150000000 1.0
C      1  0.4146230000000  0.4810950000000  0.5448690000000 1.0
C      1  0.4564460000000  0.5754180000000  0.5437990000000 1.0
C      1  0.5614400000000  0.5623720000000  0.5428350000000 1.0
C      1  0.4551570000000  0.5600300000000  0.4944110000000 1.0
C      1  0.4311340000000  0.4660580000000  0.4958590000000 1.0
C      1  0.4958510000000  0.4273560000000  0.4929850000000 1.0
C      1  0.5734290000000  0.4701940000000  0.5025730000000 1.0
C      1  0.5444650000000  0.5595110000000  0.4961140000000 1.0
C      1  0.4440840000000  0.4389350000000  0.4917790000000 1.0
C      1  0.4246690000000  0.5183860000000  0.4991630000000 1.0
C      1  0.4983180000000  0.5775350000000  0.4988860000000 1.0
C      1  0.5738120000000  0.5232550000000  0.4907150000000 1.0
C      1  0.5460500000000  0.4317570000000  0.5050190000000 1.0
C      1  0.4759140000000  0.4655950000000  0.4617310000000 1.0
C      1  0.5259700000000  0.4652090000000  0.4531120000000 1.0
C      1  0.5327630000000  0.5058170000000  0.4745400000000 1.0
C      1  0.5029070000000  0.5397540000000  0.4587550000000 1.0
C      1  0.4638990000000  0.5108360000000  0.4586360000000 1.0
C      1  0.4858200000000  0.5218610000000  0.4739490000000 1.0
C      1  0.5294020000000  0.5306270000000  0.4603540000000 1.0
C      1  0.5499600000000  0.4816990000000  0.4614720000000 1.0
C      1  0.5023150000000  0.4715680000000  0.4726840000000 1.0
C      1  0.4589220000000  0.4860160000000  0.4718490000000 1.0
C      1  0.5648320000000  0.4614840000000  0.4771420000000 1.0
C      1  0.5496930000000  0.5535920000000  0.4672580000000 1.0
C      1  0.4625370000000  0.5692970000000  0.4679540000000 1.0
C      1  0.4290800000000  0.4821240000000  0.4679630000000 1.0
C      1  0.4859040000000  0.4253110000000  0.4660780000000 1.0
C      1  0.5719830000000  0.5347110000000  0.4632850000000 1.0
C      1  0.5499430000000  0.4355730000000  0.4770260000000 1.0
C      1  0.4592180000000  0.4379130000000  0.4661180000000 1.0
C      1  0.4226630000000  0.5128380000000  0.4721160000000 1.0
C      1  0.4896260000000  0.5801390000000  0.4714800000000 1.0
C      1  0.5665860000000  0.5648810000000  0.5137260000000 1.0
C      1  0.4565410000000  0.5801660000000  0.5151560000000 1.0
C      1  0.4117150000000  0.4769340000000  0.5156710000000 1.0
C      1  0.4829790000000  0.4128400000000  0.5131370000000 1.0
C      1  0.5842970000000  0.4521000000000  0.5216330000000 1.0
C      1  0.5678250000000  0.4285090000000  0.5230280000000 1.0
C      1  0.4548220000000  0.4212570000000  0.5123140000000 1.0
C      1  0.4061070000000  0.5060040000000  0.5156350000000 1.0
C      1  0.4826870000000  0.5927370000000  0.5171150000000 1.0
C      1  0.5822300000000  0.5402870000000  0.5127710000000 1.0
C      1  0.4560530000000  0.5134720000000  0.5427950000000 1.0
C      1  0.4771190000000  0.4668220000000  0.5436380000000 1.0
C      1  0.5276960000000  0.4607180000000  0.5445330000000 1.0
C      1  0.5396250000000  0.5111100000000  0.5574830000000 1.0
C      1  0.4978930000000  0.5451550000000  0.5420120000000 1.0
C      1  0.4599120000000  0.4886270000000  0.5586810000000 1.0
C      1  0.4734730000000  0.5347000000000  0.5572360000000 1.0
C      1  0.5270740000000  0.5347140000000  0.5419860000000 1.0
C      1  0.5453310000000  0.4849230000000  0.5435540000000 1.0
C      1  0.5014460000000  0.4599660000000  0.5596590000000 1.0
C      1  0.5349450000000  0.5664720000000  0.4444670000000 1.0
C      1  0.4536570000000  0.5519730000000  0.4470950000000 1.0
C      1  0.4330930000000  0.4719290000000  0.4408660000000 1.0
C      1  0.5046820000000  0.4302360000000  0.4457330000000 1.0
C      1  0.5613440000000  0.4930500000000  0.4367900000000 1.0
C      1  0.5305180000000  0.4362850000000  0.4567040000000 1.0
C      1  0.4477650000000  0.4464520000000  0.4401160000000 1.0
C      1  0.4398630000000  0.5281560000000  0.4562480000000 1.0
C      1  0.5065660000000  0.5702420000000  0.4511860000000 1.0
C      1  0.5679780000000  0.5205280000000  0.4383970000000 1.0
C      1  0.4774200000000  0.4945360000000  0.5812790000000 1.0
C      1  0.5026990000000  0.4815380000000  0.5799270000000 1.0
C      1  0.5226360000000  0.5039880000000  0.5805480000000 1.0
C      1  0.5086380000000  0.5265860000000  0.5894440000000 1.0
C      1  0.4821810000000  0.5225240000000  0.5826440000000 1.0
C      1  0.5048140000000  0.4995270000000  0.4774640000000 1.0
END
