TITL C-47345-2656-8 -0.0744063775734864 125000 -765.220364882888 0 0 107 (Cs) n - 1
REM
REM in /rds/project/t2_vol4/rds-t2-cs072/BORA/CARBON/from-Arr/AIRSS/Generating-Clusters/GAP-ML-2020/Higher-Symm/SD-CG/HFTN-CG
REM
REM
REM
REM
REM
REM ./C.cell (b20cbc046b6831c77cfcea5457e17084)
REM AIRSS Version 0.9.1 bugfix July 2018 build 013d7b7c2542+ Fri, 06 Jul 2018 19:26:36 +0100
REM compiler GCC version 9.3.0
REM options -cpp -mtune=generic -march=x86-64 -g -O0
REM seed -1488950177 -1110762922 -1637338619 -356306236 -838722852 -212253545 -1516497779 1474789003 1676565973 1705564937 -747068484 1205662760 -591698774 -1581670083 1581339330 -1795675681 -63308012 1002454238 1506351889 770137858 916890859 1237839405 1075850498 -1083494630 -870428171 -186518401 -1419769049 1414317755 -1395390806 405253432 -1986754959 1730231772 -1150091168
REM
CELL 1.54180   50.00000   50.00000   50.00000   90.00000   90.00000   90.00000
LATT -1
SFAC C  
C      1  0.5130460000000  0.4693750000000  0.5822960000000 1.0
C      1  0.4868330000000  0.4708000000000  0.4185540000000 1.0
C      1  0.5155570000000  0.4708840000000  0.4189920000000 1.0
C      1  0.4843700000000  0.4692920000000  0.5818590000000 1.0
C      1  0.4035860000000  0.5322450000000  0.4848200000000 1.0
C      1  0.5930960000000  0.5333840000000  0.5145530000000 1.0
C      1  0.4060530000000  0.5328380000000  0.5117000000000 1.0
C      1  0.5963840000000  0.5328070000000  0.4877610000000 1.0
C      1  0.4232090000000  0.5317640000000  0.5479200000000 1.0
C      1  0.5787220000000  0.5324120000000  0.4511830000000 1.0
C      1  0.4223570000000  0.5319560000000  0.4487980000000 1.0
C      1  0.5748490000000  0.5322060000000  0.5502330000000 1.0
C      1  0.4688530000000  0.5178830000000  0.4888380000000 1.0
C      1  0.5296040000000  0.5120860000000  0.5188570000000 1.0
C      1  0.4695060000000  0.5119110000000  0.5179400000000 1.0
C      1  0.5311100000000  0.5180650000000  0.4897870000000 1.0
C      1  0.5535760000000  0.4536170000000  0.5556410000000 1.0
C      1  0.4466750000000  0.4537250000000  0.4437160000000 1.0
C      1  0.5550270000000  0.4540410000000  0.4453690000000 1.0
C      1  0.4447650000000  0.4533000000000  0.5539810000000 1.0
C      1  0.5144470000000  0.4231520000000  0.5296320000000 1.0
C      1  0.4853020000000  0.4211590000000  0.4686570000000 1.0
C      1  0.5158480000000  0.4212480000000  0.4691230000000 1.0
C      1  0.4848460000000  0.4230660000000  0.5291810000000 1.0
C      1  0.5152860000000  0.4298140000000  0.4417510000000 1.0
C      1  0.4848090000000  0.4294800000000  0.5568980000000 1.0
C      1  0.5136020000000  0.4295640000000  0.5573370000000 1.0
C      1  0.4866490000000  0.4297300000000  0.4413140000000 1.0
C      1  0.4738970000000  0.4954270000000  0.4160770000000 1.0
C      1  0.5260600000000  0.4939700000000  0.5849180000000 1.0
C      1  0.4711390000000  0.4938100000000  0.5840800000000 1.0
C      1  0.5284180000000  0.4955850000000  0.4169080000000 1.0
C      1  0.4711090000000  0.4494560000000  0.4299650000000 1.0
C      1  0.5288960000000  0.4490620000000  0.5693260000000 1.0
C      1  0.4690420000000  0.4488880000000  0.5684130000000 1.0
C      1  0.5310490000000  0.4496310000000  0.4308790000000 1.0
C      1  0.4869050000000  0.5018000000000  0.4736060000000 1.0
C      1  0.5128840000000  0.4903030000000  0.5262410000000 1.0
C      1  0.4861200000000  0.4902250000000  0.5258330000000 1.0
C      1  0.5136250000000  0.5018780000000  0.4740140000000 1.0
C      1  0.4215060000000  0.4601590000000  0.5129740000000 1.0
C      1  0.5777200000000  0.4602720000000  0.4865940000000 1.0
C      1  0.4226990000000  0.4598200000000  0.4842300000000 1.0
C      1  0.5780340000000  0.4606150000000  0.5153610000000 1.0
C      1  0.4411840000000  0.4426680000000  0.4702790000000 1.0
C      1  0.5594220000000  0.4434550000000  0.5291790000000 1.0
C      1  0.4397880000000  0.4431060000000  0.5273540000000 1.0
C      1  0.5597700000000  0.4430140000000  0.4720880000000 1.0
C      1  0.5731160000000  0.5508290000000  0.5275840000000 1.0
C      1  0.4204340000000  0.5511480000000  0.4708770000000 1.0
C      1  0.5798590000000  0.5516130000000  0.4733090000000 1.0
C      1  0.4255240000000  0.5503990000000  0.5253330000000 1.0
C      1  0.5580410000000  0.5261000000000  0.4341740000000 1.0
C      1  0.4420530000000  0.5244690000000  0.5665090000000 1.0
C      1  0.5554900000000  0.5247990000000  0.5682390000000 1.0
C      1  0.4435840000000  0.5257660000000  0.4324280000000 1.0
C      1  0.4447540000000  0.4968240000000  0.5731520000000 1.0
C      1  0.5548000000000  0.4984940000000  0.4275440000000 1.0
C      1  0.4471870000000  0.4981810000000  0.4259030000000 1.0
C      1  0.5527490000000  0.4971380000000  0.5747990000000 1.0
C      1  0.5780960000000  0.4865500000000  0.4698840000000 1.0
C      1  0.4207890000000  0.4857100000000  0.5304210000000 1.0
C      1  0.5780700000000  0.4861690000000  0.5328200000000 1.0
C      1  0.4226810000000  0.4860970000000  0.4675140000000 1.0
C      1  0.5305830000000  0.5383480000000  0.5711670000000 1.0
C      1  0.4682580000000  0.5400040000000  0.4288620000000 1.0
C      1  0.5334050000000  0.5401940000000  0.4298560000000 1.0
C      1  0.4667790000000  0.5381620000000  0.5701930000000 1.0
C      1  0.4722520000000  0.4699680000000  0.5090540000000 1.0
C      1  0.5278880000000  0.4778750000000  0.4809190000000 1.0
C      1  0.4725780000000  0.4777140000000  0.4800750000000 1.0
C      1  0.5273760000000  0.4701290000000  0.5098950000000 1.0
C      1  0.4465620000000  0.4962260000000  0.4849760000000 1.0
C      1  0.5531220000000  0.4922020000000  0.5152350000000 1.0
C      1  0.4462260000000  0.4918910000000  0.5136040000000 1.0
C      1  0.5536340000000  0.4965380000000  0.4866090000000 1.0
C      1  0.5126280000000  0.5193330000000  0.5831260000000 1.0
C      1  0.4870260000000  0.5212320000000  0.4177880000000 1.0
C      1  0.5150930000000  0.5213140000000  0.4182160000000 1.0
C      1  0.4844720000000  0.5192510000000  0.5826960000000 1.0
C      1  0.5670250000000  0.4788740000000  0.4433060000000 1.0
C      1  0.4320720000000  0.4777430000000  0.5569450000000 1.0
C      1  0.5660300000000  0.4781330000000  0.5589880000000 1.0
C      1  0.4346010000000  0.4784870000000  0.4412860000000 1.0
C      1  0.5261650000000  0.5648710000000  0.4441010000000 1.0
C      1  0.4754330000000  0.5614400000000  0.5557460000000 1.0
C      1  0.5222390000000  0.5615760000000  0.5564600000000 1.0
C      1  0.4749160000000  0.5647220000000  0.4433190000000 1.0
C      1  0.5579730000000  0.5670390000000  0.4852380000000 1.0
C      1  0.4467820000000  0.5648290000000  0.5127740000000 1.0
C      1  0.5521660000000  0.5651360000000  0.5143810000000 1.0
C      1  0.4418560000000  0.5667010000000  0.4834670000000 1.0
C      1  0.5349050000000  0.4363780000000  0.5132320000000 1.0
C      1  0.4621840000000  0.4276920000000  0.4838980000000 1.0
C      1  0.5384520000000  0.4279140000000  0.4850610000000 1.0
C      1  0.4648210000000  0.4361740000000  0.5121630000000 1.0
C      1  0.4080760000000  0.5115070000000  0.4645260000000 1.0
C      1  0.5903740000000  0.5128790000000  0.5348910000000 1.0
C      1  0.4082720000000  0.5123480000000  0.5321130000000 1.0
C      1  0.5926360000000  0.5120450000000  0.4673410000000 1.0
C      1  0.5252310000000  0.5677920000000  0.5268150000000 1.0
C      1  0.4595940000000  0.5738420000000  0.4643720000000 1.0
C      1  0.5407840000000  0.5740780000000  0.4656110000000 1.0
C      1  0.4733100000000  0.5676400000000  0.5260230000000 1.0
C      1  0.5005770000000  0.5744200000000  0.4394560000000 1.0
C      1  0.4986330000000  0.5720260000000  0.5673870000000 1.0
C      1  0.4994240000000  0.5717290000000  0.5155650000000 1.0
END
