TITL C-47337-3795-7 0.020277879189757 125000 -149.090774459077 0 0 23 (C1) n - 1
REM
REM in /rds/project/t2_vol4/rds-t2-cs072/BORA/CARBON/from-Arr/AIRSS/Generating-Clusters/GAP-ML-2020/Higher-Symm/SD-CG/HFTN-CG
REM
REM
REM
REM
REM
REM ./C.cell (b20cbc046b6831c77cfcea5457e17084)
REM AIRSS Version 0.9.1 bugfix July 2018 build 013d7b7c2542+ Fri, 06 Jul 2018 19:26:36 +0100
REM compiler GCC version 9.3.0
REM options -cpp -mtune=generic -march=x86-64 -g -O0
REM seed -1127233971 -870428106 -1773152332 1770090909 -1309167622 1546051896 1565011850 -892445887 603475129 1473690057 -222610985 1318674684 841255761 836094012 332566729 -889186080 1368158237 923204181 532544465 -516691492 -1460910843 -1719628876 131392425 952061638 -624019356 354516844 447167004 1885535340 -1816781351 -2071816022 -1912708596 1247272270 621066897
REM
CELL 1.54180   50.00000   50.00000   50.00000   90.00000   90.00000   90.00000
LATT -1
SFAC C  
C      1  0.4569380000000  0.5085750000000  0.5405440000000 1.0
C      1  0.4296620000000  0.4834790000000  0.4623560000000 1.0
C      1  0.5433950000000  0.5115710000000  0.5416880000000 1.0
C      1  0.5581780000000  0.4846770000000  0.4634440000000 1.0
C      1  0.4519500000000  0.4816840000000  0.5410600000000 1.0
C      1  0.4270610000000  0.5096440000000  0.4661720000000 1.0
C      1  0.5358580000000  0.4861400000000  0.5417410000000 1.0
C      1  0.5698380000000  0.5082720000000  0.4642280000000 1.0
C      1  0.5664210000000  0.5282500000000  0.4800860000000 1.0
C      1  0.5281960000000  0.4730410000000  0.5211060000000 1.0
C      1  0.4393480000000  0.5270450000000  0.4807590000000 1.0
C      1  0.4576890000000  0.4707960000000  0.5185080000000 1.0
C      1  0.5414760000000  0.4682380000000  0.4737960000000 1.0
C      1  0.5490040000000  0.5322670000000  0.5277220000000 1.0
C      1  0.4452640000000  0.4651040000000  0.4719660000000 1.0
C      1  0.4642830000000  0.5270210000000  0.5240070000000 1.0
C      1  0.5250680000000  0.4761860000000  0.4943360000000 1.0
C      1  0.5458860000000  0.5307340000000  0.4992530000000 1.0
C      1  0.4643310000000  0.4727100000000  0.4921940000000 1.0
C      1  0.4615950000000  0.5217280000000  0.4964170000000 1.0
C      1  0.4797800000000  0.4980990000000  0.4885490000000 1.0
C      1  0.5210950000000  0.5234050000000  0.4909380000000 1.0
C      1  0.5072740000000  0.5007510000000  0.4901670000000 1.0
END
