TITL C-47346-2475-2 478.441720811051 125000 -479.524884334435 0 0 71 (C1) n - 1
REM
REM in /rds/project/t2_vol4/rds-t2-cs072/BORA/CARBON/from-Arr/AIRSS/Generating-Clusters/GAP-ML-2020/Higher-Symm/SD-CG/HFTN-CG
REM
REM
REM
REM
REM
REM ./C.cell (b20cbc046b6831c77cfcea5457e17084)
REM AIRSS Version 0.9.1 bugfix July 2018 build 013d7b7c2542+ Fri, 06 Jul 2018 19:26:36 +0100
REM compiler GCC version 9.3.0
REM options -cpp -mtune=generic -march=x86-64 -g -O0
REM seed -1759622330 -601835464 -728175546 -58426259 1051591152 332952088 -2104858106 1438380918 1317592656 -2036002330 1730893620 1335886328 -239692226 -438300257 -1184036757 484758288 100150231 941060068 -2003307921 -1782050026 889843910 -860780018 1801494717 -668140325 1950981449 2092462423 -839982184 1555369039 1976902268 1465487882 -1400333535 -1176089818 -985169999
REM
CELL 1.54180   50.00000   50.00000   50.00000   90.00000   90.00000   90.00000
LATT -1
SFAC C  
C      1  0.5043230000000  0.5620020000000  0.5456200000000 1.0
C      1  0.4845250000000  0.5194300000000  0.5471790000000 1.0
C      1  0.4862840000000  0.4601680000000  0.4340320000000 1.0
C      1  0.4695700000000  0.4373610000000  0.4629170000000 1.0
C      1  0.5149830000000  0.4337770000000  0.4701930000000 1.0
C      1  0.4398220000000  0.4608160000000  0.5253700000000 1.0
C      1  0.5455900000000  0.5140680000000  0.4395380000000 1.0
C      1  0.5343820000000  0.4599150000000  0.5653900000000 1.0
C      1  0.5231470000000  0.5454610000000  0.4612510000000 1.0
C      1  0.5492320000000  0.4876510000000  0.4311310000000 1.0
C      1  0.4292810000000  0.4843760000000  0.4791860000000 1.0
C      1  0.4555460000000  0.4846760000000  0.4633960000000 1.0
C      1  0.4702400000000  0.4812570000000  0.4901540000000 1.0
C      1  0.5279340000000  0.4722750000000  0.4231190000000 1.0
C      1  0.4731120000000  0.5306340000000  0.4991790000000 1.0
C      1  0.5117770000000  0.5285180000000  0.5827500000000 1.0
C      1  0.5515860000000  0.5498930000000  0.4694850000000 1.0
C      1  0.4590650000000  0.4558810000000  0.5029190000000 1.0
C      1  0.5367190000000  0.5317720000000  0.5425380000000 1.0
C      1  0.5546170000000  0.5072610000000  0.5438980000000 1.0
C      1  0.4918320000000  0.4766700000000  0.5388340000000 1.0
C      1  0.5475200000000  0.5570650000000  0.4969220000000 1.0
C      1  0.4893600000000  0.4795810000000  0.5714060000000 1.0
C      1  0.5446650000000  0.4622210000000  0.4957060000000 1.0
C      1  0.5126760000000  0.4337540000000  0.5208170000000 1.0
C      1  0.4623090000000  0.5513910000000  0.5208180000000 1.0
C      1  0.5180470000000  0.4760930000000  0.5038580000000 1.0
C      1  0.5061140000000  0.4995410000000  0.4663430000000 1.0
C      1  0.4874260000000  0.5802080000000  0.4581320000000 1.0
C      1  0.4738570000000  0.5579660000000  0.4571970000000 1.0
C      1  0.4380390000000  0.5636340000000  0.5190950000000 1.0
C      1  0.4308930000000  0.4625150000000  0.4992310000000 1.0
C      1  0.5486500000000  0.5080320000000  0.4789290000000 1.0
C      1  0.5007790000000  0.4814000000000  0.4243280000000 1.0
C      1  0.4967640000000  0.5072410000000  0.4386610000000 1.0
C      1  0.5619430000000  0.5253080000000  0.4604920000000 1.0
C      1  0.4950490000000  0.4366340000000  0.4494570000000 1.0
C      1  0.5494750000000  0.4559060000000  0.5428370000000 1.0
C      1  0.5163650000000  0.4885800000000  0.5299240000000 1.0
C      1  0.4612030000000  0.4607040000000  0.4484480000000 1.0
C      1  0.4982850000000  0.4787620000000  0.4834490000000 1.0
C      1  0.5401180000000  0.4831600000000  0.5472040000000 1.0
C      1  0.5190540000000  0.5210650000000  0.4807960000000 1.0
C      1  0.5203950000000  0.5280270000000  0.4370260000000 1.0
C      1  0.5400050000000  0.4445790000000  0.5190040000000 1.0
C      1  0.5028550000000  0.5280300000000  0.5034770000000 1.0
C      1  0.4305330000000  0.5075470000000  0.4954260000000 1.0
C      1  0.4669340000000  0.5339780000000  0.4686320000000 1.0
C      1  0.5072790000000  0.4546750000000  0.5685400000000 1.0
C      1  0.4789050000000  0.5478540000000  0.5431720000000 1.0
C      1  0.4730920000000  0.4341890000000  0.4902340000000 1.0
C      1  0.4603070000000  0.5048440000000  0.5066340000000 1.0
C      1  0.4142620000000  0.5287750000000  0.4989920000000 1.0
C      1  0.5619490000000  0.5106370000000  0.5162210000000 1.0
C      1  0.5229570000000  0.5464720000000  0.5641300000000 1.0
C      1  0.5099320000000  0.5702230000000  0.4714810000000 1.0
C      1  0.5528090000000  0.5391100000000  0.5177120000000 1.0
C      1  0.4476550000000  0.4784280000000  0.5471370000000 1.0
C      1  0.5107020000000  0.5174330000000  0.5296970000000 1.0
C      1  0.5580800000000  0.4894670000000  0.4972290000000 1.0
C      1  0.5230090000000  0.5730980000000  0.4987490000000 1.0
C      1  0.4975980000000  0.4473020000000  0.5414780000000 1.0
C      1  0.5133790000000  0.5755240000000  0.5240340000000 1.0
C      1  0.4607110000000  0.4750180000000  0.5707130000000 1.0
C      1  0.5389780000000  0.4497070000000  0.4692710000000 1.0
C      1  0.4707820000000  0.5104070000000  0.4535710000000 1.0
C      1  0.4682720000000  0.4974670000000  0.5341440000000 1.0
C      1  0.4965040000000  0.5085640000000  0.5717890000000 1.0
C      1  0.5007860000000  0.4294130000000  0.4956350000000 1.0
C      1  0.5430970000000  0.4618780000000  0.4443430000000 1.0
C      1  0.4160710000000  0.5527300000000  0.5093970000000 1.0
END
