TITL C-47319-2942-6 0.0677982511655224 125000 -142.466344506234 0 0 22 (C1) n - 1
REM
REM in /rds/project/t2_vol4/rds-t2-cs072/BORA/CARBON/from-Arr/AIRSS/Generating-Clusters/GAP-ML-2020/Higher-Symm/SD-CG/HFTN-CG
REM
REM
REM
REM
REM
REM ./C.cell (b20cbc046b6831c77cfcea5457e17084)
REM AIRSS Version 0.9.1 bugfix July 2018 build 013d7b7c2542+ Fri, 06 Jul 2018 19:26:36 +0100
REM compiler GCC version 9.3.0
REM options -cpp -mtune=generic -march=x86-64 -g -O0
REM seed -103166952 -143676259 -1696178105 -2085269732 -1491870333 1381036460 1590002285 -1895163565 1515548021 -1950875971 840469736 1656053026 1647472307 -535682997 1057705603 2012780477 -1582573872 1131844731 -1505746795 -1679668548 29933734 -1527824893 2020764965 1442041834 -878626114 1132224794 -929368746 890861084 -1361328664 1390707762 2006015099 2111289269 1066852499
REM
CELL 1.54180   50.00000   50.00000   50.00000   90.00000   90.00000   90.00000
LATT -1
SFAC C  
C      1  0.4883240000000  0.4923400000000  0.5208280000000 1.0
C      1  0.4875500000000  0.5197540000000  0.5093480000000 1.0
C      1  0.5164750000000  0.4938190000000  0.5224040000000 1.0
C      1  0.5155900000000  0.5210740000000  0.5102770000000 1.0
C      1  0.4856920000000  0.4278000000000  0.4957260000000 1.0
C      1  0.4836290000000  0.5726900000000  0.4901500000000 1.0
C      1  0.5130810000000  0.4291030000000  0.5030040000000 1.0
C      1  0.5100000000000  0.5694210000000  0.4830690000000 1.0
C      1  0.5265120000000  0.5487680000000  0.4741550000000 1.0
C      1  0.5275780000000  0.4480150000000  0.5184840000000 1.0
C      1  0.4750900000000  0.5498760000000  0.4754400000000 1.0
C      1  0.4781080000000  0.4454720000000  0.5164440000000 1.0
C      1  0.5564620000000  0.4866510000000  0.5000980000000 1.0
C      1  0.5560960000000  0.5094200000000  0.4896120000000 1.0
C      1  0.4497070000000  0.4844000000000  0.4979310000000 1.0
C      1  0.4479760000000  0.5074800000000  0.4884190000000 1.0
C      1  0.4672710000000  0.5279440000000  0.4916890000000 1.0
C      1  0.4695590000000  0.4724940000000  0.5143380000000 1.0
C      1  0.5355260000000  0.5287360000000  0.4919030000000 1.0
C      1  0.5360410000000  0.4748520000000  0.5155970000000 1.0
C      1  0.5037030000000  0.4396200000000  0.5301920000000 1.0
C      1  0.5010810000000  0.5502750000000  0.4608950000000 1.0
END
