TITL C-48753-5552-6 -0.111266857946717 125000 -869.328785897907 0 0 124 (S4) n - 1
REM
REM in /rds/project/t2_vol4/rds-t2-cs072/BORA/CARBON/from-Arr/AIRSS/Generating-Clusters/GAP-ML-2020/Higher-Symm/SD-CG/HFTN-CG
REM
REM
REM
REM
REM
REM ./C.cell (b20cbc046b6831c77cfcea5457e17084)
REM AIRSS Version 0.9.1 bugfix July 2018 build 013d7b7c2542+ Fri, 06 Jul 2018 19:26:36 +0100
REM compiler GCC version 9.3.0
REM options -cpp -mtune=generic -march=x86-64 -g -O0
REM seed 155492889 1403744022 -1880030558 1106292139 2039196314 770321212 -190942192 -1570425312 -748020203 -425418977 -1063862535 1949299986 2144702183 652493356 191310105 -336035704 1020857279 649183703 -1208097245 343367077 -28556368 -1873819232 -1719697078 820658165 1587364354 -557942545 825379322 1578652709 -1625325619 -20444615 137475521 1610355751 2132288361
REM
CELL 1.54180   50.00000   50.00000   50.00000   90.00000   90.00000   90.00000
LATT -1
SFAC C  
C      1  0.5272920000000  0.4917440000000  0.4715930000000 1.0
C      1  0.4727080000000  0.5082560000000  0.4715920000000 1.0
C      1  0.5265460000000  0.5058350000000  0.5191800000000 1.0
C      1  0.4734540000000  0.4941660000000  0.5191800000000 1.0
C      1  0.4941660000000  0.5265450000000  0.4808200000000 1.0
C      1  0.5058340000000  0.4734540000000  0.4808200000000 1.0
C      1  0.5082560000000  0.5272920000000  0.5284070000000 1.0
C      1  0.4917440000000  0.4727080000000  0.5284080000000 1.0
C      1  0.4823670000000  0.5621660000000  0.4246870000000 1.0
C      1  0.5176320000000  0.4378330000000  0.4246880000000 1.0
C      1  0.4760320000000  0.4416430000000  0.5808370000000 1.0
C      1  0.5239680000000  0.5583590000000  0.5808360000000 1.0
C      1  0.5583580000000  0.4760310000000  0.4191640000000 1.0
C      1  0.4416420000000  0.5239670000000  0.4191630000000 1.0
C      1  0.4378340000000  0.4823680000000  0.5753130000000 1.0
C      1  0.5621670000000  0.5176330000000  0.5753120000000 1.0
C      1  0.4452850000000  0.4238510000000  0.5154500000000 1.0
C      1  0.5547150000000  0.5761500000000  0.5154490000000 1.0
C      1  0.4410960000000  0.5787030000000  0.4870450000000 1.0
C      1  0.5589040000000  0.4212970000000  0.4870460000000 1.0
C      1  0.4212970000000  0.4410960000000  0.5129550000000 1.0
C      1  0.5787030000000  0.5589040000000  0.5129540000000 1.0
C      1  0.5761490000000  0.4452850000000  0.4845510000000 1.0
C      1  0.4238510000000  0.5547150000000  0.4845500000000 1.0
C      1  0.4656530000000  0.5458660000000  0.5153870000000 1.0
C      1  0.5343470000000  0.4541340000000  0.5153880000000 1.0
C      1  0.4647310000000  0.4406390000000  0.4968660000000 1.0
C      1  0.5352690000000  0.5593610000000  0.4968640000000 1.0
C      1  0.5593610000000  0.4647310000000  0.5031350000000 1.0
C      1  0.4406390000000  0.5352690000000  0.5031350000000 1.0
C      1  0.4541340000000  0.4656520000000  0.4846130000000 1.0
C      1  0.5458660000000  0.5343470000000  0.4846120000000 1.0
C      1  0.5120850000000  0.4614920000000  0.4079800000000 1.0
C      1  0.4879150000000  0.5385070000000  0.4079790000000 1.0
C      1  0.5201960000000  0.5332140000000  0.5942130000000 1.0
C      1  0.4798050000000  0.4667880000000  0.5942130000000 1.0
C      1  0.4667870000000  0.5201950000000  0.4057870000000 1.0
C      1  0.5332130000000  0.4798040000000  0.4057870000000 1.0
C      1  0.5385080000000  0.5120860000000  0.5920200000000 1.0
C      1  0.4614930000000  0.4879160000000  0.5920210000000 1.0
C      1  0.4636360000000  0.5713820000000  0.5318620000000 1.0
C      1  0.5363640000000  0.4286190000000  0.5318630000000 1.0
C      1  0.4678550000000  0.4170310000000  0.4792030000000 1.0
C      1  0.5321450000000  0.5829690000000  0.4792020000000 1.0
C      1  0.5829690000000  0.4678550000000  0.5207980000000 1.0
C      1  0.4170310000000  0.5321450000000  0.5207970000000 1.0
C      1  0.4286180000000  0.4636360000000  0.4681380000000 1.0
C      1  0.5713810000000  0.5363640000000  0.4681370000000 1.0
C      1  0.5848880000000  0.5512010000000  0.4861380000000 1.0
C      1  0.4151120000000  0.4487990000000  0.4861400000000 1.0
C      1  0.5973870000000  0.4501790000000  0.5057660000000 1.0
C      1  0.4026130000000  0.5498220000000  0.5057650000000 1.0
C      1  0.5498210000000  0.5973870000000  0.4942340000000 1.0
C      1  0.4501790000000  0.4026130000000  0.4942360000000 1.0
C      1  0.4487990000000  0.5848880000000  0.5138600000000 1.0
C      1  0.5512010000000  0.4151120000000  0.5138620000000 1.0
C      1  0.5652740000000  0.4945880000000  0.5583940000000 1.0
C      1  0.4347260000000  0.5054130000000  0.5583940000000 1.0
C      1  0.5604870000000  0.5047450000000  0.4266180000000 1.0
C      1  0.4395130000000  0.4952530000000  0.4266180000000 1.0
C      1  0.4952540000000  0.5604880000000  0.5733810000000 1.0
C      1  0.5047460000000  0.4395140000000  0.5733820000000 1.0
C      1  0.5054120000000  0.5652730000000  0.4416060000000 1.0
C      1  0.4945880000000  0.4347260000000  0.4416070000000 1.0
C      1  0.5833920000000  0.4906960000000  0.5373150000000 1.0
C      1  0.4166080000000  0.5093040000000  0.5373150000000 1.0
C      1  0.5738020000000  0.5125140000000  0.4508530000000 1.0
C      1  0.4261980000000  0.4874850000000  0.4508540000000 1.0
C      1  0.4874850000000  0.5738030000000  0.5491460000000 1.0
C      1  0.5125150000000  0.4261980000000  0.5491470000000 1.0
C      1  0.5093040000000  0.5833910000000  0.4626840000000 1.0
C      1  0.4906960000000  0.4166080000000  0.4626860000000 1.0
C      1  0.4875740000000  0.4640350000000  0.4442820000000 1.0
C      1  0.5124260000000  0.5359640000000  0.4442810000000 1.0
C      1  0.5278270000000  0.5169770000000  0.5462480000000 1.0
C      1  0.4721730000000  0.4830240000000  0.5462480000000 1.0
C      1  0.4830240000000  0.5278260000000  0.4537520000000 1.0
C      1  0.5169760000000  0.4721730000000  0.4537520000000 1.0
C      1  0.5359650000000  0.4875740000000  0.5557190000000 1.0
C      1  0.4640360000000  0.5124270000000  0.5557190000000 1.0
C      1  0.5347790000000  0.5093740000000  0.4113310000000 1.0
C      1  0.4652210000000  0.4906250000000  0.4113310000000 1.0
C      1  0.5287780000000  0.4852640000000  0.5837600000000 1.0
C      1  0.4712230000000  0.5147370000000  0.5837600000000 1.0
C      1  0.5147360000000  0.5287770000000  0.4162400000000 1.0
C      1  0.4852630000000  0.4712220000000  0.4162410000000 1.0
C      1  0.4906260000000  0.5347800000000  0.5886690000000 1.0
C      1  0.5093750000000  0.4652220000000  0.5886690000000 1.0
C      1  0.5544500000000  0.4888040000000  0.4869360000000 1.0
C      1  0.4455500000000  0.5111960000000  0.4869360000000 1.0
C      1  0.5518420000000  0.5121460000000  0.5046250000000 1.0
C      1  0.4481580000000  0.4878540000000  0.5046250000000 1.0
C      1  0.4878540000000  0.5518420000000  0.4953750000000 1.0
C      1  0.5121460000000  0.4481580000000  0.4953760000000 1.0
C      1  0.5111960000000  0.5544500000000  0.5130640000000 1.0
C      1  0.4888040000000  0.4455500000000  0.5130650000000 1.0
C      1  0.4599900000000  0.5780120000000  0.4651180000000 1.0
C      1  0.5400100000000  0.4219870000000  0.4651190000000 1.0
C      1  0.4613550000000  0.4231630000000  0.5405420000000 1.0
C      1  0.5386450000000  0.5768380000000  0.5405400000000 1.0
C      1  0.5768380000000  0.4613540000000  0.4594590000000 1.0
C      1  0.4231620000000  0.5386450000000  0.4594590000000 1.0
C      1  0.4219880000000  0.4599900000000  0.5348820000000 1.0
C      1  0.5780120000000  0.5400110000000  0.5348810000000 1.0
C      1  0.5142130000000  0.4246400000000  0.4756590000000 1.0
C      1  0.4857870000000  0.5753590000000  0.4756570000000 1.0
C      1  0.5109690000000  0.5755800000000  0.5331090000000 1.0
C      1  0.4890310000000  0.4244210000000  0.5331110000000 1.0
C      1  0.4244210000000  0.5109690000000  0.4668900000000 1.0
C      1  0.5755790000000  0.4890310000000  0.4668900000000 1.0
C      1  0.5753590000000  0.5142130000000  0.5243420000000 1.0
C      1  0.4246410000000  0.4857870000000  0.5243420000000 1.0
C      1  0.5631490000000  0.4540710000000  0.4360870000000 1.0
C      1  0.4368500000000  0.5459280000000  0.4360860000000 1.0
C      1  0.5660840000000  0.5425180000000  0.5613740000000 1.0
C      1  0.4339170000000  0.4574830000000  0.5613750000000 1.0
C      1  0.4574830000000  0.5660830000000  0.4386250000000 1.0
C      1  0.5425170000000  0.4339160000000  0.4386260000000 1.0
C      1  0.5459280000000  0.5631500000000  0.5639130000000 1.0
C      1  0.4540720000000  0.4368510000000  0.5639140000000 1.0
C      1  0.5222480000000  0.5216540000000  0.4702510000000 1.0
C      1  0.5216540000000  0.4777520000000  0.5297490000000 1.0
C      1  0.4777510000000  0.4783460000000  0.4702510000000 1.0
C      1  0.4783460000000  0.5222490000000  0.5297490000000 1.0
END
