TITL C-48756-8447-2 -0.0405906535939894 125000 -315.266456646378 0 0 48 (C1) n - 1
REM
REM in /rds/project/t2_vol4/rds-t2-cs072/BORA/CARBON/from-Arr/AIRSS/Generating-Clusters/GAP-ML-2020/Higher-Symm/SD-CG/HFTN-CG
REM
REM
REM
REM
REM
REM ./C.cell (b20cbc046b6831c77cfcea5457e17084)
REM AIRSS Version 0.9.1 bugfix July 2018 build 013d7b7c2542+ Fri, 06 Jul 2018 19:26:36 +0100
REM compiler GCC version 9.3.0
REM options -cpp -mtune=generic -march=x86-64 -g -O0
REM seed 349036563 -1113068686 1737052284 -1387773341 -1946387999 1366903782 586728167 -1439154867 -1093485280 -916574386 -134763571 749020887 61753104 1162661152 1186870344 1641269750 912543819 542994551 -856583126 839592614 -123378789 -2978048 649014248 -829217132 -2065184692 591409647 -112831776 274422081 -75205370 -2061756987 1309246001 1981902990 2067198460
REM
CELL 1.54180   50.00000   50.00000   50.00000   90.00000   90.00000   90.00000
LATT -1
SFAC C  
C      1  0.4450930000000  0.5275650000000  0.5190300000000 1.0
C      1  0.4963570000000  0.5612350000000  0.4806900000000 1.0
C      1  0.5524100000000  0.5345620000000  0.5189530000000 1.0
C      1  0.5549160000000  0.4724900000000  0.4809870000000 1.0
C      1  0.5037130000000  0.4383830000000  0.5193010000000 1.0
C      1  0.4487260000000  0.4662940000000  0.4811590000000 1.0
C      1  0.5609710000000  0.5189360000000  0.4806400000000 1.0
C      1  0.5471750000000  0.4560530000000  0.5193410000000 1.0
C      1  0.4863560000000  0.4386190000000  0.4809770000000 1.0
C      1  0.4393330000000  0.4811870000000  0.5193050000000 1.0
C      1  0.4530800000000  0.5433830000000  0.4804910000000 1.0
C      1  0.5140610000000  0.5619850000000  0.5191920000000 1.0
C      1  0.4578500000000  0.5514070000000  0.5099910000000 1.0
C      1  0.5234770000000  0.5623620000000  0.4894730000000 1.0
C      1  0.5662580000000  0.5108460000000  0.5099080000000 1.0
C      1  0.5422730000000  0.4483590000000  0.4901310000000 1.0
C      1  0.4766980000000  0.4381130000000  0.5104920000000 1.0
C      1  0.4344160000000  0.4892140000000  0.4898170000000 1.0
C      1  0.5519460000000  0.4962150000000  0.4661890000000 1.0
C      1  0.5230650000000  0.4514920000000  0.5349080000000 1.0
C      1  0.4708070000000  0.4569210000000  0.4660160000000 1.0
C      1  0.4473860000000  0.5036680000000  0.5344440000000 1.0
C      1  0.4765050000000  0.5477400000000  0.4651700000000 1.0
C      1  0.5292680000000  0.5430380000000  0.5336860000000 1.0
C      1  0.4819650000000  0.4824440000000  0.5033960000000 1.0
C      1  0.4750690000000  0.5071880000000  0.4963070000000 1.0
C      1  0.4938790000000  0.5253130000000  0.5015350000000 1.0
C      1  0.5192190000000  0.5172390000000  0.4964240000000 1.0
C      1  0.5261290000000  0.4937050000000  0.5108960000000 1.0
C      1  0.5076590000000  0.4761950000000  0.4982530000000 1.0
C      1  0.4837620000000  0.4764860000000  0.4491570000000 1.0
C      1  0.4710130000000  0.5012250000000  0.5515440000000 1.0
C      1  0.4866530000000  0.5260840000000  0.4485680000000 1.0
C      1  0.5154460000000  0.5232600000000  0.5494990000000 1.0
C      1  0.5283870000000  0.4985980000000  0.4496320000000 1.0
C      1  0.5120040000000  0.4728660000000  0.5511160000000 1.0
C      1  0.4730170000000  0.5020320000000  0.4478160000000 1.0
C      1  0.4882440000000  0.5229640000000  0.5512740000000 1.0
C      1  0.5138890000000  0.5220940000000  0.4499790000000 1.0
C      1  0.5232160000000  0.4971240000000  0.5416680000000 1.0
C      1  0.5112180000000  0.4772070000000  0.4497780000000 1.0
C      1  0.4849590000000  0.4771130000000  0.5526190000000 1.0
C      1  0.5555390000000  0.4829850000000  0.5101020000000 1.0
C      1  0.5132400000000  0.4451890000000  0.4904120000000 1.0
C      1  0.4590180000000  0.4613260000000  0.5103870000000 1.0
C      1  0.4453950000000  0.5164690000000  0.4896430000000 1.0
C      1  0.4869480000000  0.5553250000000  0.5096790000000 1.0
C      1  0.5419940000000  0.5394990000000  0.4900240000000 1.0
END
