TITL C-48755-8385-5 -0.0127964192657495 125000 -204.539664723674 0 0 31 (C1) n - 1
REM
REM in /rds/project/t2_vol4/rds-t2-cs072/BORA/CARBON/from-Arr/AIRSS/Generating-Clusters/GAP-ML-2020/Higher-Symm/SD-CG/HFTN-CG
REM
REM
REM
REM
REM
REM ./C.cell (b20cbc046b6831c77cfcea5457e17084)
REM AIRSS Version 0.9.1 bugfix July 2018 build 013d7b7c2542+ Fri, 06 Jul 2018 19:26:36 +0100
REM compiler GCC version 9.3.0
REM options -cpp -mtune=generic -march=x86-64 -g -O0
REM seed 1314820708 -2047938952 2010729596 -1656158820 -1125081790 -1326822667 1925749683 2047786158 -784288252 -533819249 -874968474 553433088 -2034655058 1522081234 -763646582 -917020889 -828898060 687210010 -1217916850 -1204998850 1628241682 -1498867873 1231026415 1354380150 1599319101 1489739332 -1522326555 552431112 -1009544944 886121116 -456729196 1401138429 -23627114
REM
CELL 1.54180   50.00000   50.00000   50.00000   90.00000   90.00000   90.00000
LATT -1
SFAC C  
C      1  0.5003540000000  0.5182590000000  0.4939380000000 1.0
C      1  0.4775910000000  0.4716500000000  0.5125790000000 1.0
C      1  0.5112960000000  0.4708940000000  0.5490190000000 1.0
C      1  0.4905500000000  0.5639790000000  0.4516340000000 1.0
C      1  0.4978520000000  0.4577140000000  0.4721730000000 1.0
C      1  0.5197910000000  0.5265400000000  0.5384530000000 1.0
C      1  0.4948010000000  0.4860310000000  0.5298980000000 1.0
C      1  0.4917970000000  0.4488320000000  0.4993170000000 1.0
C      1  0.5169590000000  0.4447720000000  0.5398870000000 1.0
C      1  0.5509860000000  0.4834300000000  0.5152590000000 1.0
C      1  0.4782940000000  0.4552400000000  0.4534620000000 1.0
C      1  0.4809390000000  0.5577850000000  0.4789320000000 1.0
C      1  0.4881410000000  0.5748650000000  0.4998230000000 1.0
C      1  0.4404140000000  0.4648800000000  0.4850450000000 1.0
C      1  0.5030740000000  0.5112030000000  0.5216330000000 1.0
C      1  0.5615660000000  0.4973200000000  0.5344150000000 1.0
C      1  0.5092020000000  0.5456160000000  0.4498790000000 1.0
C      1  0.4558500000000  0.4680550000000  0.4622630000000 1.0
C      1  0.5203840000000  0.4769390000000  0.4769430000000 1.0
C      1  0.5348100000000  0.4672980000000  0.4996350000000 1.0
C      1  0.4481400000000  0.4955770000000  0.4586830000000 1.0
C      1  0.5168340000000  0.5059770000000  0.4723080000000 1.0
C      1  0.5178060000000  0.4466050000000  0.5129560000000 1.0
C      1  0.5259840000000  0.4874610000000  0.5652390000000 1.0
C      1  0.5225100000000  0.5236520000000  0.4517640000000 1.0
C      1  0.5381170000000  0.5061250000000  0.5491150000000 1.0
C      1  0.4554670000000  0.4833480000000  0.5006960000000 1.0
C      1  0.5162010000000  0.5536520000000  0.5368590000000 1.0
C      1  0.4750670000000  0.5303700000000  0.4864890000000 1.0
C      1  0.5023020000000  0.5671080000000  0.5197670000000 1.0
C      1  0.4569230000000  0.5088220000000  0.4819370000000 1.0
END
