TITL C-48739-9338-1 -0.0315592360461367 125000 -231.947239184126 0 0 34 (Ci) n - 1
REM
REM in /rds/project/t2_vol4/rds-t2-cs072/BORA/CARBON/from-Arr/AIRSS/Generating-Clusters/GAP-ML-2020/Higher-Symm/SD-CG/HFTN-CG
REM
REM
REM
REM
REM
REM ./C.cell (b20cbc046b6831c77cfcea5457e17084)
REM AIRSS Version 0.9.1 bugfix July 2018 build 013d7b7c2542+ Fri, 06 Jul 2018 19:26:36 +0100
REM compiler GCC version 9.3.0
REM options -cpp -mtune=generic -march=x86-64 -g -O0
REM seed -119184388 -355385494 -1548510469 986248319 -1242860995 79387353 -1608311055 1238535009 623210206 775750343 1324756704 -288474915 915887377 -1535083816 1556931315 -424284889 -1390509769 -1320428389 398136 631824516 -812582549 1052817811 -797185928 2049708167 836838876 -1726193738 -56618258 1297436292 -1485329082 -1439520469 -2049061211 -2032444297 1183552363
REM
CELL 1.54180   50.00000   50.00000   50.00000   90.00000   90.00000   90.00000
LATT -1
SFAC C  
C      1  0.5354040000000  0.5148680000000  0.5146540000000 1.0
C      1  0.4645960000000  0.4851320000000  0.4853460000000 1.0
C      1  0.4935580000000  0.5546610000000  0.5431550000000 1.0
C      1  0.5064420000000  0.4453390000000  0.4568450000000 1.0
C      1  0.5062450000000  0.5339130000000  0.4513700000000 1.0
C      1  0.4937550000000  0.4660870000000  0.5486300000000 1.0
C      1  0.5097720000000  0.5537630000000  0.4941590000000 1.0
C      1  0.4902280000000  0.4462370000000  0.5058410000000 1.0
C      1  0.4660970000000  0.5535080000000  0.4692520000000 1.0
C      1  0.5339030000000  0.4464920000000  0.5307480000000 1.0
C      1  0.5277700000000  0.4887270000000  0.5518120000000 1.0
C      1  0.4722300000000  0.5112730000000  0.4481880000000 1.0
C      1  0.4522220000000  0.5112280000000  0.4906480000000 1.0
C      1  0.5477780000000  0.4887720000000  0.5093520000000 1.0
C      1  0.4994550000000  0.4400520000000  0.4808090000000 1.0
C      1  0.5005450000000  0.5599480000000  0.5191910000000 1.0
C      1  0.5049990000000  0.4740870000000  0.4568470000000 1.0
C      1  0.4950010000000  0.5259130000000  0.5431530000000 1.0
C      1  0.4720550000000  0.5105600000000  0.5344120000000 1.0
C      1  0.5279450000000  0.4894400000000  0.4655880000000 1.0
C      1  0.4904570000000  0.5233300000000  0.4316000000000 1.0
C      1  0.5095430000000  0.4766700000000  0.5684000000000 1.0
C      1  0.5061320000000  0.4459060000000  0.5303030000000 1.0
C      1  0.4938680000000  0.5540940000000  0.4696970000000 1.0
C      1  0.5269880000000  0.5305500000000  0.4923760000000 1.0
C      1  0.4730120000000  0.4694500000000  0.5076240000000 1.0
C      1  0.4782190000000  0.4864480000000  0.4605660000000 1.0
C      1  0.5217810000000  0.5135520000000  0.5394340000000 1.0
C      1  0.4563780000000  0.5276970000000  0.4669150000000 1.0
C      1  0.5436220000000  0.4723030000000  0.5330850000000 1.0
C      1  0.5246770000000  0.5184200000000  0.4668720000000 1.0
C      1  0.4753230000000  0.4815800000000  0.5331280000000 1.0
C      1  0.4534160000000  0.5210300000000  0.5160360000000 1.0
C      1  0.5465840000000  0.4789700000000  0.4839640000000 1.0
END
