TITL C-48742-8003-2 64.5062679751583 125000 -168.691277271201 0 0 26 (Ci) n - 1
REM
REM in /rds/project/t2_vol4/rds-t2-cs072/BORA/CARBON/from-Arr/AIRSS/Generating-Clusters/GAP-ML-2020/Higher-Symm/SD-CG/HFTN-CG
REM
REM
REM
REM
REM
REM ./C.cell (b20cbc046b6831c77cfcea5457e17084)
REM AIRSS Version 0.9.1 bugfix July 2018 build 013d7b7c2542+ Fri, 06 Jul 2018 19:26:36 +0100
REM compiler GCC version 9.3.0
REM options -cpp -mtune=generic -march=x86-64 -g -O0
REM seed 1933211742 -548507260 -197555184 -2056834447 -853839458 -874405672 -1978685921 -500785717 -1434558755 -1608076188 -213903829 -1629303118 2108180608 1594044414 1468949329 -1776046359 996536940 -982666674 919051583 -2103318962 666519921 1228857582 184126567 1848974533 2000718081 1082758456 -1830887465 -274827477 191846610 -1984080723 -2125205698 2087231647 -1133631816
REM
CELL 1.54180   50.00000   50.00000   50.00000   90.00000   90.00000   90.00000
LATT -1
SFAC C  
C      1  0.4881580000000  0.5511390000000  0.5266830000000 1.0
C      1  0.5118410000000  0.4488610000000  0.4733170000000 1.0
C      1  0.5010440000000  0.5382340000000  0.4849750000000 1.0
C      1  0.4989560000000  0.4617660000000  0.5150250000000 1.0
C      1  0.5432840000000  0.4696730000000  0.4899280000000 1.0
C      1  0.4567160000000  0.5303270000000  0.5100720000000 1.0
C      1  0.4359180000000  0.4870130000000  0.4996560000000 1.0
C      1  0.5640820000000  0.5129870000000  0.5003440000000 1.0
C      1  0.5219540000000  0.4524450000000  0.5010190000000 1.0
C      1  0.4780460000000  0.5475550000000  0.4989810000000 1.0
C      1  0.4765970000000  0.4592670000000  0.4968920000000 1.0
C      1  0.5234030000000  0.5407330000000  0.5031080000000 1.0
C      1  0.5452380000000  0.5293970000000  0.4891160000000 1.0
C      1  0.4547620000000  0.4706030000000  0.5108840000000 1.0
C      1  0.4705810000000  0.5297490000000  0.5357660000000 1.0
C      1  0.5294190000000  0.4702510000000  0.4642340000000 1.0
C      1  0.5098450000000  0.5166580000000  0.4656100000000 1.0
C      1  0.4901550000000  0.4833420000000  0.5343900000000 1.0
C      1  0.5062980000000  0.4884680000000  0.4621830000000 1.0
C      1  0.4937020000000  0.5115320000000  0.5378170000000 1.0
C      1  0.4628930000000  0.4751320000000  0.5375090000000 1.0
C      1  0.5371070000000  0.5248680000000  0.4624920000000 1.0
C      1  0.4879130000000  0.4641420000000  0.4703140000000 1.0
C      1  0.5120870000000  0.5358580000000  0.5296860000000 1.0
C      1  0.4397250000000  0.5120310000000  0.5004960000000 1.0
C      1  0.5602750000000  0.4879690000000  0.4995040000000 1.0
END
