TITL C-48742-8003-9 0.0449575634564628 125000 -586.147819610708 0 0 80 (C3) n - 1
REM
REM in /rds/project/t2_vol4/rds-t2-cs072/BORA/CARBON/from-Arr/AIRSS/Generating-Clusters/GAP-ML-2020/Higher-Symm/SD-CG/HFTN-CG
REM
REM
REM
REM
REM
REM ./C.cell (b20cbc046b6831c77cfcea5457e17084)
REM AIRSS Version 0.9.1 bugfix July 2018 build 013d7b7c2542+ Fri, 06 Jul 2018 19:26:36 +0100
REM compiler GCC version 9.3.0
REM options -cpp -mtune=generic -march=x86-64 -g -O0
REM seed -1433699315 140388097 528179396 450903375 -2088923382 -1878113637 -1776722287 -542785108 -1917916579 1414849687 -431895609 1304176877 1583118380 1982427541 -1950789813 886303793 -1800540565 -1307202916 -583705628 -109350655 -253165768 1688287058 -12422401 916663737 -1491308408 -419694524 -411936852 -2043028732 -604399419 929523504 -547585529 -1120908614 1120136932
REM
CELL 1.54180   50.00000   50.00000   50.00000   90.00000   90.00000   90.00000
LATT -1
SFAC C  
C      1  0.4488510000000  0.5280880000000  0.5382370000000 1.0
C      1  0.4486190000000  0.5201600000000  0.4558190000000 1.0
C      1  0.4486170000000  0.4527490000000  0.5038940000000 1.0
C      1  0.4916300000000  0.4723010000000  0.4235880000000 1.0
C      1  0.4919460000000  0.4487390000000  0.5612150000000 1.0
C      1  0.4920700000000  0.5797090000000  0.5128070000000 1.0
C      1  0.5224860000000  0.4459680000000  0.4480100000000 1.0
C      1  0.5228820000000  0.4830370000000  0.5716370000000 1.0
C      1  0.5228040000000  0.5715670000000  0.4777200000000 1.0
C      1  0.5555430000000  0.4939220000000  0.4453240000000 1.0
C      1  0.5556980000000  0.4567150000000  0.5312660000000 1.0
C      1  0.5558470000000  0.5497460000000  0.5205170000000 1.0
C      1  0.4718500000000  0.4561200000000  0.4353960000000 1.0
C      1  0.4722230000000  0.4670680000000  0.5694350000000 1.0
C      1  0.4722340000000  0.5776750000000  0.4929340000000 1.0
C      1  0.4232750000000  0.5279650000000  0.4946570000000 1.0
C      1  0.4231440000000  0.4824960000000  0.4778580000000 1.0
C      1  0.4232850000000  0.4906820000000  0.5256350000000 1.0
C      1  0.5632380000000  0.4815370000000  0.5428230000000 1.0
C      1  0.5632330000000  0.5473400000000  0.4932000000000 1.0
C      1  0.5630040000000  0.4714640000000  0.4610250000000 1.0
C      1  0.4359480000000  0.4643890000000  0.4606240000000 1.0
C      1  0.4362220000000  0.4848020000000  0.5498610000000 1.0
C      1  0.4361860000000  0.5518780000000  0.4875640000000 1.0
C      1  0.4257830000000  0.5100590000000  0.4724970000000 1.0
C      1  0.4257950000000  0.4722560000000  0.5044300000000 1.0
C      1  0.4259280000000  0.5188130000000  0.5212020000000 1.0
C      1  0.5184030000000  0.5767610000000  0.5054100000000 1.0
C      1  0.5179950000000  0.4673550000000  0.4296920000000 1.0
C      1  0.5183220000000  0.4564830000000  0.5623000000000 1.0
C      1  0.4499330000000  0.4744520000000  0.4383750000000 1.0
C      1  0.4502050000000  0.4604940000000  0.5521930000000 1.0
C      1  0.4502890000000  0.5660430000000  0.5073710000000 1.0
C      1  0.4756370000000  0.5659660000000  0.4662780000000 1.0
C      1  0.4753750000000  0.4388870000000  0.4588460000000 1.0
C      1  0.4757830000000  0.4959900000000  0.5726150000000 1.0
C      1  0.5124670000000  0.5263340000000  0.4985960000000 1.0
C      1  0.5123340000000  0.4866700000000  0.4768030000000 1.0
C      1  0.5124550000000  0.4876280000000  0.5220490000000 1.0
C      1  0.5310280000000  0.4927980000000  0.4308620000000 1.0
C      1  0.5312220000000  0.4447670000000  0.5396080000000 1.0
C      1  0.5314140000000  0.5629590000000  0.5268300000000 1.0
C      1  0.4852710000000  0.4882570000000  0.5232980000000 1.0
C      1  0.4852780000000  0.5271160000000  0.4975790000000 1.0
C      1  0.4851430000000  0.4854140000000  0.4767860000000 1.0
C      1  0.4856760000000  0.4350030000000  0.5365020000000 1.0
C      1  0.4859260000000  0.5651790000000  0.5370940000000 1.0
C      1  0.4855060000000  0.5006040000000  0.4240620000000 1.0
C      1  0.4580330000000  0.5020260000000  0.4340270000000 1.0
C      1  0.4581730000000  0.4429370000000  0.5304420000000 1.0
C      1  0.4583970000000  0.5559790000000  0.5334060000000 1.0
C      1  0.5616990000000  0.4536360000000  0.5038940000000 1.0
C      1  0.5619270000000  0.5275770000000  0.5368350000000 1.0
C      1  0.5616990000000  0.5191350000000  0.4563300000000 1.0
C      1  0.4742430000000  0.5137110000000  0.5193650000000 1.0
C      1  0.4741280000000  0.5109900000000  0.4775640000000 1.0
C      1  0.4741220000000  0.4761500000000  0.5008200000000 1.0
C      1  0.5466730000000  0.4484820000000  0.4613200000000 1.0
C      1  0.5470240000000  0.4932930000000  0.5626700000000 1.0
C      1  0.5469140000000  0.5586590000000  0.4731870000000 1.0
C      1  0.5445380000000  0.5212530000000  0.5585470000000 1.0
C      1  0.5442940000000  0.5411100000000  0.4510490000000 1.0
C      1  0.5441930000000  0.4380860000000  0.4876010000000 1.0
C      1  0.5729450000000  0.5030840000000  0.5267150000000 1.0
C      1  0.5728660000000  0.5226100000000  0.4825390000000 1.0
C      1  0.5727880000000  0.4745910000000  0.4877180000000 1.0
C      1  0.5028250000000  0.4334290000000  0.4662260000000 1.0
C      1  0.5032440000000  0.5050940000000  0.5734990000000 1.0
C      1  0.5030490000000  0.5621630000000  0.4577980000000 1.0
C      1  0.4515930000000  0.5492130000000  0.4634260000000 1.0
C      1  0.4514230000000  0.4448080000000  0.4749140000000 1.0
C      1  0.4517640000000  0.5069590000000  0.5595870000000 1.0
C      1  0.5172380000000  0.5408160000000  0.4412740000000 1.0
C      1  0.5171610000000  0.4297840000000  0.4928950000000 1.0
C      1  0.5175370000000  0.5300040000000  0.5632400000000 1.0
C      1  0.5110350000000  0.4318490000000  0.5218370000000 1.0
C      1  0.5113350000000  0.5540400000000  0.5470160000000 1.0
C      1  0.5109490000000  0.5147500000000  0.4286060000000 1.0
C      1  0.5780960000000  0.5000850000000  0.4989770000000 1.0
C      1  0.5214520000000  0.5001930000000  0.4991260000000 1.0
END
