TITL C-48756-8447-3 -0.033822756513661 125000 -618.641699762738 0 0 90 (C1) n - 1
REM
REM in /rds/project/t2_vol4/rds-t2-cs072/BORA/CARBON/from-Arr/AIRSS/Generating-Clusters/GAP-ML-2020/Higher-Symm/SD-CG/HFTN-CG
REM
REM
REM
REM
REM
REM ./C.cell (b20cbc046b6831c77cfcea5457e17084)
REM AIRSS Version 0.9.1 bugfix July 2018 build 013d7b7c2542+ Fri, 06 Jul 2018 19:26:36 +0100
REM compiler GCC version 9.3.0
REM options -cpp -mtune=generic -march=x86-64 -g -O0
REM seed 1070442080 1348859540 -557159760 1056152476 -1648849520 -1265267460 -304381770 1587847620 73453055 -1669188645 -1074805574 1094715293 -1141364812 1231436174 -948939717 -1693131763 1832633708 1308845983 -2011474047 -1648534923 -137649001 -1417192253 559632578 430014267 416555329 -651301069 1797599712 1386989443 -1711593675 -1096322307 -680407676 -192128514 -1157391262
REM
CELL 1.54180   50.00000   50.00000   50.00000   90.00000   90.00000   90.00000
LATT -1
SFAC C  
C      1  0.4820900000000  0.5238590000000  0.5345770000000 1.0
C      1  0.4678790000000  0.4985780000000  0.5418100000000 1.0
C      1  0.4789190000000  0.4750710000000  0.5279520000000 1.0
C      1  0.4669740000000  0.4606240000000  0.5048560000000 1.0
C      1  0.4809920000000  0.4651260000000  0.4792750000000 1.0
C      1  0.4834020000000  0.4886420000000  0.4620900000000 1.0
C      1  0.4709000000000  0.5134250000000  0.4657030000000 1.0
C      1  0.4814860000000  0.5336300000000  0.4825730000000 1.0
C      1  0.4817100000000  0.5398530000000  0.5109500000000 1.0
C      1  0.4856810000000  0.5514690000000  0.4439150000000 1.0
C      1  0.4844400000000  0.5797060000000  0.4916740000000 1.0
C      1  0.4903610000000  0.5668020000000  0.5453910000000 1.0
C      1  0.4891320000000  0.5222680000000  0.5761330000000 1.0
C      1  0.4908650000000  0.4693050000000  0.5711850000000 1.0
C      1  0.4901570000000  0.4312270000000  0.5342910000000 1.0
C      1  0.4838810000000  0.4218500000000  0.4835520000000 1.0
C      1  0.4893310000000  0.4506010000000  0.4372070000000 1.0
C      1  0.4889280000000  0.5030880000000  0.4223590000000 1.0
C      1  0.5699200000000  0.5103630000000  0.5557060000000 1.0
C      1  0.5695800000000  0.4805380000000  0.5539080000000 1.0
C      1  0.5675250000000  0.4502100000000  0.5142900000000 1.0
C      1  0.5759370000000  0.4660810000000  0.4926260000000 1.0
C      1  0.5662830000000  0.4619870000000  0.4666330000000 1.0
C      1  0.5698120000000  0.5020900000000  0.4359890000000 1.0
C      1  0.5672920000000  0.5400030000000  0.4698130000000 1.0
C      1  0.5756790000000  0.5322030000000  0.4955590000000 1.0
C      1  0.5661600000000  0.5434240000000  0.5192680000000 1.0
C      1  0.5297860000000  0.4950310000000  0.5722800000000 1.0
C      1  0.5330170000000  0.4493410000000  0.5511100000000 1.0
C      1  0.5279090000000  0.4213770000000  0.5082000000000 1.0
C      1  0.5252050000000  0.4363420000000  0.4637940000000 1.0
C      1  0.5284910000000  0.4778420000000  0.4380910000000 1.0
C      1  0.5287480000000  0.5266610000000  0.4393420000000 1.0
C      1  0.5237640000000  0.5632340000000  0.4698160000000 1.0
C      1  0.5257080000000  0.5696010000000  0.5156540000000 1.0
C      1  0.5298200000000  0.5400890000000  0.5542380000000 1.0
C      1  0.4734530000000  0.5252460000000  0.4362740000000 1.0
C      1  0.4722020000000  0.5609230000000  0.4704340000000 1.0
C      1  0.4756600000000  0.5704130000000  0.5189380000000 1.0
C      1  0.4757360000000  0.5432060000000  0.5567860000000 1.0
C      1  0.4793410000000  0.4956440000000  0.5699030000000 1.0
C      1  0.4764810000000  0.4525910000000  0.5505070000000 1.0
C      1  0.4765180000000  0.4315380000000  0.5093680000000 1.0
C      1  0.4734770000000  0.4412470000000  0.4614800000000 1.0
C      1  0.4771510000000  0.4774290000000  0.4323370000000 1.0
C      1  0.5529810000000  0.4304340000000  0.4999090000000 1.0
C      1  0.5521020000000  0.4376480000000  0.4718880000000 1.0
C      1  0.5574710000000  0.4792100000000  0.4445180000000 1.0
C      1  0.5578520000000  0.5248900000000  0.4461340000000 1.0
C      1  0.5510680000000  0.5616420000000  0.4782180000000 1.0
C      1  0.5520230000000  0.5648840000000  0.5067690000000 1.0
C      1  0.5580830000000  0.5330060000000  0.5446760000000 1.0
C      1  0.5579060000000  0.4944740000000  0.5748970000000 1.0
C      1  0.5585080000000  0.4586030000000  0.5407280000000 1.0
C      1  0.4336670000000  0.5552810000000  0.5004250000000 1.0
C      1  0.4216860000000  0.5334490000000  0.5125380000000 1.0
C      1  0.4301330000000  0.5252030000000  0.5377150000000 1.0
C      1  0.4294430000000  0.4731680000000  0.5501060000000 1.0
C      1  0.4282980000000  0.4529470000000  0.5301070000000 1.0
C      1  0.4288950000000  0.4620370000000  0.4772670000000 1.0
C      1  0.4201550000000  0.4852610000000  0.4654300000000 1.0
C      1  0.4328220000000  0.4956190000000  0.4429150000000 1.0
C      1  0.4326870000000  0.5459930000000  0.4503000000000 1.0
C      1  0.5138060000000  0.5391930000000  0.5098670000000 1.0
C      1  0.5144480000000  0.5223470000000  0.5330550000000 1.0
C      1  0.5253170000000  0.4971410000000  0.5376590000000 1.0
C      1  0.5078170000000  0.4809580000000  0.5232350000000 1.0
C      1  0.5231500000000  0.4678860000000  0.5060870000000 1.0
C      1  0.5120580000000  0.4650820000000  0.4820430000000 1.0
C      1  0.5148500000000  0.4883970000000  0.4641350000000 1.0
C      1  0.5262880000000  0.5141620000000  0.4678920000000 1.0
C      1  0.5126060000000  0.5339500000000  0.4822980000000 1.0
C      1  0.4438930000000  0.5230100000000  0.4398310000000 1.0
C      1  0.4427400000000  0.5580480000000  0.4724710000000 1.0
C      1  0.4486410000000  0.5645030000000  0.5235360000000 1.0
C      1  0.4480420000000  0.5466270000000  0.5457760000000 1.0
C      1  0.4391900000000  0.4992260000000  0.5442770000000 1.0
C      1  0.4476330000000  0.4517680000000  0.5509750000000 1.0
C      1  0.4382510000000  0.4583200000000  0.5038730000000 1.0
C      1  0.4470790000000  0.4521860000000  0.4562060000000 1.0
C      1  0.4492080000000  0.4729170000000  0.4365380000000 1.0
C      1  0.5177180000000  0.5663870000000  0.5443690000000 1.0
C      1  0.5173460000000  0.5221900000000  0.5757620000000 1.0
C      1  0.5187350000000  0.4675330000000  0.5704130000000 1.0
C      1  0.5182020000000  0.4297550000000  0.5346450000000 1.0
C      1  0.5114180000000  0.4192710000000  0.4838930000000 1.0
C      1  0.5163660000000  0.4495100000000  0.4388530000000 1.0
C      1  0.5167210000000  0.5032070000000  0.4249670000000 1.0
C      1  0.5135330000000  0.5527970000000  0.4440790000000 1.0
C      1  0.5113830000000  0.5801040000000  0.4908850000000 1.0
END
