TITL C-48759-8082-2 0.184086384987609 125000 -581.304214186425 0 0 84 (C1) n - 1
REM
REM in /rds/project/t2_vol4/rds-t2-cs072/BORA/CARBON/from-Arr/AIRSS/Generating-Clusters/GAP-ML-2020/Higher-Symm/SD-CG/HFTN-CG
REM
REM
REM
REM
REM
REM ./C.cell (b20cbc046b6831c77cfcea5457e17084)
REM AIRSS Version 0.9.1 bugfix July 2018 build 013d7b7c2542+ Fri, 06 Jul 2018 19:26:36 +0100
REM compiler GCC version 9.3.0
REM options -cpp -mtune=generic -march=x86-64 -g -O0
REM seed -2064579740 2023779023 1290878483 181384978 -193779656 893779277 -2127948629 -1758190657 209003801 -1189795696 1603661004 -478280836 -349311667 -209468231 178404488 1296251905 -623608671 522457276 -1601929399 -1459471441 -1207623623 -1948374453 -1609293715 -903350236 1358823411 1905507450 814329178 905959950 -1059629186 -243715090 179643613 -1084850628 704852643
REM
CELL 1.54180   50.00000   50.00000   50.00000   90.00000   90.00000   90.00000
LATT -1
SFAC C  
C      1  0.5031580000000  0.4648990000000  0.4212560000000 1.0
C      1  0.5051950000000  0.5674760000000  0.4394670000000 1.0
C      1  0.4979400000000  0.5789360000000  0.5448330000000 1.0
C      1  0.5088070000000  0.4804170000000  0.5847870000000 1.0
C      1  0.4957780000000  0.4029800000000  0.5106600000000 1.0
C      1  0.5026110000000  0.5365840000000  0.4134540000000 1.0
C      1  0.4944840000000  0.4359730000000  0.4467870000000 1.0
C      1  0.4973430000000  0.4217360000000  0.5471200000000 1.0
C      1  0.5022730000000  0.5206800000000  0.5880630000000 1.0
C      1  0.4921530000000  0.5864250000000  0.5053160000000 1.0
C      1  0.4589940000000  0.5559320000000  0.5173330000000 1.0
C      1  0.4628050000000  0.5013040000000  0.5702010000000 1.0
C      1  0.4619730000000  0.4412960000000  0.5225730000000 1.0
C      1  0.4557440000000  0.4644520000000  0.4479160000000 1.0
C      1  0.4660460000000  0.5365610000000  0.4425140000000 1.0
C      1  0.5336710000000  0.4331980000000  0.5174220000000 1.0
C      1  0.5423060000000  0.5010220000000  0.5596710000000 1.0
C      1  0.5374010000000  0.5672720000000  0.5212390000000 1.0
C      1  0.5402780000000  0.5377560000000  0.4487240000000 1.0
C      1  0.5369780000000  0.4694650000000  0.4533360000000 1.0
C      1  0.5193440000000  0.4487840000000  0.4405180000000 1.0
C      1  0.5246750000000  0.5487920000000  0.4272230000000 1.0
C      1  0.5155770000000  0.5847950000000  0.5216560000000 1.0
C      1  0.5260650000000  0.5048000000000  0.5828380000000 1.0
C      1  0.5192860000000  0.4126020000000  0.5305920000000 1.0
C      1  0.4825480000000  0.5539850000000  0.4281130000000 1.0
C      1  0.4779530000000  0.4559970000000  0.4317350000000 1.0
C      1  0.4765400000000  0.4169230000000  0.5270340000000 1.0
C      1  0.4853360000000  0.4966370000000  0.5864040000000 1.0
C      1  0.4747380000000  0.5772190000000  0.5277960000000 1.0
C      1  0.4333810000000  0.4893660000000  0.5342150000000 1.0
C      1  0.4260790000000  0.4772690000000  0.5080450000000 1.0
C      1  0.4155710000000  0.4521090000000  0.5016880000000 1.0
C      1  0.4382280000000  0.5113020000000  0.4690980000000 1.0
C      1  0.4331170000000  0.5158970000000  0.5228580000000 1.0
C      1  0.5695330000000  0.5205930000000  0.5266610000000 1.0
C      1  0.5694950000000  0.5370670000000  0.5024060000000 1.0
C      1  0.5779140000000  0.5137960000000  0.4874150000000 1.0
C      1  0.5684810000000  0.4999620000000  0.4654540000000 1.0
C      1  0.5638190000000  0.4709080000000  0.5029250000000 1.0
C      1  0.5148090000000  0.4900490000000  0.4170820000000 1.0
C      1  0.5088760000000  0.5675420000000  0.4667260000000 1.0
C      1  0.5091200000000  0.5586190000000  0.5598330000000 1.0
C      1  0.5156970000000  0.4633310000000  0.5641270000000 1.0
C      1  0.4991330000000  0.4171270000000  0.4872450000000 1.0
C      1  0.4948340000000  0.5102500000000  0.4172860000000 1.0
C      1  0.4805440000000  0.4283080000000  0.4691390000000 1.0
C      1  0.4939860000000  0.4477230000000  0.5558290000000 1.0
C      1  0.4907220000000  0.5408760000000  0.5727110000000 1.0
C      1  0.4866470000000  0.5710130000000  0.4831690000000 1.0
C      1  0.5132090000000  0.5262710000000  0.4976010000000 1.0
C      1  0.5082320000000  0.5347680000000  0.5252240000000 1.0
C      1  0.5153380000000  0.4816340000000  0.5176630000000 1.0
C      1  0.5066100000000  0.4642560000000  0.4939320000000 1.0
C      1  0.5170810000000  0.4850190000000  0.4736340000000 1.0
C      1  0.4800870000000  0.4740700000000  0.4848910000000 1.0
C      1  0.4892660000000  0.4905630000000  0.5277190000000 1.0
C      1  0.4935690000000  0.5156590000000  0.5410090000000 1.0
C      1  0.4860640000000  0.5189390000000  0.4879460000000 1.0
C      1  0.4908450000000  0.4979280000000  0.4661140000000 1.0
C      1  0.5531260000000  0.5126670000000  0.4445550000000 1.0
C      1  0.5498410000000  0.5565570000000  0.4977850000000 1.0
C      1  0.5515270000000  0.5250760000000  0.5475450000000 1.0
C      1  0.5492430000000  0.4567160000000  0.5240930000000 1.0
C      1  0.5601920000000  0.4732330000000  0.4729240000000 1.0
C      1  0.4498040000000  0.4931760000000  0.4481090000000 1.0
C      1  0.4433760000000  0.4466860000000  0.4994070000000 1.0
C      1  0.4516020000000  0.4809680000000  0.5537320000000 1.0
C      1  0.4489650000000  0.5361830000000  0.5349890000000 1.0
C      1  0.4506150000000  0.5376960000000  0.4662760000000 1.0
C      1  0.5348620000000  0.4747520000000  0.5441830000000 1.0
C      1  0.5174580000000  0.4375890000000  0.4944860000000 1.0
C      1  0.5390210000000  0.4911960000000  0.4322910000000 1.0
C      1  0.5298640000000  0.5483260000000  0.4761350000000 1.0
C      1  0.5319940000000  0.5473780000000  0.5430710000000 1.0
C      1  0.4679140000000  0.5274480000000  0.5568010000000 1.0
C      1  0.4671870000000  0.5488670000000  0.4884110000000 1.0
C      1  0.4739750000000  0.5087900000000  0.4386310000000 1.0
C      1  0.4610580000000  0.4505040000000  0.4747990000000 1.0
C      1  0.4724620000000  0.4624650000000  0.5413650000000 1.0
C      1  0.5263770000000  0.5008510000000  0.4973720000000 1.0
C      1  0.4745510000000  0.4960980000000  0.5039080000000 1.0
C      1  0.4280810000000  0.5046930000000  0.4955470000000 1.0
C      1  0.5750820000000  0.4964070000000  0.5106820000000 1.0
END
