TITL C-48750-9295-10 0.0491023579756317 125000 -400.604613384321 0 0 58 (C3) n - 1
REM
REM in /rds/project/t2_vol4/rds-t2-cs072/BORA/CARBON/from-Arr/AIRSS/Generating-Clusters/GAP-ML-2020/Higher-Symm/SD-CG/HFTN-CG
REM
REM
REM
REM
REM
REM ./C.cell (b20cbc046b6831c77cfcea5457e17084)
REM AIRSS Version 0.9.1 bugfix July 2018 build 013d7b7c2542+ Fri, 06 Jul 2018 19:26:36 +0100
REM compiler GCC version 9.3.0
REM options -cpp -mtune=generic -march=x86-64 -g -O0
REM seed -688161770 651334068 341737308 -1074495207 -1728636389 -448687895 -617994690 -1427766590 -492452199 751712485 1265573205 -1606987768 1479255594 -390247841 741634775 206263373 328911364 379464313 -824487863 297024081 -1770989748 -1527006983 87342296 173907539 -121409971 -241497236 -1379083339 752787568 2061698990 -72366036 -1826261081 -2123564218 975303674
REM
CELL 1.54180   50.00000   50.00000   50.00000   90.00000   90.00000   90.00000
LATT -1
SFAC C  
C      1  0.4410410000000  0.5249250000000  0.5029160000000 1.0
C      1  0.5338840000000  0.5216710000000  0.5490030000000 1.0
C      1  0.5273300000000  0.5213310000000  0.4455070000000 1.0
C      1  0.4634680000000  0.4769040000000  0.5353710000000 1.0
C      1  0.5478350000000  0.4735780000000  0.5121980000000 1.0
C      1  0.4855810000000  0.4755860000000  0.4506650000000 1.0
C      1  0.5228780000000  0.4939580000000  0.5490300000000 1.0
C      1  0.5311250000000  0.4931080000000  0.4543500000000 1.0
C      1  0.4450620000000  0.4965950000000  0.4945250000000 1.0
C      1  0.5560580000000  0.5293040000000  0.5340190000000 1.0
C      1  0.5037980000000  0.5307140000000  0.4339880000000 1.0
C      1  0.4433700000000  0.5335440000000  0.5292750000000 1.0
C      1  0.5019240000000  0.4906480000000  0.4720760000000 1.0
C      1  0.4747820000000  0.4918960000000  0.5108830000000 1.0
C      1  0.5219420000000  0.4901340000000  0.5150090000000 1.0
C      1  0.4722020000000  0.4350280000000  0.5141940000000 1.0
C      1  0.5225860000000  0.4331200000000  0.5142080000000 1.0
C      1  0.4973970000000  0.4338260000000  0.4705370000000 1.0
C      1  0.4923080000000  0.5526710000000  0.4458390000000 1.0
C      1  0.4606960000000  0.5543680000000  0.5338290000000 1.0
C      1  0.5526560000000  0.5507920000000  0.5172470000000 1.0
C      1  0.4521850000000  0.4547470000000  0.5220420000000 1.0
C      1  0.5405560000000  0.4514350000000  0.5280910000000 1.0
C      1  0.5015890000000  0.4524580000000  0.4484830000000 1.0
C      1  0.4819560000000  0.4735700000000  0.5559050000000 1.0
C      1  0.5561890000000  0.4703610000000  0.4858450000000 1.0
C      1  0.4584270000000  0.4738960000000  0.4565290000000 1.0
C      1  0.4971240000000  0.5629780000000  0.4713430000000 1.0
C      1  0.4809960000000  0.5638490000000  0.5171590000000 1.0
C      1  0.5287130000000  0.5619910000000  0.5082370000000 1.0
C      1  0.5392620000000  0.5383200000000  0.4658940000000 1.0
C      1  0.4537840000000  0.5416530000000  0.4828070000000 1.0
C      1  0.5111760000000  0.5398530000000  0.5484310000000 1.0
C      1  0.4404580000000  0.4666980000000  0.4986590000000 1.0
C      1  0.5269030000000  0.4637170000000  0.5502240000000 1.0
C      1  0.5282900000000  0.4630920000000  0.4495350000000 1.0
C      1  0.4755330000000  0.5316710000000  0.4397840000000 1.0
C      1  0.4625150000000  0.5327960000000  0.5508700000000 1.0
C      1  0.5651620000000  0.5286570000000  0.5066290000000 1.0
C      1  0.4483950000000  0.4992460000000  0.4657510000000 1.0
C      1  0.4964900000000  0.4979630000000  0.5605950000000 1.0
C      1  0.5545140000000  0.4952600000000  0.4715100000000 1.0
C      1  0.4559080000000  0.5255650000000  0.4589020000000 1.0
C      1  0.4884470000000  0.5248970000000  0.5581530000000 1.0
C      1  0.5580650000000  0.5218180000000  0.4803470000000 1.0
C      1  0.4750250000000  0.5607430000000  0.4894190000000 1.0
C      1  0.5074970000000  0.5597280000000  0.5272000000000 1.0
C      1  0.5239510000000  0.5588380000000  0.4801750000000 1.0
C      1  0.5412240000000  0.4505190000000  0.4715050000000 1.0
C      1  0.4522490000000  0.4539150000000  0.4761720000000 1.0
C      1  0.5007920000000  0.4525010000000  0.5509480000000 1.0
C      1  0.5223060000000  0.4329910000000  0.4855550000000 1.0
C      1  0.4727420000000  0.4348660000000  0.4851010000000 1.0
C      1  0.4971390000000  0.4341870000000  0.5282820000000 1.0
C      1  0.4867820000000  0.5186140000000  0.5100940000000 1.0
C      1  0.5169320000000  0.5174470000000  0.5056640000000 1.0
C      1  0.4980180000000  0.5180280000000  0.4817490000000 1.0
C      1  0.4990330000000  0.4772580000000  0.4994000000000 1.0
END
