TITL C-48754-5549-4 33.1242033162908 125000 -952.043862454892 0 0 136 (Td) n - 1
REM
REM in /rds/project/t2_vol4/rds-t2-cs072/BORA/CARBON/from-Arr/AIRSS/Generating-Clusters/GAP-ML-2020/Higher-Symm/SD-CG/HFTN-CG
REM
REM
REM
REM
REM
REM ./C.cell (b20cbc046b6831c77cfcea5457e17084)
REM AIRSS Version 0.9.1 bugfix July 2018 build 013d7b7c2542+ Fri, 06 Jul 2018 19:26:36 +0100
REM compiler GCC version 9.3.0
REM options -cpp -mtune=generic -march=x86-64 -g -O0
REM seed 885441807 -887818238 -2143273977 -1852689857 1714334960 942803603 -934020753 588331364 128137199 -1908415234 -1494773959 1743918415 -466135732 14591065 1671522267 1854497044 -308038106 1462029673 1722088649 -316150826 859375427 359502929 -785872230 -1659121909 -614506049 -940629644 409765464 -309319423 -1038146516 -1742419990 -184880435 -1107648132 -1204661283
REM
CELL 1.54180   50.00000   50.00000   50.00000   90.00000   90.00000   90.00000
LATT -1
SFAC C  
C      1  0.4635330000000  0.5878580000000  0.5153330000000 1.0
C      1  0.5154270000000  0.4638630000000  0.5874470000000 1.0
C      1  0.5875360000000  0.5157520000000  0.4634470000000 1.0
C      1  0.4635460000000  0.4123170000000  0.4840220000000 1.0
C      1  0.5360020000000  0.4123220000000  0.5153300000000 1.0
C      1  0.5359870000000  0.5878640000000  0.4840220000000 1.0
C      1  0.5154160000000  0.5363200000000  0.4119060000000 1.0
C      1  0.4841120000000  0.5363160000000  0.5874480000000 1.0
C      1  0.4841120000000  0.4638620000000  0.4119060000000 1.0
C      1  0.5875400000000  0.4844420000000  0.5359010000000 1.0
C      1  0.4119960000000  0.4844290000000  0.4634520000000 1.0
C      1  0.4119960000000  0.5157380000000  0.5359070000000 1.0
C      1  0.4635410000000  0.5157420000000  0.5874490000000 1.0
C      1  0.5154140000000  0.5878630000000  0.4634490000000 1.0
C      1  0.5875410000000  0.4638700000000  0.5153280000000 1.0
C      1  0.4635380000000  0.4844340000000  0.4119070000000 1.0
C      1  0.5359910000000  0.5157490000000  0.4119050000000 1.0
C      1  0.5359980000000  0.4844380000000  0.5874460000000 1.0
C      1  0.5154300000000  0.4123200000000  0.5359030000000 1.0
C      1  0.4841060000000  0.5878600000000  0.5359050000000 1.0
C      1  0.4841180000000  0.4123190000000  0.4634490000000 1.0
C      1  0.5875350000000  0.5363250000000  0.4840200000000 1.0
C      1  0.4119980000000  0.4638560000000  0.4840240000000 1.0
C      1  0.4119940000000  0.5363110000000  0.5153340000000 1.0
C      1  0.4225380000000  0.5571390000000  0.4743160000000 1.0
C      1  0.4744110000000  0.4228640000000  0.5567310000000 1.0
C      1  0.5568220000000  0.4747320000000  0.4224510000000 1.0
C      1  0.4225490000000  0.4430290000000  0.5250420000000 1.0
C      1  0.5769940000000  0.4430420000000  0.4743100000000 1.0
C      1  0.5769870000000  0.5571510000000  0.5250390000000 1.0
C      1  0.4743960000000  0.5773120000000  0.4426230000000 1.0
C      1  0.5251260000000  0.5773150000000  0.5567310000000 1.0
C      1  0.5251350000000  0.4228690000000  0.4426200000000 1.0
C      1  0.5568220000000  0.5254580000000  0.5768990000000 1.0
C      1  0.4427080000000  0.5254500000000  0.4224550000000 1.0
C      1  0.4427160000000  0.4747220000000  0.5769010000000 1.0
C      1  0.4225470000000  0.4747200000000  0.5567330000000 1.0
C      1  0.4743970000000  0.5571440000000  0.4224540000000 1.0
C      1  0.5568270000000  0.4228720000000  0.4743110000000 1.0
C      1  0.4225400000000  0.5254490000000  0.4426240000000 1.0
C      1  0.5769910000000  0.4747330000000  0.4426190000000 1.0
C      1  0.5769900000000  0.5254590000000  0.5567290000000 1.0
C      1  0.4744100000000  0.4430330000000  0.5769000000000 1.0
C      1  0.5251280000000  0.5571460000000  0.5769000000000 1.0
C      1  0.5251330000000  0.4430380000000  0.4224520000000 1.0
C      1  0.5568170000000  0.5773180000000  0.5250390000000 1.0
C      1  0.4427190000000  0.4228620000000  0.5250410000000 1.0
C      1  0.4427050000000  0.5773100000000  0.4743150000000 1.0
C      1  0.5321450000000  0.4260420000000  0.4902650000000 1.0
C      1  0.4903520000000  0.5324620000000  0.4256260000000 1.0
C      1  0.4257180000000  0.4906740000000  0.5320510000000 1.0
C      1  0.5321340000000  0.5741440000000  0.5090870000000 1.0
C      1  0.4673890000000  0.5741390000000  0.4902680000000 1.0
C      1  0.4674010000000  0.4260370000000  0.5090870000000 1.0
C      1  0.4903610000000  0.4677170000000  0.5737280000000 1.0
C      1  0.5091780000000  0.4677200000000  0.4256250000000 1.0
C      1  0.5091770000000  0.5324630000000  0.5737280000000 1.0
C      1  0.4257140000000  0.5094950000000  0.4673070000000 1.0
C      1  0.5738180000000  0.5095060000000  0.5320470000000 1.0
C      1  0.5738180000000  0.4906860000000  0.4673020000000 1.0
C      1  0.5321380000000  0.4906830000000  0.4256250000000 1.0
C      1  0.4903630000000  0.4260380000000  0.5320480000000 1.0
C      1  0.4257130000000  0.5324570000000  0.4902690000000 1.0
C      1  0.5321410000000  0.5095020000000  0.5737270000000 1.0
C      1  0.4673980000000  0.4906770000000  0.5737280000000 1.0
C      1  0.4673920000000  0.5094990000000  0.4256270000000 1.0
C      1  0.4903500000000  0.5741410000000  0.4673050000000 1.0
C      1  0.5091820000000  0.4260400000000  0.4673040000000 1.0
C      1  0.5091720000000  0.5741420000000  0.5320490000000 1.0
C      1  0.4257190000000  0.4677120000000  0.5090890000000 1.0
C      1  0.5738160000000  0.5324680000000  0.5090850000000 1.0
C      1  0.5738200000000  0.4677240000000  0.4902640000000 1.0
C      1  0.5550180000000  0.5347890000000  0.4242100000000 1.0
C      1  0.4242990000000  0.5553400000000  0.5343730000000 1.0
C      1  0.5344680000000  0.4246270000000  0.5549310000000 1.0
C      1  0.5550280000000  0.4654000000000  0.5751400000000 1.0
C      1  0.4445110000000  0.4653930000000  0.4242130000000 1.0
C      1  0.4445100000000  0.5347790000000  0.5751440000000 1.0
C      1  0.4243050000000  0.4448290000000  0.4649850000000 1.0
C      1  0.5752370000000  0.4448400000000  0.5343670000000 1.0
C      1  0.5752270000000  0.5553530000000  0.4649810000000 1.0
C      1  0.5344530000000  0.5755590000000  0.4444200000000 1.0
C      1  0.4650690000000  0.5755520000000  0.5549340000000 1.0
C      1  0.4650780000000  0.4246230000000  0.4444210000000 1.0
C      1  0.5550300000000  0.4246290000000  0.5343680000000 1.0
C      1  0.4243010000000  0.5347780000000  0.5549350000000 1.0
C      1  0.5344540000000  0.5553500000000  0.4242110000000 1.0
C      1  0.5550160000000  0.5755600000000  0.4649820000000 1.0
C      1  0.4445160000000  0.4246210000000  0.4649840000000 1.0
C      1  0.4445060000000  0.5755510000000  0.5343720000000 1.0
C      1  0.4243030000000  0.4653910000000  0.4444220000000 1.0
C      1  0.5752280000000  0.5347900000000  0.4444190000000 1.0
C      1  0.5752360000000  0.4654020000000  0.5549300000000 1.0
C      1  0.5344670000000  0.4448360000000  0.5751400000000 1.0
C      1  0.4650710000000  0.5553430000000  0.5751430000000 1.0
C      1  0.4650750000000  0.4448320000000  0.4242120000000 1.0
C      1  0.5430260000000  0.4778520000000  0.4996360000000 1.0
C      1  0.4997240000000  0.5433480000000  0.4774350000000 1.0
C      1  0.4775260000000  0.5000490000000  0.5429340000000 1.0
C      1  0.5430220000000  0.5223360000000  0.4997150000000 1.0
C      1  0.4565080000000  0.5223290000000  0.4996390000000 1.0
C      1  0.4565120000000  0.4778450000000  0.4997170000000 1.0
C      1  0.4997320000000  0.4568330000000  0.5219180000000 1.0
C      1  0.4998090000000  0.4568330000000  0.4774340000000 1.0
C      1  0.4998030000000  0.5433470000000  0.5219190000000 1.0
C      1  0.4775240000000  0.5001280000000  0.4564200000000 1.0
C      1  0.5220100000000  0.5001310000000  0.5429330000000 1.0
C      1  0.5220080000000  0.5000540000000  0.4564190000000 1.0
C      1  0.5430230000000  0.5000550000000  0.4774330000000 1.0
C      1  0.4997310000000  0.4778480000000  0.5429340000000 1.0
C      1  0.4775220000000  0.5433460000000  0.4996390000000 1.0
C      1  0.5430250000000  0.5001320000000  0.5219170000000 1.0
C      1  0.4565100000000  0.5000480000000  0.5219200000000 1.0
C      1  0.4565090000000  0.5001260000000  0.4774360000000 1.0
C      1  0.4997250000000  0.5223330000000  0.4564200000000 1.0
C      1  0.4998060000000  0.4778490000000  0.4564190000000 1.0
C      1  0.4998050000000  0.5223320000000  0.5429340000000 1.0
C      1  0.4775280000000  0.4568310000000  0.4997160000000 1.0
C      1  0.5220060000000  0.5433490000000  0.4997150000000 1.0
C      1  0.5220120000000  0.4568350000000  0.4996370000000 1.0
C      1  0.4470840000000  0.5527640000000  0.4144250000000 1.0
C      1  0.4145190000000  0.4474070000000  0.5523550000000 1.0
C      1  0.5524490000000  0.4148420000000  0.4469980000000 1.0
C      1  0.4470970000000  0.4474090000000  0.5849310000000 1.0
C      1  0.5524450000000  0.4474190000000  0.4144210000000 1.0
C      1  0.5524420000000  0.5527700000000  0.5849290000000 1.0
C      1  0.4145080000000  0.5527610000000  0.4470030000000 1.0
C      1  0.5850230000000  0.4474210000000  0.4469970000000 1.0
C      1  0.4470820000000  0.5853400000000  0.4470020000000 1.0
C      1  0.4470980000000  0.4148330000000  0.5523540000000 1.0
C      1  0.5524390000000  0.5853470000000  0.5523530000000 1.0
C      1  0.5850180000000  0.5527730000000  0.5523510000000 1.0
C      1  0.4298620000000  0.4301710000000  0.5695910000000 1.0
C      1  0.5696830000000  0.4301840000000  0.4297610000000 1.0
C      1  0.4298470000000  0.5699980000000  0.4297660000000 1.0
C      1  0.5696760000000  0.5700080000000  0.5695880000000 1.0
END
