TITL C-48748-8197-7 -0.116401629756051 125000 -547.993621930742 0 0 80 (Cs) n - 1
REM
REM in /rds/project/t2_vol4/rds-t2-cs072/BORA/CARBON/from-Arr/AIRSS/Generating-Clusters/GAP-ML-2020/Higher-Symm/SD-CG/HFTN-CG
REM
REM
REM
REM
REM
REM ./C.cell (b20cbc046b6831c77cfcea5457e17084)
REM AIRSS Version 0.9.1 bugfix July 2018 build 013d7b7c2542+ Fri, 06 Jul 2018 19:26:36 +0100
REM compiler GCC version 9.3.0
REM options -cpp -mtune=generic -march=x86-64 -g -O0
REM seed 151403664 -1992848249 -822286324 -638146496 532619534 1363343476 851099286 249062391 984186789 -899441459 -1276126868 -62783365 -355354057 -390666248 -1361301941 -1242377308 -577073561 -1647211440 2112859385 873452398 -387520484 975838713 -840197680 560878196 173302871 1679853898 -1332266765 -1423297765 -1584316600 659482550 -1316379013 -146390849 -1270775314
REM
CELL 1.54180   50.00000   50.00000   50.00000   90.00000   90.00000   90.00000
LATT -1
SFAC C  
C      1  0.5004200000000  0.4669840000000  0.5342720000000 1.0
C      1  0.4974910000000  0.4657090000000  0.4655340000000 1.0
C      1  0.5004080000000  0.5330140000000  0.5342740000000 1.0
C      1  0.4974790000000  0.5342930000000  0.4655370000000 1.0
C      1  0.4476360000000  0.5549060000000  0.4729250000000 1.0
C      1  0.5529930000000  0.5537310000000  0.5267380000000 1.0
C      1  0.4476550000000  0.4450770000000  0.4729220000000 1.0
C      1  0.5530120000000  0.4462860000000  0.5267340000000 1.0
C      1  0.5678980000000  0.4863040000000  0.4597460000000 1.0
C      1  0.4316390000000  0.4861080000000  0.5410770000000 1.0
C      1  0.5678930000000  0.5137220000000  0.4597470000000 1.0
C      1  0.4316340000000  0.5138650000000  0.5410780000000 1.0
C      1  0.5107490000000  0.4709690000000  0.4137010000000 1.0
C      1  0.4893890000000  0.4708530000000  0.5864510000000 1.0
C      1  0.5107390000000  0.5290400000000  0.4137030000000 1.0
C      1  0.4893790000000  0.5291370000000  0.5864530000000 1.0
C      1  0.4375060000000  0.4715000000000  0.4676080000000 1.0
C      1  0.5656850000000  0.4718650000000  0.5324250000000 1.0
C      1  0.4374960000000  0.5284800000000  0.4676100000000 1.0
C      1  0.5656750000000  0.5281560000000  0.5324270000000 1.0
C      1  0.5111720000000  0.5384480000000  0.5086910000000 1.0
C      1  0.4861000000000  0.5394960000000  0.4913780000000 1.0
C      1  0.5111850000000  0.4615550000000  0.5086880000000 1.0
C      1  0.4861140000000  0.4604990000000  0.4913750000000 1.0
C      1  0.4470840000000  0.5488260000000  0.5216930000000 1.0
C      1  0.5524270000000  0.5466160000000  0.4798050000000 1.0
C      1  0.4471010000000  0.4511540000000  0.5216900000000 1.0
C      1  0.5524440000000  0.4534040000000  0.4798020000000 1.0
C      1  0.4702730000000  0.5148570000000  0.5007330000000 1.0
C      1  0.5240510000000  0.5138520000000  0.4980800000000 1.0
C      1  0.4702780000000  0.4851330000000  0.5007320000000 1.0
C      1  0.5240560000000  0.4861560000000  0.4980790000000 1.0
C      1  0.5259730000000  0.4583080000000  0.4315480000000 1.0
C      1  0.4735820000000  0.4582030000000  0.5691160000000 1.0
C      1  0.5259590000000  0.5417060000000  0.4315510000000 1.0
C      1  0.4735670000000  0.5417830000000  0.5691190000000 1.0
C      1  0.4366360000000  0.5147860000000  0.4926810000000 1.0
C      1  0.5772130000000  0.5145300000000  0.5099860000000 1.0
C      1  0.4366420000000  0.4851920000000  0.4926800000000 1.0
C      1  0.5772180000000  0.4854970000000  0.5099850000000 1.0
C      1  0.4567530000000  0.5683410000000  0.4514100000000 1.0
C      1  0.5434050000000  0.5678700000000  0.5479810000000 1.0
C      1  0.4567770000000  0.4316470000000  0.4514050000000 1.0
C      1  0.5434290000000  0.4321420000000  0.5479760000000 1.0
C      1  0.5428020000000  0.4694410000000  0.4550480000000 1.0
C      1  0.4558830000000  0.4687820000000  0.5456440000000 1.0
C      1  0.5427920000000  0.5305770000000  0.4550510000000 1.0
C      1  0.4558720000000  0.5311990000000  0.5456460000000 1.0
C      1  0.5543300000000  0.4857370000000  0.5553570000000 1.0
C      1  0.4463050000000  0.4856120000000  0.4439590000000 1.0
C      1  0.5543250000000  0.5142780000000  0.5553580000000 1.0
C      1  0.4463000000000  0.5143730000000  0.4439600000000 1.0
C      1  0.5258340000000  0.4458810000000  0.5630210000000 1.0
C      1  0.4737710000000  0.4453090000000  0.4354020000000 1.0
C      1  0.5258150000000  0.5541240000000  0.5630250000000 1.0
C      1  0.4737520000000  0.5546870000000  0.4354060000000 1.0
C      1  0.4867000000000  0.5143630000000  0.4147460000000 1.0
C      1  0.5134230000000  0.5142800000000  0.5844960000000 1.0
C      1  0.4867050000000  0.4856380000000  0.4147450000000 1.0
C      1  0.5134280000000  0.4857190000000  0.5844950000000 1.0
C      1  0.5012790000000  0.4479520000000  0.4438470000000 1.0
C      1  0.4978550000000  0.4486410000000  0.5555550000000 1.0
C      1  0.5012610000000  0.5520520000000  0.4438510000000 1.0
C      1  0.4978370000000  0.5513550000000  0.5555590000000 1.0
C      1  0.4769660000000  0.5155110000000  0.5312780000000 1.0
C      1  0.5197900000000  0.5155510000000  0.4679210000000 1.0
C      1  0.4769720000000  0.4844780000000  0.5312770000000 1.0
C      1  0.5197960000000  0.4844580000000  0.4679200000000 1.0
C      1  0.4261910000000  0.5285450000000  0.5163950000000 1.0
C      1  0.5741350000000  0.5276410000000  0.4844190000000 1.0
C      1  0.4262010000000  0.4714280000000  0.5163930000000 1.0
C      1  0.5741450000000  0.4723870000000  0.4844170000000 1.0
C      1  0.5374810000000  0.5535600000000  0.5023500000000 1.0
C      1  0.4614020000000  0.5562720000000  0.4986980000000 1.0
C      1  0.5375000000000  0.4464530000000  0.5023460000000 1.0
C      1  0.4614210000000  0.4437150000000  0.4986940000000 1.0
C      1  0.4647340000000  0.5283480000000  0.4266720000000 1.0
C      1  0.5350140000000  0.5279570000000  0.5716180000000 1.0
C      1  0.4647440000000  0.4716440000000  0.4266700000000 1.0
C      1  0.5350240000000  0.4720500000000  0.5716160000000 1.0
END
