TITL C-48765-5771-8 22.747414873097 125000 -159.523152963075 0 0 25 (C1) n - 1
REM
REM in /rds/project/t2_vol4/rds-t2-cs072/BORA/CARBON/from-Arr/AIRSS/Generating-Clusters/GAP-ML-2020/Higher-Symm/SD-CG/HFTN-CG
REM
REM
REM
REM
REM
REM ./C.cell (b20cbc046b6831c77cfcea5457e17084)
REM AIRSS Version 0.9.1 bugfix July 2018 build 013d7b7c2542+ Fri, 06 Jul 2018 19:26:36 +0100
REM compiler GCC version 9.3.0
REM options -cpp -mtune=generic -march=x86-64 -g -O0
REM seed 2024420620 -1764280024 724410801 -1677996124 384377319 261251711 -900642466 1454069978 1908030514 -2105843955 1123126810 -142315980 -1397758808 -2097287729 1251482952 -19519388 1999706513 -2061128134 1533431022 1750186506 2032545677 -2141977053 1309655803 240198363 -286436220 -1344873494 206786115 -228989749 -580750573 -912451750 -1482909164 -928652341 -1263942086
REM
CELL 1.54180   50.00000   50.00000   50.00000   90.00000   90.00000   90.00000
LATT -1
SFAC C  
C      1  0.4939720000000  0.5461960000000  0.4858880000000 1.0
C      1  0.4999900000000  0.4844850000000  0.5414270000000 1.0
C      1  0.4836380000000  0.4663300000000  0.4592450000000 1.0
C      1  0.4551470000000  0.4759990000000  0.4591720000000 1.0
C      1  0.4685140000000  0.5501420000000  0.4999910000000 1.0
C      1  0.4727830000000  0.4765880000000  0.5428520000000 1.0
C      1  0.5843630000000  0.5052090000000  0.5066750000000 1.0
C      1  0.6080280000000  0.4927780000000  0.5087700000000 1.0
C      1  0.6076190000000  0.5170890000000  0.5007520000000 1.0
C      1  0.4818820000000  0.4584780000000  0.5068330000000 1.0
C      1  0.4732420000000  0.5130050000000  0.4577350000000 1.0
C      1  0.4892450000000  0.5288830000000  0.5280160000000 1.0
C      1  0.4633240000000  0.5269200000000  0.5159460000000 1.0
C      1  0.4606490000000  0.4756290000000  0.5170270000000 1.0
C      1  0.4521180000000  0.5009160000000  0.4735600000000 1.0
C      1  0.4768520000000  0.4887910000000  0.4432890000000 1.0
C      1  0.4959310000000  0.5518790000000  0.5131160000000 1.0
C      1  0.4954770000000  0.4588380000000  0.5321040000000 1.0
C      1  0.5061380000000  0.5055060000000  0.5223630000000 1.0
C      1  0.4937850000000  0.4704530000000  0.4847560000000 1.0
C      1  0.4940750000000  0.5211810000000  0.4744260000000 1.0
C      1  0.4611680000000  0.5007000000000  0.5015730000000 1.0
C      1  0.4898980000000  0.4993080000000  0.4950170000000 1.0
C      1  0.5329050000000  0.5081530000000  0.5132570000000 1.0
C      1  0.5572460000000  0.5061720000000  0.5104180000000 1.0
END
