TITL C-48746-8120-8 -789.713503951833 125000 -729.382402848092 0 0 106 (C1) n - 1
REM
REM in /rds/project/t2_vol4/rds-t2-cs072/BORA/CARBON/from-Arr/AIRSS/Generating-Clusters/GAP-ML-2020/Higher-Symm/SD-CG/HFTN-CG
REM
REM
REM
REM
REM
REM ./C.cell (b20cbc046b6831c77cfcea5457e17084)
REM AIRSS Version 0.9.1 bugfix July 2018 build 013d7b7c2542+ Fri, 06 Jul 2018 19:26:36 +0100
REM compiler GCC version 9.3.0
REM options -cpp -mtune=generic -march=x86-64 -g -O0
REM seed -1832312483 712736696 -71563782 -628403037 1118464898 994701806 -1565202521 -1755784601 -2016955317 1415424730 -27502019 1258118987 -497132833 1650467278 -937016455 1699250006 -1402164686 777321626 -1699252512 257722397 1154070035 -1387298249 -582933628 -1288285857 531632274 1506666560 2037428910 1316561156 -24839959 -461251210 -696839545 2005332829 1478174756
REM
CELL 1.54180   50.00000   50.00000   50.00000   90.00000   90.00000   90.00000
LATT -1
SFAC C  
C      1  0.5482530000000  0.4566140000000  0.5828410000000 1.0
C      1  0.5509280000000  0.4107740000000  0.4872640000000 1.0
C      1  0.5522560000000  0.4852060000000  0.4053770000000 1.0
C      1  0.5512950000000  0.5840390000000  0.4616200000000 1.0
C      1  0.5596050000000  0.5585470000000  0.5633080000000 1.0
C      1  0.5802020000000  0.4739950000000  0.5069310000000 1.0
C      1  0.5834130000000  0.4822290000000  0.4766370000000 1.0
C      1  0.5812500000000  0.5122060000000  0.4782110000000 1.0
C      1  0.5816540000000  0.5195410000000  0.5090550000000 1.0
C      1  0.5834250000000  0.4963270000000  0.5270600000000 1.0
C      1  0.5518650000000  0.4279560000000  0.5216860000000 1.0
C      1  0.5538720000000  0.4530230000000  0.4381860000000 1.0
C      1  0.5499580000000  0.5432140000000  0.4389600000000 1.0
C      1  0.5648460000000  0.5663990000000  0.5272780000000 1.0
C      1  0.5522110000000  0.5019900000000  0.5758930000000 1.0
C      1  0.4381220000000  0.5299610000000  0.5506660000000 1.0
C      1  0.4391530000000  0.4579520000000  0.5451620000000 1.0
C      1  0.4408130000000  0.4419930000000  0.4773530000000 1.0
C      1  0.4363700000000  0.5030250000000  0.4356450000000 1.0
C      1  0.4343530000000  0.5522500000000  0.4821440000000 1.0
C      1  0.4335740000000  0.5442510000000  0.4546480000000 1.0
C      1  0.4340800000000  0.5484050000000  0.5292440000000 1.0
C      1  0.4485250000000  0.4842300000000  0.5544790000000 1.0
C      1  0.4385380000000  0.4349130000000  0.5049860000000 1.0
C      1  0.4484590000000  0.4819660000000  0.4528110000000 1.0
C      1  0.4824810000000  0.4388330000000  0.5601330000000 1.0
C      1  0.4855360000000  0.4228910000000  0.4602510000000 1.0
C      1  0.4819540000000  0.5075970000000  0.4143180000000 1.0
C      1  0.4768970000000  0.5785600000000  0.4863300000000 1.0
C      1  0.4818060000000  0.5367860000000  0.5727430000000 1.0
C      1  0.4743500000000  0.5745520000000  0.5342020000000 1.0
C      1  0.4833000000000  0.4893880000000  0.5883670000000 1.0
C      1  0.4853870000000  0.4178450000000  0.5128030000000 1.0
C      1  0.4862850000000  0.4557830000000  0.4247370000000 1.0
C      1  0.4820530000000  0.5533800000000  0.4367130000000 1.0
C      1  0.4282030000000  0.4570470000000  0.5190360000000 1.0
C      1  0.4333700000000  0.4685150000000  0.4739730000000 1.0
C      1  0.4197990000000  0.5223130000000  0.4459840000000 1.0
C      1  0.4308010000000  0.5346130000000  0.5047090000000 1.0
C      1  0.4368080000000  0.5052720000000  0.5386560000000 1.0
C      1  0.5582970000000  0.5258970000000  0.4639090000000 1.0
C      1  0.5604700000000  0.5385270000000  0.5156130000000 1.0
C      1  0.5592460000000  0.4986710000000  0.5457260000000 1.0
C      1  0.5565980000000  0.4567070000000  0.5122730000000 1.0
C      1  0.5606760000000  0.4717700000000  0.4610910000000 1.0
C      1  0.4881650000000  0.5596170000000  0.5557470000000 1.0
C      1  0.4861920000000  0.4649190000000  0.5728030000000 1.0
C      1  0.4903400000000  0.4139860000000  0.4859920000000 1.0
C      1  0.4851890000000  0.4803570000000  0.4124640000000 1.0
C      1  0.4880290000000  0.5642900000000  0.4631410000000 1.0
C      1  0.5015410000000  0.5142720000000  0.5795160000000 1.0
C      1  0.5010680000000  0.4338170000000  0.5350950000000 1.0
C      1  0.5035460000000  0.4350680000000  0.4391160000000 1.0
C      1  0.5000560000000  0.5282680000000  0.4288970000000 1.0
C      1  0.4913770000000  0.5790740000000  0.5121210000000 1.0
C      1  0.5023460000000  0.5422120000000  0.4722970000000 1.0
C      1  0.5143400000000  0.5583190000000  0.5471090000000 1.0
C      1  0.4802820000000  0.4822890000000  0.5485980000000 1.0
C      1  0.4808490000000  0.4747040000000  0.5040020000000 1.0
C      1  0.4758340000000  0.4981370000000  0.4688370000000 1.0
C      1  0.5300750000000  0.5292190000000  0.4232190000000 1.0
C      1  0.5443730000000  0.5790270000000  0.5126430000000 1.0
C      1  0.5305610000000  0.5209140000000  0.5795570000000 1.0
C      1  0.5303270000000  0.4304060000000  0.5406540000000 1.0
C      1  0.5317580000000  0.4350610000000  0.4453970000000 1.0
C      1  0.5466450000000  0.4998870000000  0.4520770000000 1.0
C      1  0.5458580000000  0.5420780000000  0.4888760000000 1.0
C      1  0.5428220000000  0.5226810000000  0.5364620000000 1.0
C      1  0.5442620000000  0.4715380000000  0.5365300000000 1.0
C      1  0.5416770000000  0.4581050000000  0.4831980000000 1.0
C      1  0.5618950000000  0.4051170000000  0.5097680000000 1.0
C      1  0.5597760000000  0.4615450000000  0.4125590000000 1.0
C      1  0.5528070000000  0.5704770000000  0.4397620000000 1.0
C      1  0.5775540000000  0.5726140000000  0.5513960000000 1.0
C      1  0.5558520000000  0.4797120000000  0.5916030000000 1.0
C      1  0.4552810000000  0.5260760000000  0.5739130000000 1.0
C      1  0.4573000000000  0.4358960000000  0.5472580000000 1.0
C      1  0.4597410000000  0.4355340000000  0.4571560000000 1.0
C      1  0.4560530000000  0.5182420000000  0.4209250000000 1.0
C      1  0.4496620000000  0.5741240000000  0.4935760000000 1.0
C      1  0.4898080000000  0.4709210000000  0.4781920000000 1.0
C      1  0.4996170000000  0.5161810000000  0.4585180000000 1.0
C      1  0.5176350000000  0.5663360000000  0.5186650000000 1.0
C      1  0.4958190000000  0.5074540000000  0.5509460000000 1.0
C      1  0.4946890000000  0.4663610000000  0.5270240000000 1.0
C      1  0.5406390000000  0.4503310000000  0.5573230000000 1.0
C      1  0.5384650000000  0.4304380000000  0.4728190000000 1.0
C      1  0.5426890000000  0.5042440000000  0.4221920000000 1.0
C      1  0.5491770000000  0.5725620000000  0.4857620000000 1.0
C      1  0.5357610000000  0.5422200000000  0.5598950000000 1.0
C      1  0.5189590000000  0.4813100000000  0.5277900000000 1.0
C      1  0.5173660000000  0.4750150000000  0.4782600000000 1.0
C      1  0.5206540000000  0.4970980000000  0.4625630000000 1.0
C      1  0.5155620000000  0.5407800000000  0.4970810000000 1.0
C      1  0.5151480000000  0.5092300000000  0.5297500000000 1.0
C      1  0.4569110000000  0.4986180000000  0.5804000000000 1.0
C      1  0.4582820000000  0.4229680000000  0.5216820000000 1.0
C      1  0.4614230000000  0.4575170000000  0.4394620000000 1.0
C      1  0.4562050000000  0.5439900000000  0.4339660000000 1.0
C      1  0.4478390000000  0.5723340000000  0.5233100000000 1.0
C      1  0.4402520000000  0.5065380000000  0.5091100000000 1.0
C      1  0.4728400000000  0.5033480000000  0.4995530000000 1.0
C      1  0.4207800000000  0.4805480000000  0.4991940000000 1.0
C      1  0.4986090000000  0.5189530000000  0.5083180000000 1.0
C      1  0.3928940000000  0.4902710000000  0.5016630000000 1.0
C      1  0.5627870000000  0.4988880000000  0.4979260000000 1.0
END
