TITL C-48743-9446-12 -211.641930927826 125000 -267.677671837156 0 0 41 (C1) n - 1
REM
REM in /rds/project/t2_vol4/rds-t2-cs072/BORA/CARBON/from-Arr/AIRSS/Generating-Clusters/GAP-ML-2020/Higher-Symm/SD-CG/HFTN-CG
REM
REM
REM
REM
REM
REM ./C.cell (b20cbc046b6831c77cfcea5457e17084)
REM AIRSS Version 0.9.1 bugfix July 2018 build 013d7b7c2542+ Fri, 06 Jul 2018 19:26:36 +0100
REM compiler GCC version 9.3.0
REM options -cpp -mtune=generic -march=x86-64 -g -O0
REM seed 1249900009 -2008113152 1437514720 -2123920412 -407170485 2068125705 -1384749836 1370895766 -575621261 -25613003 -707927283 1042473483 -1204725990 1973775616 -1491465356 714490109 -624358283 -1373831902 1774570699 735428807 830125518 1093960283 629694457 -304788909 -1678038446 675744277 1676321973 -1434283456 436804805 -877078325 1074350450 -1732476336 -407787273
REM
CELL 1.54180   50.00000   50.00000   50.00000   90.00000   90.00000   90.00000
LATT -1
SFAC C  
C      1  0.4827690000000  0.5152740000000  0.5102920000000 1.0
C      1  0.5134680000000  0.5158660000000  0.5121430000000 1.0
C      1  0.5181280000000  0.5209360000000  0.4800980000000 1.0
C      1  0.4717990000000  0.4728740000000  0.5003180000000 1.0
C      1  0.5146340000000  0.4701950000000  0.5123630000000 1.0
C      1  0.4985920000000  0.4759260000000  0.4874270000000 1.0
C      1  0.4605730000000  0.4424260000000  0.4657260000000 1.0
C      1  0.4966800000000  0.4340730000000  0.5453480000000 1.0
C      1  0.5344720000000  0.4461630000000  0.4720090000000 1.0
C      1  0.4652820000000  0.5473770000000  0.4746610000000 1.0
C      1  0.4952300000000  0.5433440000000  0.5496990000000 1.0
C      1  0.5469330000000  0.5538590000000  0.4847740000000 1.0
C      1  0.4873590000000  0.4455950000000  0.4512740000000 1.0
C      1  0.4762360000000  0.4456140000000  0.5576200000000 1.0
C      1  0.5699980000000  0.4723930000000  0.4946100000000 1.0
C      1  0.4753090000000  0.5199440000000  0.4373810000000 1.0
C      1  0.4647530000000  0.5440440000000  0.5513440000000 1.0
C      1  0.5672540000000  0.5469120000000  0.5054800000000 1.0
C      1  0.4656390000000  0.5170920000000  0.5620750000000 1.0
C      1  0.5647410000000  0.5194460000000  0.4987490000000 1.0
C      1  0.4875570000000  0.4966480000000  0.4455550000000 1.0
C      1  0.4593640000000  0.4927010000000  0.5472940000000 1.0
C      1  0.5587510000000  0.4932400000000  0.5087800000000 1.0
C      1  0.4766910000000  0.4702110000000  0.4398590000000 1.0
C      1  0.4770520000000  0.5419210000000  0.4982230000000 1.0
C      1  0.5109650000000  0.5417910000000  0.5266660000000 1.0
C      1  0.5181870000000  0.5524230000000  0.4830280000000 1.0
C      1  0.4646620000000  0.4454360000000  0.4943800000000 1.0
C      1  0.5051840000000  0.4435600000000  0.5214140000000 1.0
C      1  0.5054190000000  0.4487460000000  0.4741060000000 1.0
C      1  0.4499090000000  0.4608710000000  0.4477830000000 1.0
C      1  0.4636510000000  0.4678720000000  0.5576820000000 1.0
C      1  0.5572280000000  0.4543290000000  0.4800340000000 1.0
C      1  0.4653420000000  0.5403420000000  0.4498720000000 1.0
C      1  0.4921870000000  0.5248390000000  0.5706750000000 1.0
C      1  0.5477040000000  0.5260410000000  0.4757160000000 1.0
C      1  0.5311070000000  0.4917090000000  0.5175670000000 1.0
C      1  0.5026900000000  0.4981070000000  0.4688840000000 1.0
C      1  0.4665750000000  0.4937720000000  0.5189760000000 1.0
C      1  0.4908690000000  0.4345620000000  0.4981670000000 1.0
C      1  0.5011290000000  0.5567770000000  0.5043850000000 1.0
END
