TITL C-48764-6422-8 0.0262417192642752 125000 -796.748262284078 0 0 116 (C1) n - 1
REM
REM in /rds/project/t2_vol4/rds-t2-cs072/BORA/CARBON/from-Arr/AIRSS/Generating-Clusters/GAP-ML-2020/Higher-Symm/SD-CG/HFTN-CG
REM
REM
REM
REM
REM
REM ./C.cell (b20cbc046b6831c77cfcea5457e17084)
REM AIRSS Version 0.9.1 bugfix July 2018 build 013d7b7c2542+ Fri, 06 Jul 2018 19:26:36 +0100
REM compiler GCC version 9.3.0
REM options -cpp -mtune=generic -march=x86-64 -g -O0
REM seed -2022836784 -2053136309 194749848 -432588826 359355402 174826950 1597261029 -2045301482 1591823281 687337299 1771442372 -1120491900 1300385610 520742489 1596218690 -1412006462 1670342150 1606209486 -2086383613 -376454063 2022602159 83006063 1707212920 -387134584 1756482124 -497286885 368126198 201954 -1074337931 1202363540 1784569963 -330495335 -553344599
REM
CELL 1.54180   50.00000   50.00000   50.00000   90.00000   90.00000   90.00000
LATT -1
SFAC C  
C      1  0.4597820000000  0.5030370000000  0.4740990000000 1.0
C      1  0.4597090000000  0.5256890000000  0.4955030000000 1.0
C      1  0.4598710000000  0.5126110000000  0.5228910000000 1.0
C      1  0.4598070000000  0.4817240000000  0.5182260000000 1.0
C      1  0.4608360000000  0.4758000000000  0.4881290000000 1.0
C      1  0.4705900000000  0.5409880000000  0.5895340000000 1.0
C      1  0.4691990000000  0.4269450000000  0.5668570000000 1.0
C      1  0.4721390000000  0.4128770000000  0.4513170000000 1.0
C      1  0.4687020000000  0.5186100000000  0.4038320000000 1.0
C      1  0.4712770000000  0.5991510000000  0.4883510000000 1.0
C      1  0.4847610000000  0.5241460000000  0.5380020000000 1.0
C      1  0.4842910000000  0.4709820000000  0.5343310000000 1.0
C      1  0.4853880000000  0.4576450000000  0.4830950000000 1.0
C      1  0.4845260000000  0.5025380000000  0.4548740000000 1.0
C      1  0.4843150000000  0.5435170000000  0.4890190000000 1.0
C      1  0.5507270000000  0.4862770000000  0.4761050000000 1.0
C      1  0.5505260000000  0.5182190000000  0.4796620000000 1.0
C      1  0.5506690000000  0.5247310000000  0.5112690000000 1.0
C      1  0.5505780000000  0.4967900000000  0.5272040000000 1.0
C      1  0.5507860000000  0.4729840000000  0.5055360000000 1.0
C      1  0.5981580000000  0.4856930000000  0.4796750000000 1.0
C      1  0.5980030000000  0.5147880000000  0.4802380000000 1.0
C      1  0.5981050000000  0.5232280000000  0.5080760000000 1.0
C      1  0.5980510000000  0.4993610000000  0.5247030000000 1.0
C      1  0.5981630000000  0.4761580000000  0.5071590000000 1.0
C      1  0.4851320000000  0.4253580000000  0.5219460000000 1.0
C      1  0.4859320000000  0.4560570000000  0.4356890000000 1.0
C      1  0.4831820000000  0.5464790000000  0.4388260000000 1.0
C      1  0.4867310000000  0.5733770000000  0.5264680000000 1.0
C      1  0.4839150000000  0.4974220000000  0.5768850000000 1.0
C      1  0.5694360000000  0.4583260000000  0.4435400000000 1.0
C      1  0.5691200000000  0.5398310000000  0.4425310000000 1.0
C      1  0.5692450000000  0.5668830000000  0.5200020000000 1.0
C      1  0.5692590000000  0.4999270000000  0.5699820000000 1.0
C      1  0.5692940000000  0.4339970000000  0.5238120000000 1.0
C      1  0.5238090000000  0.4320160000000  0.4529710000000 1.0
C      1  0.5225310000000  0.5235070000000  0.4208280000000 1.0
C      1  0.5234300000000  0.5819140000000  0.4971650000000 1.0
C      1  0.5231270000000  0.5264160000000  0.5782310000000 1.0
C      1  0.5229090000000  0.4351200000000  0.5505860000000 1.0
C      1  0.4117360000000  0.5237320000000  0.5251650000000 1.0
C      1  0.4125570000000  0.4774440000000  0.5132210000000 1.0
C      1  0.4138420000000  0.4682870000000  0.4857890000000 1.0
C      1  0.4125260000000  0.4947150000000  0.4742310000000 1.0
C      1  0.4116000000000  0.5345240000000  0.5008920000000 1.0
C      1  0.5300280000000  0.4820320000000  0.4276670000000 1.0
C      1  0.5296330000000  0.5626590000000  0.4598930000000 1.0
C      1  0.5307510000000  0.5567050000000  0.5477230000000 1.0
C      1  0.5292660000000  0.4718210000000  0.5689880000000 1.0
C      1  0.5307450000000  0.4255010000000  0.4954690000000 1.0
C      1  0.4347850000000  0.4688460000000  0.5316260000000 1.0
C      1  0.4373810000000  0.4544880000000  0.4792360000000 1.0
C      1  0.4347180000000  0.5026090000000  0.4555690000000 1.0
C      1  0.4360440000000  0.5475710000000  0.4918980000000 1.0
C      1  0.4361510000000  0.5253230000000  0.5408060000000 1.0
C      1  0.5764190000000  0.5270610000000  0.4656540000000 1.0
C      1  0.5765660000000  0.5408530000000  0.5153330000000 1.0
C      1  0.5765190000000  0.4978450000000  0.5437010000000 1.0
C      1  0.5766360000000  0.4576120000000  0.5118150000000 1.0
C      1  0.5766790000000  0.4757590000000  0.4633650000000 1.0
C      1  0.4650940000000  0.4373200000000  0.4423970000000 1.0
C      1  0.4609620000000  0.5331650000000  0.4254370000000 1.0
C      1  0.4654200000000  0.5844490000000  0.5102350000000 1.0
C      1  0.4626520000000  0.5164000000000  0.5814990000000 1.0
C      1  0.4627780000000  0.4272940000000  0.5404990000000 1.0
C      1  0.5053950000000  0.4440400000000  0.5292310000000 1.0
C      1  0.5061280000000  0.4549720000000  0.4557890000000 1.0
C      1  0.5044760000000  0.5279080000000  0.4433650000000 1.0
C      1  0.5061470000000  0.5619600000000  0.5091310000000 1.0
C      1  0.5050010000000  0.5099480000000  0.5622080000000 1.0
C      1  0.4441320000000  0.4803940000000  0.5587280000000 1.0
C      1  0.4464750000000  0.4345350000000  0.4985810000000 1.0
C      1  0.4453970000000  0.4794190000000  0.4396280000000 1.0
C      1  0.4446010000000  0.5517340000000  0.4636370000000 1.0
C      1  0.4470600000000  0.5528540000000  0.5385820000000 1.0
C      1  0.4757730000000  0.5542970000000  0.5456890000000 1.0
C      1  0.4730030000000  0.4734050000000  0.5641780000000 1.0
C      1  0.4754020000000  0.4288400000000  0.4948390000000 1.0
C      1  0.4743980000000  0.4826960000000  0.4319170000000 1.0
C      1  0.4734270000000  0.5595150000000  0.4628850000000 1.0
C      1  0.5480360000000  0.4395380000000  0.4410430000000 1.0
C      1  0.5472750000000  0.5366300000000  0.4241370000000 1.0
C      1  0.5476510000000  0.5834160000000  0.5112590000000 1.0
C      1  0.5475980000000  0.5134520000000  0.5829750000000 1.0
C      1  0.5474690000000  0.4256700000000  0.5404350000000 1.0
C      1  0.5493750000000  0.4164440000000  0.5139430000000 1.0
C      1  0.5490730000000  0.4621210000000  0.4243040000000 1.0
C      1  0.5489910000000  0.5595920000000  0.4402030000000 1.0
C      1  0.5491250000000  0.5751400000000  0.5381240000000 1.0
C      1  0.5488980000000  0.4854250000000  0.5832430000000 1.0
C      1  0.4848500000000  0.4479190000000  0.5753210000000 1.0
C      1  0.4876190000000  0.4112610000000  0.4740500000000 1.0
C      1  0.4855810000000  0.4973780000000  0.4082940000000 1.0
C      1  0.4859600000000  0.5861870000000  0.4689240000000 1.0
C      1  0.4871460000000  0.5556770000000  0.5731780000000 1.0
C      1  0.5052560000000  0.5191660000000  0.5176840000000 1.0
C      1  0.5050910000000  0.4888320000000  0.5237680000000 1.0
C      1  0.5055430000000  0.4736830000000  0.4969310000000 1.0
C      1  0.5052530000000  0.4946240000000  0.4741480000000 1.0
C      1  0.5049640000000  0.5227850000000  0.4870640000000 1.0
C      1  0.4430620000000  0.4537480000000  0.4505610000000 1.0
C      1  0.4398930000000  0.5309720000000  0.4447340000000 1.0
C      1  0.4440060000000  0.5658900000000  0.5137950000000 1.0
C      1  0.4410480000000  0.5079580000000  0.5647740000000 1.0
C      1  0.4417230000000  0.4401590000000  0.5257250000000 1.0
C      1  0.5252230000000  0.4804260000000  0.4576820000000 1.0
C      1  0.5245150000000  0.5337760000000  0.4679650000000 1.0
C      1  0.5253840000000  0.5402780000000  0.5226520000000 1.0
C      1  0.5246230000000  0.4908430000000  0.5456710000000 1.0
C      1  0.5252980000000  0.4535960000000  0.5057540000000 1.0
C      1  0.5168610000000  0.4143390000000  0.4738740000000 1.0
C      1  0.5150500000000  0.4984130000000  0.4104250000000 1.0
C      1  0.5152520000000  0.5842020000000  0.4702700000000 1.0
C      1  0.5165550000000  0.5530780000000  0.5717360000000 1.0
C      1  0.5141950000000  0.4486970000000  0.5736360000000 1.0
C      1  0.4061890000000  0.5045940000000  0.5020140000000 1.0
END
