TITL C-48742-8003-11 -30.9255709305288 125000 -192.658683689535 0 0 30 (C1) n - 1
REM
REM in /rds/project/t2_vol4/rds-t2-cs072/BORA/CARBON/from-Arr/AIRSS/Generating-Clusters/GAP-ML-2020/Higher-Symm/SD-CG/HFTN-CG
REM
REM
REM
REM
REM
REM ./C.cell (b20cbc046b6831c77cfcea5457e17084)
REM AIRSS Version 0.9.1 bugfix July 2018 build 013d7b7c2542+ Fri, 06 Jul 2018 19:26:36 +0100
REM compiler GCC version 9.3.0
REM options -cpp -mtune=generic -march=x86-64 -g -O0
REM seed -79778903 -1256781723 742781073 -1001782533 88156905 109262722 -1563221615 1311438247 -171917567 1716407328 434861738 -1074967435 -73014785 1290065596 -1276137349 1825006828 -442508652 1564151209 1913412593 -1482674298 933250933 1385161228 -345474828 -424011618 649400742 1983885433 2037072910 -545073361 -330229119 -377386222 2117570397 -1354803408 827623488
REM
CELL 1.54180   50.00000   50.00000   50.00000   90.00000   90.00000   90.00000
LATT -1
SFAC C  
C      1  0.4688290000000  0.4716310000000  0.4932930000000 1.0
C      1  0.4807150000000  0.4538600000000  0.4742100000000 1.0
C      1  0.5083390000000  0.4450820000000  0.4750130000000 1.0
C      1  0.5335750000000  0.4555210000000  0.4806040000000 1.0
C      1  0.5462340000000  0.4801840000000  0.4865050000000 1.0
C      1  0.5477450000000  0.5076750000000  0.4921740000000 1.0
C      1  0.5327510000000  0.5311420000000  0.4938930000000 1.0
C      1  0.5051320000000  0.5404000000000  0.4922460000000 1.0
C      1  0.4827670000000  0.5287710000000  0.5054030000000 1.0
C      1  0.4619970000000  0.5217840000000  0.4876650000000 1.0
C      1  0.4538820000000  0.4934620000000  0.4825420000000 1.0
C      1  0.4701170000000  0.4839210000000  0.4357050000000 1.0
C      1  0.4826150000000  0.4607370000000  0.4461640000000 1.0
C      1  0.5105730000000  0.4531580000000  0.4457660000000 1.0
C      1  0.5365130000000  0.4624830000000  0.4493910000000 1.0
C      1  0.5494250000000  0.4859520000000  0.4562050000000 1.0
C      1  0.5504130000000  0.5132430000000  0.4604520000000 1.0
C      1  0.5343300000000  0.5353420000000  0.4632850000000 1.0
C      1  0.5071760000000  0.5443580000000  0.4634680000000 1.0
C      1  0.4857910000000  0.5373900000000  0.4464180000000 1.0
C      1  0.4621150000000  0.5271840000000  0.4598720000000 1.0
C      1  0.4537380000000  0.4988480000000  0.4544690000000 1.0
C      1  0.4907500000000  0.4852950000000  0.5054180000000 1.0
C      1  0.5035580000000  0.4947740000000  0.4767600000000 1.0
C      1  0.4937660000000  0.5136270000000  0.5753050000000 1.0
C      1  0.4819700000000  0.5011140000000  0.4158520000000 1.0
C      1  0.4885170000000  0.5064030000000  0.5245670000000 1.0
C      1  0.4892140000000  0.5250070000000  0.4206770000000 1.0
C      1  0.4946920000000  0.5019880000000  0.5982520000000 1.0
C      1  0.4922680000000  0.5070160000000  0.5504920000000 1.0
END
