TITL C-48739-9338-3 -33.959535571082 125000 -244.50316758988 0 0 37 (C1) n - 1
REM
REM in /rds/project/t2_vol4/rds-t2-cs072/BORA/CARBON/from-Arr/AIRSS/Generating-Clusters/GAP-ML-2020/Higher-Symm/SD-CG/HFTN-CG
REM
REM
REM
REM
REM
REM ./C.cell (b20cbc046b6831c77cfcea5457e17084)
REM AIRSS Version 0.9.1 bugfix July 2018 build 013d7b7c2542+ Fri, 06 Jul 2018 19:26:36 +0100
REM compiler GCC version 9.3.0
REM options -cpp -mtune=generic -march=x86-64 -g -O0
REM seed -458713622 1284821364 1427451734 -1445829594 823480041 -688375621 712838623 1285670808 -1612533987 -31144024 596279445 -1703203996 -789003651 1657525894 913210484 -965200998 -1848250501 -948080408 1590824105 -1139038651 -5272253 1846361540 124895705 -2106760101 532361465 609976184 288677799 1712346673 -29181232 -1624055328 -115257289 -515320809 620864050
REM
CELL 1.54180   50.00000   50.00000   50.00000   90.00000   90.00000   90.00000
LATT -1
SFAC C  
C      1  0.5160040000000  0.5690570000000  0.4894250000000 1.0
C      1  0.5783550000000  0.5309670000000  0.4871360000000 1.0
C      1  0.5525380000000  0.4612760000000  0.4995890000000 1.0
C      1  0.4936830000000  0.4183960000000  0.5012140000000 1.0
C      1  0.4450260000000  0.4759750000000  0.4823820000000 1.0
C      1  0.4489900000000  0.5445290000000  0.5168360000000 1.0
C      1  0.4947160000000  0.5576970000000  0.5024610000000 1.0
C      1  0.5545950000000  0.5472670000000  0.4814400000000 1.0
C      1  0.5572790000000  0.4866160000000  0.5100320000000 1.0
C      1  0.5140820000000  0.4315170000000  0.4849660000000 1.0
C      1  0.4538280000000  0.4542630000000  0.5005000000000 1.0
C      1  0.4403010000000  0.5215110000000  0.5013380000000 1.0
C      1  0.5099920000000  0.4903880000000  0.4545200000000 1.0
C      1  0.4975330000000  0.4715600000000  0.5460980000000 1.0
C      1  0.4646980000000  0.4859160000000  0.4647950000000 1.0
C      1  0.4745850000000  0.5081650000000  0.5541260000000 1.0
C      1  0.4976630000000  0.5165360000000  0.4553260000000 1.0
C      1  0.5022140000000  0.5103900000000  0.5622870000000 1.0
C      1  0.4909400000000  0.5297160000000  0.5452360000000 1.0
C      1  0.5244720000000  0.5133330000000  0.4613990000000 1.0
C      1  0.5184490000000  0.4899400000000  0.5491150000000 1.0
C      1  0.4893390000000  0.4709690000000  0.4598530000000 1.0
C      1  0.4708570000000  0.4809950000000  0.5431800000000 1.0
C      1  0.4704560000000  0.5141180000000  0.4638290000000 1.0
C      1  0.4556650000000  0.5325470000000  0.4785740000000 1.0
C      1  0.5036140000000  0.5361370000000  0.5205840000000 1.0
C      1  0.5382620000000  0.5223270000000  0.4856630000000 1.0
C      1  0.5357710000000  0.4993290000000  0.5274060000000 1.0
C      1  0.4921220000000  0.4455090000000  0.4704200000000 1.0
C      1  0.4515920000000  0.4739630000000  0.5230430000000 1.0
C      1  0.5412480000000  0.5716190000000  0.4830290000000 1.0
C      1  0.5651520000000  0.5075600000000  0.4920740000000 1.0
C      1  0.5390700000000  0.4417260000000  0.4913940000000 1.0
C      1  0.4730790000000  0.4364660000000  0.4905870000000 1.0
C      1  0.4389250000000  0.4940280000000  0.5052080000000 1.0
C      1  0.4664900000000  0.5540400000000  0.4961920000000 1.0
C      1  0.5252620000000  0.5205770000000  0.5133110000000 1.0
END
