TITL C-49253-4990-8 -0.217858050935918 125000 -347.339556948263 0 0 53 (C1) n - 1
REM
REM in /rds/project/t2_vol4/rds-t2-cs072/BORA/CARBON/from-Arr/AIRSS/Generating-Clusters/GAP-ML-2020/Higher-Symm/SD-CG/HFTN-CG
REM
REM
REM
REM
REM
REM ./C.cell (b20cbc046b6831c77cfcea5457e17084)
REM AIRSS Version 0.9.1 bugfix July 2018 build 013d7b7c2542+ Fri, 06 Jul 2018 19:26:36 +0100
REM compiler GCC version 9.3.0
REM options -cpp -mtune=generic -march=x86-64 -g -O0
REM seed -1204030415 505600243 -914169001 1385844253 -1118647677 -1500900380 -582230638 -262390228 1136857830 10054787 -1682579459 -1712745030 1189310769 -25024684 995253615 1713779997 -411618078 566566130 -1393567699 164684212 1133535613 1061612346 1912303966 189684087 124463389 -824823623 1579593407 230267818 -799381137 928182364 -1133746139 -842647283 -421055991
REM
CELL 1.54180   50.00000   50.00000   50.00000   90.00000   90.00000   90.00000
LATT -1
SFAC C  
C      1  0.5047420000000  0.4340780000000  0.4781650000000 1.0
C      1  0.5210260000000  0.4295600000000  0.5023020000000 1.0
C      1  0.5062170000000  0.4284570000000  0.5257480000000 1.0
C      1  0.4798300000000  0.4338720000000  0.5146110000000 1.0
C      1  0.4771200000000  0.4327010000000  0.4850070000000 1.0
C      1  0.4917280000000  0.5707320000000  0.4755160000000 1.0
C      1  0.4748020000000  0.5695990000000  0.4976310000000 1.0
C      1  0.4918710000000  0.5700160000000  0.5214030000000 1.0
C      1  0.5198970000000  0.5717620000000  0.5144400000000 1.0
C      1  0.5197190000000  0.5718670000000  0.4859060000000 1.0
C      1  0.4595490000000  0.4770740000000  0.5050480000000 1.0
C      1  0.4810050000000  0.4735030000000  0.4584340000000 1.0
C      1  0.5276430000000  0.4825140000000  0.4639220000000 1.0
C      1  0.5399560000000  0.4612050000000  0.5365750000000 1.0
C      1  0.4953180000000  0.4747670000000  0.5409030000000 1.0
C      1  0.5459550000000  0.5294640000000  0.5045380000000 1.0
C      1  0.5131840000000  0.5326840000000  0.4572630000000 1.0
C      1  0.4653120000000  0.5294320000000  0.4688570000000 1.0
C      1  0.4646060000000  0.5273300000000  0.5193160000000 1.0
C      1  0.5133330000000  0.5299830000000  0.5422310000000 1.0
C      1  0.5302300000000  0.4557810000000  0.5097450000000 1.0
C      1  0.5144710000000  0.4515220000000  0.5444460000000 1.0
C      1  0.4815480000000  0.4631560000000  0.5165660000000 1.0
C      1  0.4627030000000  0.4549570000000  0.4722830000000 1.0
C      1  0.5070160000000  0.4625810000000  0.4695970000000 1.0
C      1  0.4605090000000  0.5446700000000  0.4956460000000 1.0
C      1  0.4889510000000  0.5424750000000  0.5300760000000 1.0
C      1  0.5322300000000  0.5460410000000  0.5242490000000 1.0
C      1  0.5286530000000  0.5448830000000  0.4797530000000 1.0
C      1  0.4871310000000  0.5477800000000  0.4595880000000 1.0
C      1  0.4467850000000  0.5184660000000  0.5413590000000 1.0
C      1  0.4393950000000  0.5161120000000  0.4601750000000 1.0
C      1  0.5135750000000  0.5228430000000  0.4297740000000 1.0
C      1  0.5717690000000  0.5202480000000  0.4945060000000 1.0
C      1  0.5259120000000  0.5234790000000  0.5685070000000 1.0
C      1  0.5482960000000  0.4886300000000  0.5411490000000 1.0
C      1  0.5549180000000  0.4847150000000  0.4645720000000 1.0
C      1  0.4828820000000  0.4817580000000  0.4291080000000 1.0
C      1  0.4417670000000  0.4700860000000  0.4836600000000 1.0
C      1  0.4731510000000  0.4805650000000  0.5596850000000 1.0
C      1  0.5433130000000  0.5046290000000  0.5641250000000 1.0
C      1  0.4546260000000  0.4982820000000  0.5561110000000 1.0
C      1  0.4345280000000  0.4928800000000  0.4688050000000 1.0
C      1  0.4971050000000  0.5029670000000  0.4255350000000 1.0
C      1  0.5714120000000  0.5016530000000  0.4759790000000 1.0
C      1  0.5124170000000  0.5022140000000  0.5296800000000 1.0
C      1  0.4801270000000  0.5019200000000  0.4708550000000 1.0
C      1  0.4726830000000  0.5021750000000  0.5019170000000 1.0
C      1  0.5110460000000  0.5062360000000  0.4707760000000 1.0
C      1  0.5398410000000  0.5034260000000  0.5182380000000 1.0
C      1  0.5040140000000  0.5332680000000  0.5003040000000 1.0
C      1  0.5064180000000  0.4713040000000  0.4986910000000 1.0
C      1  0.5029600000000  0.5024670000000  0.5018140000000 1.0
END
