TITL C-49257-6266-5 0.0995140267246457 125000 -666.14687422957 0 0 98 (C1) n - 1
REM
REM in /rds/project/t2_vol4/rds-t2-cs072/BORA/CARBON/from-Arr/AIRSS/Generating-Clusters/GAP-ML-2020/Higher-Symm/SD-CG/HFTN-CG
REM
REM
REM
REM
REM
REM ./C.cell (b20cbc046b6831c77cfcea5457e17084)
REM AIRSS Version 0.9.1 bugfix July 2018 build 013d7b7c2542+ Fri, 06 Jul 2018 19:26:36 +0100
REM compiler GCC version 9.3.0
REM options -cpp -mtune=generic -march=x86-64 -g -O0
REM seed 598794605 -1248584288 1205918191 -1694877448 583006427 336446032 -1832708066 842950883 463752055 421247564 1319703448 -1692084310 -936240812 196750611 424085059 -568144396 -1450994320 1837109095 -1972760636 -916236250 -1137400620 -1055646350 -920502808 -1884036665 1650746802 722356449 -892054611 -1355568995 -1789033607 1856602364 -1068610124 -1447307168 -390558852
REM
CELL 1.54180   50.00000   50.00000   50.00000   90.00000   90.00000   90.00000
LATT -1
SFAC C  
C      1  0.4940520000000  0.5170590000000  0.4571920000000 1.0
C      1  0.4922530000000  0.4875950000000  0.4556150000000 1.0
C      1  0.5190590000000  0.5010850000000  0.4569620000000 1.0
C      1  0.4614120000000  0.5602240000000  0.4511070000000 1.0
C      1  0.4720360000000  0.4386610000000  0.4461180000000 1.0
C      1  0.5722340000000  0.5086930000000  0.4525300000000 1.0
C      1  0.5732540000000  0.4902670000000  0.5510730000000 1.0
C      1  0.4667490000000  0.5693760000000  0.5502540000000 1.0
C      1  0.4540310000000  0.4366590000000  0.5451700000000 1.0
C      1  0.5425410000000  0.4522170000000  0.5534230000000 1.0
C      1  0.5134520000000  0.5532230000000  0.5576670000000 1.0
C      1  0.4433930000000  0.4855250000000  0.5515460000000 1.0
C      1  0.5577710000000  0.4744910000000  0.4627480000000 1.0
C      1  0.4970400000000  0.5635200000000  0.4654080000000 1.0
C      1  0.4498040000000  0.4671200000000  0.4588000000000 1.0
C      1  0.5433660000000  0.5471150000000  0.4632070000000 1.0
C      1  0.4417520000000  0.5158390000000  0.4585250000000 1.0
C      1  0.5197480000000  0.4431430000000  0.4574750000000 1.0
C      1  0.5482470000000  0.4207330000000  0.4884030000000 1.0
C      1  0.5446590000000  0.5818100000000  0.4966160000000 1.0
C      1  0.4074460000000  0.4987040000000  0.4876890000000 1.0
C      1  0.4858410000000  0.5609850000000  0.5701730000000 1.0
C      1  0.4507620000000  0.4575750000000  0.5646660000000 1.0
C      1  0.5541520000000  0.4750330000000  0.5670700000000 1.0
C      1  0.4426490000000  0.5344340000000  0.5767220000000 1.0
C      1  0.4945430000000  0.4350160000000  0.5738870000000 1.0
C      1  0.5523950000000  0.5231100000000  0.5804680000000 1.0
C      1  0.5645560000000  0.5425050000000  0.5475090000000 1.0
C      1  0.4260740000000  0.5344910000000  0.5407720000000 1.0
C      1  0.5043740000000  0.4190510000000  0.5388530000000 1.0
C      1  0.4785420000000  0.5213050000000  0.5499160000000 1.0
C      1  0.4881570000000  0.4726830000000  0.5456410000000 1.0
C      1  0.5259710000000  0.5061410000000  0.5474290000000 1.0
C      1  0.5247260000000  0.5376810000000  0.4876610000000 1.0
C      1  0.4569410000000  0.5031980000000  0.4845050000000 1.0
C      1  0.5208270000000  0.4613210000000  0.4837710000000 1.0
C      1  0.4529400000000  0.4782360000000  0.4319290000000 1.0
C      1  0.5489410000000  0.4728310000000  0.4348500000000 1.0
C      1  0.5054090000000  0.5581590000000  0.4378860000000 1.0
C      1  0.4707870000000  0.4943890000000  0.5497040000000 1.0
C      1  0.5081620000000  0.4885620000000  0.5346600000000 1.0
C      1  0.5065610000000  0.5262420000000  0.5497660000000 1.0
C      1  0.5283240000000  0.5079770000000  0.4980350000000 1.0
C      1  0.4802830000000  0.5193170000000  0.4994550000000 1.0
C      1  0.4928920000000  0.4722410000000  0.4951800000000 1.0
C      1  0.5545480000000  0.5003110000000  0.4304250000000 1.0
C      1  0.4793900000000  0.5497670000000  0.4303600000000 1.0
C      1  0.4740150000000  0.4601790000000  0.4259770000000 1.0
C      1  0.5490490000000  0.4580020000000  0.5256100000000 1.0
C      1  0.5093410000000  0.5596680000000  0.5291940000000 1.0
C      1  0.4394390000000  0.4769190000000  0.5230010000000 1.0
C      1  0.4407960000000  0.5545480000000  0.5560650000000 1.0
C      1  0.4794350000000  0.4224860000000  0.5530630000000 1.0
C      1  0.5724920000000  0.5179940000000  0.5611310000000 1.0
C      1  0.5671080000000  0.5310500000000  0.4687940000000 1.0
C      1  0.4430990000000  0.5441560000000  0.4650140000000 1.0
C      1  0.4937610000000  0.4304790000000  0.4618340000000 1.0
C      1  0.5808070000000  0.4880750000000  0.4714090000000 1.0
C      1  0.4732050000000  0.5769190000000  0.4718380000000 1.0
C      1  0.4497400000000  0.4397240000000  0.4649950000000 1.0
C      1  0.5793440000000  0.4979790000000  0.4985110000000 1.0
C      1  0.4631160000000  0.5694930000000  0.4978660000000 1.0
C      1  0.4588200000000  0.4339330000000  0.4917830000000 1.0
C      1  0.5238850000000  0.4602710000000  0.4332290000000 1.0
C      1  0.5290020000000  0.5431370000000  0.4373180000000 1.0
C      1  0.4546080000000  0.5061940000000  0.4332940000000 1.0
C      1  0.5329190000000  0.4432470000000  0.5049080000000 1.0
C      1  0.5325150000000  0.5561340000000  0.5104040000000 1.0
C      1  0.4341920000000  0.4994770000000  0.5043670000000 1.0
C      1  0.5343480000000  0.4865990000000  0.4769770000000 1.0
C      1  0.4965200000000  0.5362900000000  0.4789690000000 1.0
C      1  0.4717950000000  0.4798660000000  0.4745980000000 1.0
C      1  0.5446160000000  0.5091070000000  0.5236000000000 1.0
C      1  0.4686800000000  0.5329120000000  0.5234420000000 1.0
C      1  0.4843940000000  0.4563060000000  0.5201470000000 1.0
C      1  0.4122670000000  0.5067180000000  0.4640410000000 1.0
C      1  0.5417520000000  0.4218390000000  0.4638420000000 1.0
C      1  0.5497390000000  0.5765060000000  0.4722580000000 1.0
C      1  0.5646590000000  0.4858330000000  0.5229970000000 1.0
C      1  0.4784310000000  0.5621540000000  0.5237620000000 1.0
C      1  0.4546160000000  0.4496490000000  0.5180830000000 1.0
C      1  0.5728990000000  0.5257600000000  0.4962780000000 1.0
C      1  0.4427390000000  0.5502520000000  0.4930190000000 1.0
C      1  0.4860670000000  0.4260660000000  0.4891190000000 1.0
C      1  0.4384870000000  0.5296370000000  0.5152130000000 1.0
C      1  0.5037840000000  0.4322590000000  0.5134560000000 1.0
C      1  0.5567710000000  0.5374280000000  0.5197120000000 1.0
C      1  0.5287210000000  0.5140510000000  0.4287140000000 1.0
C      1  0.4805650000000  0.5206130000000  0.4277870000000 1.0
C      1  0.4988720000000  0.4757100000000  0.4259560000000 1.0
C      1  0.4303140000000  0.5120730000000  0.5598120000000 1.0
C      1  0.5212020000000  0.4341230000000  0.5586710000000 1.0
C      1  0.5421640000000  0.5484670000000  0.5661040000000 1.0
C      1  0.4705520000000  0.5370150000000  0.5749440000000 1.0
C      1  0.4790570000000  0.4585980000000  0.5715270000000 1.0
C      1  0.5391410000000  0.4986900000000  0.5736470000000 1.0
C      1  0.5030170000000  0.5040960000000  0.4152310000000 1.0
C      1  0.5013210000000  0.4982560000000  0.5075870000000 1.0
END
