TITL C-49257-6266-8 -0.000713042675538232 125000 -49.0298146187861 0 0 8 (D4h) n - 1
REM
REM in /rds/project/t2_vol4/rds-t2-cs072/BORA/CARBON/from-Arr/AIRSS/Generating-Clusters/GAP-ML-2020/Higher-Symm/SD-CG/HFTN-CG
REM
REM
REM
REM
REM
REM ./C.cell (b20cbc046b6831c77cfcea5457e17084)
REM AIRSS Version 0.9.1 bugfix July 2018 build 013d7b7c2542+ Fri, 06 Jul 2018 19:26:36 +0100
REM compiler GCC version 9.3.0
REM options -cpp -mtune=generic -march=x86-64 -g -O0
REM seed 129180819 56710208 1655221789 -945380500 -1680006511 -1451623754 1811856417 -1724492685 -1490133789 -1600781597 1671527845 -1126358699 -422148305 -1173299652 -738988909 77165979 427301884 792000111 -1561574443 -1686715954 818988293 -1648619688 -662655492 -1880270548 -2144355884 -462465446 -1119409817 -769368149 231058756 -1764985395 1534066742 699200949 -1577663339
REM
CELL 1.54180   50.00000   50.00000   50.00000   90.00000   90.00000   90.00000
LATT -1
SFAC C  
C      1  0.4755270000000  0.5258080000000  0.4985750000000 1.0
C      1  0.5244730000000  0.4741920000000  0.4985750000000 1.0
C      1  0.5258080000000  0.5244730000000  0.4985750000000 1.0
C      1  0.4741920000000  0.4755270000000  0.4985750000000 1.0
C      1  0.4685540000000  0.5008350000000  0.4985750000000 1.0
C      1  0.4991650000000  0.4685540000000  0.4985750000000 1.0
C      1  0.5314460000000  0.4991650000000  0.4985750000000 1.0
C      1  0.5008350000000  0.5314460000000  0.4985750000000 1.0
END
