TITL C-49258-4979-8 7.71287323786014 125000 -361.680246243944 0 0 55 (C1) n - 1
REM
REM in /rds/project/t2_vol4/rds-t2-cs072/BORA/CARBON/from-Arr/AIRSS/Generating-Clusters/GAP-ML-2020/Higher-Symm/SD-CG/HFTN-CG
REM
REM
REM
REM
REM
REM ./C.cell (b20cbc046b6831c77cfcea5457e17084)
REM AIRSS Version 0.9.1 bugfix July 2018 build 013d7b7c2542+ Fri, 06 Jul 2018 19:26:36 +0100
REM compiler GCC version 9.3.0
REM options -cpp -mtune=generic -march=x86-64 -g -O0
REM seed 1377449370 558015941 -61321240 554029722 -1945156060 -67255999 321773347 1374601984 -72013765 2127876958 -1403409563 -703979965 -1298005979 -669927918 -447706716 2102167034 -284788251 1850780108 -136188287 1716571843 -14133318 -1768352593 694622991 908586180 134030888 740771730 1384520108 -515311801 -1451634980 1048380841 -711497376 647614478 -1708088674
REM
CELL 1.54180   50.00000   50.00000   50.00000   90.00000   90.00000   90.00000
LATT -1
SFAC C  
C      1  0.4624760000000  0.5402040000000  0.4500120000000 1.0
C      1  0.5373470000000  0.5326040000000  0.4525810000000 1.0
C      1  0.5553940000000  0.5318850000000  0.5222830000000 1.0
C      1  0.4916590000000  0.5277230000000  0.5601330000000 1.0
C      1  0.4396770000000  0.5274650000000  0.5131770000000 1.0
C      1  0.5311170000000  0.4738220000000  0.4464270000000 1.0
C      1  0.4638290000000  0.4612400000000  0.4489610000000 1.0
C      1  0.4444090000000  0.4688650000000  0.5216210000000 1.0
C      1  0.5086640000000  0.4740650000000  0.5596780000000 1.0
C      1  0.5599390000000  0.4750380000000  0.5111410000000 1.0
C      1  0.4773430000000  0.5465360000000  0.5432320000000 1.0
C      1  0.4514140000000  0.5483420000000  0.4954220000000 1.0
C      1  0.4896480000000  0.5454930000000  0.4513820000000 1.0
C      1  0.5435200000000  0.5439110000000  0.4767730000000 1.0
C      1  0.5343340000000  0.5431090000000  0.5352810000000 1.0
C      1  0.5232140000000  0.4559940000000  0.5423130000000 1.0
C      1  0.5483420000000  0.4555240000000  0.4922160000000 1.0
C      1  0.5106900000000  0.4530130000000  0.4521580000000 1.0
C      1  0.4568980000000  0.4561270000000  0.4753200000000 1.0
C      1  0.4658760000000  0.4581880000000  0.5350650000000 1.0
C      1  0.5107360000000  0.4412210000000  0.5223270000000 1.0
C      1  0.4823030000000  0.4414910000000  0.5175920000000 1.0
C      1  0.4788330000000  0.4406630000000  0.4889350000000 1.0
C      1  0.5056550000000  0.4394510000000  0.4766010000000 1.0
C      1  0.5249890000000  0.4406210000000  0.4973950000000 1.0
C      1  0.4903680000000  0.5610080000000  0.5230340000000 1.0
C      1  0.5184100000000  0.5598500000000  0.5175200000000 1.0
C      1  0.5219880000000  0.5599760000000  0.4886580000000 1.0
C      1  0.4958890000000  0.5610300000000  0.4764770000000 1.0
C      1  0.4763510000000  0.5618890000000  0.4982260000000 1.0
C      1  0.4821570000000  0.4800880000000  0.5486260000000 1.0
C      1  0.4464720000000  0.4785910000000  0.4949300000000 1.0
C      1  0.4897600000000  0.4729590000000  0.4471850000000 1.0
C      1  0.5446220000000  0.4777770000000  0.4724040000000 1.0
C      1  0.5394640000000  0.4788780000000  0.5320230000000 1.0
C      1  0.5176420000000  0.5215950000000  0.5484120000000 1.0
C      1  0.5522280000000  0.5227120000000  0.4959010000000 1.0
C      1  0.5113480000000  0.5228050000000  0.4467650000000 1.0
C      1  0.4529600000000  0.5283360000000  0.4741030000000 1.0
C      1  0.4604540000000  0.5238030000000  0.5335420000000 1.0
C      1  0.4942680000000  0.4857210000000  0.4745770000000 1.0
C      1  0.5201560000000  0.4866770000000  0.4861530000000 1.0
C      1  0.5174520000000  0.4868580000000  0.5141300000000 1.0
C      1  0.4898050000000  0.4860220000000  0.5203130000000 1.0
C      1  0.4750230000000  0.4867800000000  0.4956490000000 1.0
C      1  0.5035940000000  0.5148300000000  0.4743290000000 1.0
C      1  0.4777750000000  0.5156080000000  0.4865650000000 1.0
C      1  0.4811040000000  0.5149150000000  0.5145730000000 1.0
C      1  0.5088440000000  0.5157510000000  0.5203750000000 1.0
C      1  0.5227610000000  0.5155420000000  0.4956090000000 1.0
C      1  0.4720650000000  0.5067210000000  0.5566280000000 1.0
C      1  0.5626520000000  0.4954340000000  0.4905690000000 1.0
C      1  0.4365610000000  0.5076660000000  0.4917120000000 1.0
C      1  0.5281150000000  0.4952650000000  0.5562420000000 1.0
C      1  0.5114050000000  0.4935510000000  0.4367440000000 1.0
END
