TITL C-49252-4957-7 0.0258671114461777 125000 -400.554218490428 0 0 58 (C1) n - 1
REM
REM in /rds/project/t2_vol4/rds-t2-cs072/BORA/CARBON/from-Arr/AIRSS/Generating-Clusters/GAP-ML-2020/Higher-Symm/SD-CG/HFTN-CG
REM
REM
REM
REM
REM
REM ./C.cell (b20cbc046b6831c77cfcea5457e17084)
REM AIRSS Version 0.9.1 bugfix July 2018 build 013d7b7c2542+ Fri, 06 Jul 2018 19:26:36 +0100
REM compiler GCC version 9.3.0
REM options -cpp -mtune=generic -march=x86-64 -g -O0
REM seed 1565750107 2139403740 -592067402 -1314786796 -1213036532 -1712983469 -727826318 -1480432440 31615581 319554316 -470040988 1892329613 -894223629 2050870834 -1771424661 -2125505462 789473425 972679870 1850146354 1980017729 -1201458247 -46341901 -514495945 -1834394379 356906871 -212563248 -783958476 2094870471 -1450643327 585507092 -1879989615 1681402102 -1360112755
REM
CELL 1.54180   50.00000   50.00000   50.00000   90.00000   90.00000   90.00000
LATT -1
SFAC C  
C      1  0.5487940000000  0.4574060000000  0.5200130000000 1.0
C      1  0.4602690000000  0.4568590000000  0.5316360000000 1.0
C      1  0.4963770000000  0.4550860000000  0.4483360000000 1.0
C      1  0.4873090000000  0.5120890000000  0.4826960000000 1.0
C      1  0.5265320000000  0.4973510000000  0.4982260000000 1.0
C      1  0.4889900000000  0.5003530000000  0.5249630000000 1.0
C      1  0.5498530000000  0.5380490000000  0.5146400000000 1.0
C      1  0.4628730000000  0.5386740000000  0.5348540000000 1.0
C      1  0.4890490000000  0.5410030000000  0.4485390000000 1.0
C      1  0.4886330000000  0.4817300000000  0.5662780000000 1.0
C      1  0.4522680000000  0.4825310000000  0.4568390000000 1.0
C      1  0.5640140000000  0.4810990000000  0.4777940000000 1.0
C      1  0.5525840000000  0.4575520000000  0.4906600000000 1.0
C      1  0.4840270000000  0.4586010000000  0.5491610000000 1.0
C      1  0.4707610000000  0.4608850000000  0.4636340000000 1.0
C      1  0.4648020000000  0.4992280000000  0.5650370000000 1.0
C      1  0.4652700000000  0.4996020000000  0.4368510000000 1.0
C      1  0.5751800000000  0.4987630000000  0.4983980000000 1.0
C      1  0.4419610000000  0.4914620000000  0.5530930000000 1.0
C      1  0.4848020000000  0.4900470000000  0.4204280000000 1.0
C      1  0.5771640000000  0.4915890000000  0.5243500000000 1.0
C      1  0.5244140000000  0.4415940000000  0.5173890000000 1.0
C      1  0.4748510000000  0.4390930000000  0.5132160000000 1.0
C      1  0.5061800000000  0.4379220000000  0.4708200000000 1.0
C      1  0.5284360000000  0.4404010000000  0.4881090000000 1.0
C      1  0.4987850000000  0.4414960000000  0.5300680000000 1.0
C      1  0.4798130000000  0.4411660000000  0.4849480000000 1.0
C      1  0.5230080000000  0.4979840000000  0.4475880000000 1.0
C      1  0.5349010000000  0.4991700000000  0.5472890000000 1.0
C      1  0.4435300000000  0.4988610000000  0.5056140000000 1.0
C      1  0.5184760000000  0.5422990000000  0.5492050000000 1.0
C      1  0.4492610000000  0.5425630000000  0.4902920000000 1.0
C      1  0.5337680000000  0.5416920000000  0.4599580000000 1.0
C      1  0.4445890000000  0.5282220000000  0.5146850000000 1.0
C      1  0.5149630000000  0.5280970000000  0.4437750000000 1.0
C      1  0.5421680000000  0.5281800000000  0.5411530000000 1.0
C      1  0.4730520000000  0.5266750000000  0.5594020000000 1.0
C      1  0.4639150000000  0.5272960000000  0.4459600000000 1.0
C      1  0.5658020000000  0.5258640000000  0.4941060000000 1.0
C      1  0.4453230000000  0.5267140000000  0.4676440000000 1.0
C      1  0.5554660000000  0.5253800000000  0.4675370000000 1.0
C      1  0.5011810000000  0.5264160000000  0.5647770000000 1.0
C      1  0.4739310000000  0.4953950000000  0.5024530000000 1.0
C      1  0.5086260000000  0.4938800000000  0.4768640000000 1.0
C      1  0.5159140000000  0.4968670000000  0.5229760000000 1.0
C      1  0.5082290000000  0.5563980000000  0.5269040000000 1.0
C      1  0.4726550000000  0.5580960000000  0.4923420000000 1.0
C      1  0.5201230000000  0.5575270000000  0.4791130000000 1.0
C      1  0.5520150000000  0.4988000000000  0.4576420000000 1.0
C      1  0.5118260000000  0.4996670000000  0.5674500000000 1.0
C      1  0.4387290000000  0.4997820000000  0.4755280000000 1.0
C      1  0.5063700000000  0.4774150000000  0.4327660000000 1.0
C      1  0.5559930000000  0.4799290000000  0.5371610000000 1.0
C      1  0.4415840000000  0.4792930000000  0.5286760000000 1.0
C      1  0.4921920000000  0.5581380000000  0.4714950000000 1.0
C      1  0.5281670000000  0.5548280000000  0.5061540000000 1.0
C      1  0.4807380000000  0.5557930000000  0.5200570000000 1.0
C      1  0.4873180000000  0.4733090000000  0.4873100000000 1.0
END
