TITL C-49258-4979-2 -140.524851554244 125000 -791.333743139277 0 0 109 (C1) n - 1
REM
REM in /rds/project/t2_vol4/rds-t2-cs072/BORA/CARBON/from-Arr/AIRSS/Generating-Clusters/GAP-ML-2020/Higher-Symm/SD-CG/HFTN-CG
REM
REM
REM
REM
REM
REM ./C.cell (b20cbc046b6831c77cfcea5457e17084)
REM AIRSS Version 0.9.1 bugfix July 2018 build 013d7b7c2542+ Fri, 06 Jul 2018 19:26:36 +0100
REM compiler GCC version 9.3.0
REM options -cpp -mtune=generic -march=x86-64 -g -O0
REM seed -91136373 599636847 1514306735 -213329830 -639740455 1714496129 1672475010 -1613444544 -1982970654 -343108145 -1291717571 -218913216 -1707488290 -1789634682 408375997 -755109698 -67007147 1650833684 2090555014 867754165 1583802132 1075440214 316723013 2117857927 138697689 853096210 -908944519 2030085070 -1198435755 -1809996196 1116919266 -1765954902 493009897
REM
CELL 1.54180   50.00000   50.00000   50.00000   90.00000   90.00000   90.00000
LATT -1
SFAC C  
C      1  0.4363570000000  0.4852610000000  0.4478430000000 1.0
C      1  0.4667230000000  0.5548990000000  0.4493270000000 1.0
C      1  0.5424350000000  0.5464400000000  0.4493930000000 1.0
C      1  0.5628230000000  0.4710950000000  0.4503080000000 1.0
C      1  0.4935910000000  0.4348590000000  0.4492040000000 1.0
C      1  0.4336850000000  0.4808360000000  0.5491930000000 1.0
C      1  0.4598470000000  0.5480010000000  0.5529150000000 1.0
C      1  0.5476510000000  0.5530130000000  0.5496740000000 1.0
C      1  0.5575640000000  0.4711320000000  0.5529760000000 1.0
C      1  0.4914630000000  0.4316270000000  0.5493760000000 1.0
C      1  0.5037590000000  0.4710330000000  0.5755230000000 1.0
C      1  0.4755520000000  0.4796050000000  0.5761680000000 1.0
C      1  0.4738100000000  0.5079520000000  0.5779850000000 1.0
C      1  0.5144880000000  0.5420890000000  0.5843850000000 1.0
C      1  0.5212090000000  0.4932570000000  0.5759940000000 1.0
C      1  0.5062130000000  0.4765290000000  0.4255630000000 1.0
C      1  0.4795670000000  0.4856390000000  0.4252530000000 1.0
C      1  0.4791720000000  0.5145640000000  0.4235550000000 1.0
C      1  0.5064820000000  0.5237470000000  0.4225260000000 1.0
C      1  0.5491580000000  0.4979270000000  0.4095250000000 1.0
C      1  0.4948110000000  0.5639380000000  0.4488080000000 1.0
C      1  0.5563660000000  0.5194650000000  0.4563040000000 1.0
C      1  0.5434920000000  0.4496600000000  0.4505600000000 1.0
C      1  0.4663430000000  0.4441140000000  0.4483140000000 1.0
C      1  0.4361040000000  0.5143610000000  0.4477140000000 1.0
C      1  0.5042180000000  0.5695500000000  0.5480710000000 1.0
C      1  0.5529330000000  0.5222890000000  0.5453150000000 1.0
C      1  0.5399340000000  0.4469860000000  0.5523570000000 1.0
C      1  0.4638360000000  0.4408350000000  0.5485140000000 1.0
C      1  0.4315900000000  0.5097150000000  0.5513010000000 1.0
C      1  0.4854360000000  0.4714690000000  0.4946360000000 1.0
C      1  0.4880930000000  0.5139260000000  0.4765470000000 1.0
C      1  0.4993080000000  0.5340750000000  0.4943230000000 1.0
C      1  0.5351350000000  0.5085330000000  0.4790500000000 1.0
C      1  0.5088530000000  0.4723990000000  0.4751190000000 1.0
C      1  0.4843650000000  0.4993320000000  0.5331310000000 1.0
C      1  0.4665500000000  0.5119800000000  0.5144200000000 1.0
C      1  0.4866570000000  0.5468170000000  0.5413830000000 1.0
C      1  0.5272840000000  0.5152700000000  0.5277960000000 1.0
C      1  0.5249470000000  0.4856740000000  0.5180910000000 1.0
C      1  0.4590080000000  0.4702960000000  0.4375610000000 1.0
C      1  0.4584290000000  0.5296900000000  0.4364600000000 1.0
C      1  0.5158310000000  0.5467600000000  0.4375740000000 1.0
C      1  0.5574150000000  0.4961850000000  0.4363410000000 1.0
C      1  0.5144210000000  0.4556040000000  0.4453500000000 1.0
C      1  0.4554840000000  0.4654660000000  0.5610160000000 1.0
C      1  0.4528260000000  0.5231660000000  0.5646450000000 1.0
C      1  0.5246180000000  0.5593590000000  0.5653670000000 1.0
C      1  0.5468470000000  0.4956860000000  0.5634890000000 1.0
C      1  0.5126000000000  0.4470640000000  0.5625730000000 1.0
C      1  0.5783600000000  0.5210940000000  0.5290930000000 1.0
C      1  0.5444140000000  0.4288820000000  0.5299640000000 1.0
C      1  0.4479420000000  0.4312030000000  0.5259390000000 1.0
C      1  0.4176090000000  0.5253800000000  0.5295630000000 1.0
C      1  0.5080930000000  0.5882530000000  0.5270640000000 1.0
C      1  0.5818340000000  0.5197600000000  0.4727420000000 1.0
C      1  0.5469890000000  0.4293600000000  0.4709760000000 1.0
C      1  0.4486250000000  0.4323800000000  0.4682130000000 1.0
C      1  0.4209820000000  0.5266620000000  0.4697080000000 1.0
C      1  0.5035710000000  0.5836060000000  0.4690720000000 1.0
C      1  0.5238940000000  0.4172950000000  0.5139640000000 1.0
C      1  0.4297770000000  0.4475420000000  0.5116560000000 1.0
C      1  0.4276160000000  0.5485660000000  0.5158140000000 1.0
C      1  0.5314470000000  0.5851290000000  0.5113770000000 1.0
C      1  0.5858920000000  0.4966070000000  0.5172780000000 1.0
C      1  0.5249320000000  0.4177420000000  0.4844210000000 1.0
C      1  0.4301700000000  0.4484580000000  0.4821360000000 1.0
C      1  0.4301640000000  0.5485090000000  0.4853210000000 1.0
C      1  0.5294340000000  0.5825750000000  0.4819520000000 1.0
C      1  0.5876920000000  0.4962130000000  0.4873520000000 1.0
C      1  0.4573080000000  0.5851260000000  0.4877200000000 1.0
C      1  0.5734310000000  0.5660480000000  0.4831350000000 1.0
C      1  0.5872210000000  0.4507670000000  0.4880430000000 1.0
C      1  0.4820480000000  0.4004770000000  0.4829750000000 1.0
C      1  0.4014440000000  0.4842550000000  0.4828920000000 1.0
C      1  0.4581090000000  0.5842170000000  0.5171370000000 1.0
C      1  0.5743880000000  0.5678770000000  0.5120240000000 1.0
C      1  0.5857290000000  0.4511520000000  0.5171890000000 1.0
C      1  0.4811810000000  0.3996930000000  0.5122580000000 1.0
C      1  0.4011890000000  0.4835470000000  0.5120020000000 1.0
C      1  0.5694900000000  0.4285210000000  0.4869400000000 1.0
C      1  0.4550630000000  0.4094030000000  0.4821580000000 1.0
C      1  0.4017240000000  0.5127350000000  0.4836810000000 1.0
C      1  0.4839510000000  0.5949990000000  0.4855380000000 1.0
C      1  0.5895630000000  0.5423760000000  0.4856540000000 1.0
C      1  0.5680930000000  0.4286180000000  0.5160390000000 1.0
C      1  0.4541910000000  0.4085810000000  0.5115110000000 1.0
C      1  0.4007810000000  0.5119360000000  0.5128120000000 1.0
C      1  0.4845140000000  0.5959540000000  0.5145670000000 1.0
C      1  0.5882800000000  0.5430000000000  0.5148930000000 1.0
C      1  0.5790580000000  0.4731400000000  0.5324280000000 1.0
C      1  0.4991680000000  0.4143970000000  0.5272430000000 1.0
C      1  0.4199580000000  0.4694460000000  0.5264580000000 1.0
C      1  0.4449310000000  0.5640660000000  0.5321220000000 1.0
C      1  0.5519670000000  0.5714780000000  0.5271330000000 1.0
C      1  0.5823380000000  0.4726910000000  0.4723060000000 1.0
C      1  0.5008500000000  0.4154850000000  0.4695250000000 1.0
C      1  0.4207900000000  0.4713530000000  0.4682100000000 1.0
C      1  0.4497160000000  0.5640920000000  0.4717260000000 1.0
C      1  0.5496380000000  0.5674520000000  0.4682930000000 1.0
C      1  0.4690190000000  0.4963450000000  0.4905560000000 1.0
C      1  0.4795590000000  0.5393850000000  0.5125550000000 1.0
C      1  0.4977620000000  0.4782110000000  0.5198130000000 1.0
C      1  0.5259350000000  0.5268620000000  0.5007880000000 1.0
C      1  0.5341050000000  0.4802020000000  0.4922120000000 1.0
C      1  0.5095410000000  0.5004800000000  0.4654880000000 1.0
C      1  0.5016320000000  0.5202820000000  0.5447730000000 1.0
C      1  0.5226050000000  0.4994250000000  0.4177110000000 1.0
C      1  0.5034890000000  0.5174500000000  0.5758280000000 1.0
END
