TITL C-49251-4911-2 12.1734504233624 125000 -90.5151534430924 0 0 14 (C2v) n - 1
REM
REM in /rds/project/t2_vol4/rds-t2-cs072/BORA/CARBON/from-Arr/AIRSS/Generating-Clusters/GAP-ML-2020/Higher-Symm/SD-CG/HFTN-CG
REM
REM
REM
REM
REM
REM ./C.cell (b20cbc046b6831c77cfcea5457e17084)
REM AIRSS Version 0.9.1 bugfix July 2018 build 013d7b7c2542+ Fri, 06 Jul 2018 19:26:36 +0100
REM compiler GCC version 9.3.0
REM options -cpp -mtune=generic -march=x86-64 -g -O0
REM seed -132413393 -876133399 -468186290 498297926 384059013 -572961752 -1476669963 1650678570 -727766392 -1914393178 -909247179 -1928739865 283672416 636900876 -1387788893 -1887202215 -1944327333 1610596886 -777281442 1402360331 -242158998 918445334 -1926894441 1730079889 -30496661 1474545822 -1436046647 -1299127122 63875228 -658405001 1183290580 -1468081868 -501425103
REM
CELL 1.54180   50.00000   50.00000   50.00000   90.00000   90.00000   90.00000
LATT -1
SFAC C  
C      1  0.5262570000000  0.4830020000000  0.4995180000000 1.0
C      1  0.5182170000000  0.5176060000000  0.5169820000000 1.0
C      1  0.4957130000000  0.5308290000000  0.5030220000000 1.0
C      1  0.4720940000000  0.4966980000000  0.5108560000000 1.0
C      1  0.4903980000000  0.4747540000000  0.5107650000000 1.0
C      1  0.4781050000000  0.4857910000000  0.4844020000000 1.0
C      1  0.4743790000000  0.5161580000000  0.4900560000000 1.0
C      1  0.5102380000000  0.5244060000000  0.4788090000000 1.0
C      1  0.5310310000000  0.5102540000000  0.4923710000000 1.0
C      1  0.5036410000000  0.4721570000000  0.4852710000000 1.0
C      1  0.4904030000000  0.5063730000000  0.4681570000000 1.0
C      1  0.4920130000000  0.5115790000000  0.5252010000000 1.0
C      1  0.5165450000000  0.4946330000000  0.4723450000000 1.0
C      1  0.5116940000000  0.4895220000000  0.5236830000000 1.0
END
