TITL C-49233-4968-2 0.0243615960114716 125000 -54.0754552892328 0 0 9 (Cs) n - 1
REM
REM in /rds/project/t2_vol4/rds-t2-cs072/BORA/CARBON/from-Arr/AIRSS/Generating-Clusters/GAP-ML-2020/Higher-Symm/SD-CG/HFTN-CG
REM
REM
REM
REM
REM
REM ./C.cell (b20cbc046b6831c77cfcea5457e17084)
REM AIRSS Version 0.9.1 bugfix July 2018 build 013d7b7c2542+ Fri, 06 Jul 2018 19:26:36 +0100
REM compiler GCC version 9.3.0
REM options -cpp -mtune=generic -march=x86-64 -g -O0
REM seed -1178140402 -531846110 711945115 1834946990 -1224549762 -55728620 1895307571 2001874351 1975313387 -859740514 1019488077 1606581758 -314959189 1270917412 -919464865 1057900375 -1248903227 1874373260 -1050378569 -2066782957 -1063191562 -523625402 -842274763 1203988825 327272871 1143332376 664713855 -1903689975 2147235170 -1581524366 1456894296 1742872319 -258088886
REM
CELL 1.54180   50.00000   50.00000   50.00000   90.00000   90.00000   90.00000
LATT -1
SFAC C  
C      1  0.4789350000000  0.5120640000000  0.4796570000000 1.0
C      1  0.4723030000000  0.4922300000000  0.5002560000000 1.0
C      1  0.4860890000000  0.4693130000000  0.4934550000000 1.0
C      1  0.5082600000000  0.4748360000000  0.4779800000000 1.0
C      1  0.5315860000000  0.4884780000000  0.4878760000000 1.0
C      1  0.5207240000000  0.5148780000000  0.4833510000000 1.0
C      1  0.4974180000000  0.5261520000000  0.4977890000000 1.0
C      1  0.4825300000000  0.5122090000000  0.5182670000000 1.0
C      1  0.5027780000000  0.5005300000000  0.4648860000000 1.0
END
