TITL C-49242-4851-7 62.0546423428742 125000 -261.292087712649 0 0 39 (C1) n - 1
REM
REM in /rds/project/t2_vol4/rds-t2-cs072/BORA/CARBON/from-Arr/AIRSS/Generating-Clusters/GAP-ML-2020/Higher-Symm/SD-CG/HFTN-CG
REM
REM
REM
REM
REM
REM ./C.cell (b20cbc046b6831c77cfcea5457e17084)
REM AIRSS Version 0.9.1 bugfix July 2018 build 013d7b7c2542+ Fri, 06 Jul 2018 19:26:36 +0100
REM compiler GCC version 9.3.0
REM options -cpp -mtune=generic -march=x86-64 -g -O0
REM seed 698790243 -1825817409 1762910120 282135765 -2074032252 -39638689 -397363456 1680531457 924493415 -1751567587 1598112779 -959433857 -29246421 249317677 -1329528893 -1698922009 -849102498 -1522541328 -1284023658 -185259788 1816526277 529610161 -360546070 -1505704068 332959887 1966471499 1032731718 -1511386957 5553682 -218444824 1747625052 -530639896 1328745830
REM
CELL 1.54180   50.00000   50.00000   50.00000   90.00000   90.00000   90.00000
LATT -1
SFAC C  
C      1  0.5200430000000  0.4784220000000  0.4652550000000 1.0
C      1  0.4881050000000  0.4550070000000  0.5539740000000 1.0
C      1  0.4278630000000  0.5191640000000  0.4900280000000 1.0
C      1  0.4454920000000  0.4772710000000  0.4790450000000 1.0
C      1  0.4724980000000  0.5199070000000  0.4700330000000 1.0
C      1  0.5058820000000  0.5685090000000  0.5028480000000 1.0
C      1  0.4501560000000  0.5344050000000  0.4845230000000 1.0
C      1  0.5427180000000  0.4933230000000  0.4771880000000 1.0
C      1  0.5651880000000  0.4841880000000  0.5223360000000 1.0
C      1  0.5329150000000  0.5639610000000  0.5014520000000 1.0
C      1  0.5051850000000  0.4974220000000  0.4483820000000 1.0
C      1  0.5043900000000  0.5010270000000  0.5653430000000 1.0
C      1  0.4958990000000  0.5153080000000  0.5185300000000 1.0
C      1  0.5348520000000  0.4574570000000  0.4988400000000 1.0
C      1  0.5378680000000  0.5216290000000  0.4732040000000 1.0
C      1  0.4983510000000  0.4359250000000  0.4816770000000 1.0
C      1  0.4921790000000  0.5267270000000  0.5630120000000 1.0
C      1  0.5555210000000  0.4929820000000  0.5445960000000 1.0
C      1  0.5230250000000  0.4496040000000  0.4741760000000 1.0
C      1  0.4937410000000  0.4283540000000  0.5084480000000 1.0
C      1  0.5288430000000  0.4982570000000  0.5493660000000 1.0
C      1  0.4710700000000  0.4711290000000  0.4685050000000 1.0
C      1  0.4960690000000  0.4484820000000  0.5273070000000 1.0
C      1  0.5145840000000  0.5229370000000  0.4562980000000 1.0
C      1  0.4924630000000  0.5396720000000  0.4632230000000 1.0
C      1  0.5136700000000  0.4957760000000  0.5258080000000 1.0
C      1  0.5560760000000  0.4773260000000  0.4971410000000 1.0
C      1  0.4654720000000  0.5554280000000  0.4977740000000 1.0
C      1  0.5434010000000  0.5449030000000  0.4877910000000 1.0
C      1  0.4259420000000  0.4924530000000  0.4847600000000 1.0
C      1  0.4796430000000  0.4443440000000  0.4637060000000 1.0
C      1  0.4957020000000  0.4819570000000  0.4886780000000 1.0
C      1  0.5103520000000  0.4704320000000  0.5122390000000 1.0
C      1  0.4891820000000  0.5359610000000  0.5371710000000 1.0
C      1  0.4826920000000  0.5594900000000  0.5212830000000 1.0
C      1  0.4773560000000  0.4963910000000  0.4525940000000 1.0
C      1  0.4858610000000  0.5071360000000  0.4947910000000 1.0
C      1  0.4909300000000  0.4758910000000  0.5683750000000 1.0
C      1  0.4888230000000  0.5614440000000  0.4802990000000 1.0
END
