TITL C-49250-4842-6 -16.20588452582 125000 -212.712713136236 0 0 32 (D2d) n - 1
REM
REM in /rds/project/t2_vol4/rds-t2-cs072/BORA/CARBON/from-Arr/AIRSS/Generating-Clusters/GAP-ML-2020/Higher-Symm/SD-CG/HFTN-CG
REM
REM
REM
REM
REM
REM ./C.cell (b20cbc046b6831c77cfcea5457e17084)
REM AIRSS Version 0.9.1 bugfix July 2018 build 013d7b7c2542+ Fri, 06 Jul 2018 19:26:36 +0100
REM compiler GCC version 9.3.0
REM options -cpp -mtune=generic -march=x86-64 -g -O0
REM seed 1213895368 1787728900 1237339834 -1612228118 -2090778800 2002097339 977628146 624265583 -485017168 2019008106 -36234430 -1189041963 1451058102 -1042388832 1503774001 -896687618 -1849919902 1469880971 -132956188 -1567967414 -1441695139 399488459 -230823627 1368033377 -1978428001 -1044797747 2043248960 -1524016471 -241487777 1836848389 -1071563507 -1999983319 -1477455451
REM
CELL 1.54180   50.00000   50.00000   50.00000   90.00000   90.00000   90.00000
LATT -1
SFAC C  
C      1  0.4582250000000  0.4695870000000  0.4617670000000 1.0
C      1  0.4691370000000  0.5416720000000  0.5379830000000 1.0
C      1  0.5421190000000  0.5309620000000  0.4625950000000 1.0
C      1  0.5305180000000  0.4577790000000  0.5376540000000 1.0
C      1  0.4381250000000  0.5145310000000  0.5110240000000 1.0
C      1  0.5146620000000  0.5619010000000  0.4893160000000 1.0
C      1  0.5617730000000  0.4853060000000  0.5113740000000 1.0
C      1  0.4854400000000  0.4382610000000  0.4882860000000 1.0
C      1  0.4947630000000  0.5526200000000  0.5365990000000 1.0
C      1  0.5530500000000  0.5053320000000  0.4640390000000 1.0
C      1  0.5049070000000  0.4468540000000  0.5358780000000 1.0
C      1  0.4472790000000  0.4951940000000  0.4634840000000 1.0
C      1  0.4367050000000  0.5048700000000  0.4885470000000 1.0
C      1  0.5047360000000  0.5632610000000  0.5116810000000 1.0
C      1  0.5633970000000  0.4952920000000  0.4890540000000 1.0
C      1  0.4951620000000  0.4365760000000  0.5107180000000 1.0
C      1  0.4793240000000  0.4513960000000  0.4633120000000 1.0
C      1  0.4509650000000  0.5205780000000  0.5361670000000 1.0
C      1  0.5210060000000  0.5491300000000  0.4642110000000 1.0
C      1  0.5487050000000  0.4788950000000  0.5363090000000 1.0
C      1  0.4566550000000  0.4990500000000  0.5525370000000 1.0
C      1  0.4996720000000  0.5434850000000  0.4475730000000 1.0
C      1  0.5428650000000  0.5001840000000  0.5529380000000 1.0
C      1  0.5008080000000  0.4572810000000  0.4469520000000 1.0
C      1  0.4593300000000  0.5139730000000  0.4471750000000 1.0
C      1  0.5133480000000  0.5405240000000  0.5530970000000 1.0
C      1  0.5411500000000  0.4867930000000  0.4473500000000 1.0
C      1  0.4861720000000  0.4587100000000  0.5523790000000 1.0
C      1  0.4688910000000  0.4770150000000  0.5573990000000 1.0
C      1  0.4776950000000  0.5312650000000  0.4424180000000 1.0
C      1  0.5305830000000  0.5221470000000  0.5580080000000 1.0
C      1  0.5228310000000  0.4695730000000  0.4421760000000 1.0
END
