TITL C-49237-4939-5 0.208324634336757 125000 -515.395999274728 0 0 75 (C1) n - 1
REM
REM in /rds/project/t2_vol4/rds-t2-cs072/BORA/CARBON/from-Arr/AIRSS/Generating-Clusters/GAP-ML-2020/Higher-Symm/SD-CG/HFTN-CG
REM
REM
REM
REM
REM
REM ./C.cell (b20cbc046b6831c77cfcea5457e17084)
REM AIRSS Version 0.9.1 bugfix July 2018 build 013d7b7c2542+ Fri, 06 Jul 2018 19:26:36 +0100
REM compiler GCC version 9.3.0
REM options -cpp -mtune=generic -march=x86-64 -g -O0
REM seed -794171208 -1323402519 -18417734 20049126 -479394163 -1985525589 2010128007 1286721706 -769367449 101191648 1272991078 1490176435 -604859883 1740400445 -70921960 -789593116 -573710521 -501493708 -490343423 -396670699 -480257917 -128255454 -497449744 337891013 936868390 -2118763157 -625641187 623736531 1225763319 -333337532 -1483520657 2130846882 -1021222457
REM
CELL 1.54180   50.00000   50.00000   50.00000   90.00000   90.00000   90.00000
LATT -1
SFAC C  
C      1  0.5708350000000  0.5270980000000  0.4890850000000 1.0
C      1  0.5644640000000  0.5103240000000  0.4661930000000 1.0
C      1  0.5678900000000  0.4823820000000  0.4664480000000 1.0
C      1  0.5726360000000  0.4674750000000  0.4913040000000 1.0
C      1  0.5714920000000  0.4818730000000  0.5339720000000 1.0
C      1  0.5677900000000  0.5101500000000  0.5400640000000 1.0
C      1  0.5700750000000  0.5284890000000  0.5190050000000 1.0
C      1  0.4603660000000  0.5667270000000  0.4829630000000 1.0
C      1  0.4578910000000  0.5276180000000  0.4432170000000 1.0
C      1  0.4545000000000  0.4762510000000  0.4394600000000 1.0
C      1  0.4585070000000  0.4341720000000  0.4774080000000 1.0
C      1  0.4571080000000  0.4376280000000  0.5353220000000 1.0
C      1  0.4583010000000  0.4901050000000  0.5611920000000 1.0
C      1  0.4580710000000  0.5727010000000  0.5356910000000 1.0
C      1  0.4523030000000  0.4409680000000  0.5051990000000 1.0
C      1  0.4531880000000  0.4671160000000  0.5428890000000 1.0
C      1  0.4523810000000  0.5143880000000  0.5473100000000 1.0
C      1  0.4535170000000  0.5580690000000  0.5116780000000 1.0
C      1  0.4545790000000  0.5416200000000  0.4691940000000 1.0
C      1  0.4447760000000  0.5025620000000  0.4457770000000 1.0
C      1  0.4511810000000  0.4602150000000  0.4635180000000 1.0
C      1  0.4285360000000  0.5177270000000  0.5319350000000 1.0
C      1  0.4327170000000  0.5359520000000  0.5096920000000 1.0
C      1  0.4330050000000  0.5273480000000  0.4831450000000 1.0
C      1  0.4302920000000  0.5014550000000  0.4704320000000 1.0
C      1  0.4310580000000  0.4735400000000  0.4789880000000 1.0
C      1  0.4313180000000  0.4608070000000  0.5039420000000 1.0
C      1  0.4275720000000  0.4731840000000  0.5287790000000 1.0
C      1  0.5449580000000  0.4752240000000  0.5438960000000 1.0
C      1  0.5420540000000  0.5045990000000  0.5522870000000 1.0
C      1  0.5487880000000  0.5485480000000  0.5174490000000 1.0
C      1  0.5502410000000  0.5479860000000  0.4885610000000 1.0
C      1  0.5405130000000  0.5207720000000  0.4532960000000 1.0
C      1  0.5452960000000  0.4655660000000  0.4618660000000 1.0
C      1  0.5480250000000  0.4521750000000  0.4883920000000 1.0
C      1  0.4799340000000  0.5414680000000  0.5132780000000 1.0
C      1  0.4826530000000  0.5303880000000  0.4842510000000 1.0
C      1  0.4858030000000  0.5008970000000  0.4874770000000 1.0
C      1  0.4811020000000  0.4731450000000  0.4767350000000 1.0
C      1  0.4809900000000  0.4557520000000  0.5017670000000 1.0
C      1  0.4812960000000  0.4707920000000  0.5267700000000 1.0
C      1  0.4780880000000  0.5206360000000  0.5342520000000 1.0
C      1  0.4951750000000  0.4141680000000  0.5231870000000 1.0
C      1  0.4971010000000  0.4720770000000  0.5706900000000 1.0
C      1  0.4866410000000  0.5498560000000  0.5700050000000 1.0
C      1  0.5015740000000  0.5821050000000  0.5041090000000 1.0
C      1  0.4949640000000  0.5514920000000  0.4405450000000 1.0
C      1  0.4894830000000  0.4877780000000  0.4065530000000 1.0
C      1  0.4967480000000  0.4331910000000  0.4515930000000 1.0
C      1  0.4826990000000  0.5305340000000  0.4293590000000 1.0
C      1  0.4802390000000  0.4738220000000  0.4279370000000 1.0
C      1  0.4860780000000  0.4239470000000  0.4740210000000 1.0
C      1  0.4838150000000  0.4293190000000  0.5422430000000 1.0
C      1  0.4843510000000  0.4954380000000  0.5710810000000 1.0
C      1  0.4814510000000  0.5668760000000  0.5496660000000 1.0
C      1  0.4886780000000  0.5745170000000  0.4819090000000 1.0
C      1  0.5001740000000  0.4556420000000  0.5469330000000 1.0
C      1  0.4950560000000  0.5231610000000  0.5608820000000 1.0
C      1  0.5015150000000  0.5612950000000  0.5246050000000 1.0
C      1  0.5026120000000  0.5508680000000  0.4676940000000 1.0
C      1  0.4998970000000  0.5079970000000  0.4226370000000 1.0
C      1  0.4978950000000  0.4624940000000  0.4500330000000 1.0
C      1  0.5012270000000  0.4311580000000  0.5006870000000 1.0
C      1  0.5282940000000  0.4445600000000  0.5073750000000 1.0
C      1  0.5271150000000  0.4557550000000  0.5340150000000 1.0
C      1  0.5231250000000  0.5253290000000  0.5520730000000 1.0
C      1  0.5258970000000  0.5467700000000  0.5334110000000 1.0
C      1  0.5315620000000  0.5440290000000  0.4675120000000 1.0
C      1  0.5239950000000  0.5024270000000  0.4386470000000 1.0
C      1  0.5241340000000  0.4753930000000  0.4473150000000 1.0
C      1  0.5863270000000  0.4770990000000  0.5119640000000 1.0
C      1  0.5341010000000  0.4984280000000  0.5016760000000 1.0
C      1  0.4871190000000  0.4974190000000  0.5194180000000 1.0
C      1  0.4119880000000  0.4954360000000  0.5340620000000 1.0
C      1  0.5090140000000  0.4999970000000  0.5019620000000 1.0
END
