TITL C-49241-4879-3 435.266089004183 125000 -1257.85073006903 0 0 180 (C2) n - 1
REM
REM in /rds/project/t2_vol4/rds-t2-cs072/BORA/CARBON/from-Arr/AIRSS/Generating-Clusters/GAP-ML-2020/Higher-Symm/SD-CG/HFTN-CG
REM
REM
REM
REM
REM
REM ./C.cell (b20cbc046b6831c77cfcea5457e17084)
REM AIRSS Version 0.9.1 bugfix July 2018 build 013d7b7c2542+ Fri, 06 Jul 2018 19:26:36 +0100
REM compiler GCC version 9.3.0
REM options -cpp -mtune=generic -march=x86-64 -g -O0
REM seed 860162971 707950494 -1954928746 -1759185146 -609217592 -2048233082 -1175024557 1707115634 -2049292084 -1298896569 -1956354567 1169223225 -1773643965 -1924156029 693087137 781891716 1981246134 1354670179 764354237 -1238727025 -313910387 1115525379 -1399120617 -141378659 -494857310 -949420784 748476331 -1042528026 -212352149 -2045551285 1661644248 -885595806 516442590
REM
CELL 1.54180   50.00000   50.00000   50.00000   90.00000   90.00000   90.00000
LATT -1
SFAC C  
C      1  0.5118530000000  0.5637920000000  0.4075720000000 1.0
C      1  0.5116520000000  0.4970390000000  0.3879620000000 1.0
C      1  0.5124310000000  0.4317850000000  0.4105200000000 1.0
C      1  0.5115110000000  0.3928600000000  0.4679620000000 1.0
C      1  0.5123060000000  0.3937910000000  0.5369750000000 1.0
C      1  0.5118540000000  0.4362080000000  0.5924280000000 1.0
C      1  0.5116530000000  0.5029610000000  0.6120380000000 1.0
C      1  0.5124310000000  0.5682150000000  0.5894800000000 1.0
C      1  0.5115110000000  0.6071400000000  0.5320380000000 1.0
C      1  0.5123060000000  0.6062090000000  0.4630250000000 1.0
C      1  0.4460660000000  0.5853340000000  0.5257040000000 1.0
C      1  0.4490560000000  0.5844650000000  0.4699070000000 1.0
C      1  0.4468310000000  0.5512350000000  0.4250060000000 1.0
C      1  0.4468440000000  0.4962370000000  0.4109370000000 1.0
C      1  0.4484600000000  0.4441830000000  0.4295210000000 1.0
C      1  0.4460660000000  0.4146660000000  0.4742960000000 1.0
C      1  0.4490570000000  0.4155350000000  0.5300940000000 1.0
C      1  0.4468310000000  0.4487650000000  0.5749940000000 1.0
C      1  0.4468450000000  0.5037630000000  0.5890630000000 1.0
C      1  0.4484600000000  0.5558170000000  0.5704790000000 1.0
C      1  0.5359660000000  0.4118270000000  0.5342050000000 1.0
C      1  0.5365910000000  0.4476000000000  0.5803840000000 1.0
C      1  0.5365860000000  0.5059920000000  0.5957040000000 1.0
C      1  0.5366010000000  0.5599840000000  0.5743390000000 1.0
C      1  0.5364100000000  0.5925510000000  0.5242830000000 1.0
C      1  0.5359650000000  0.5881730000000  0.4657950000000 1.0
C      1  0.5365900000000  0.5524010000000  0.4196150000000 1.0
C      1  0.5365850000000  0.4940080000000  0.4042960000000 1.0
C      1  0.5366010000000  0.4400160000000  0.4256610000000 1.0
C      1  0.5364100000000  0.4074490000000  0.4757160000000 1.0
C      1  0.5206340000000  0.4928470000000  0.4290990000000 1.0
C      1  0.5200920000000  0.4538760000000  0.4461270000000 1.0
C      1  0.5204840000000  0.4304400000000  0.4844300000000 1.0
C      1  0.5186410000000  0.4354010000000  0.5275910000000 1.0
C      1  0.5206550000000  0.4631430000000  0.5613440000000 1.0
C      1  0.5206350000000  0.5071530000000  0.5709010000000 1.0
C      1  0.5200920000000  0.5461240000000  0.5538730000000 1.0
C      1  0.5204840000000  0.5695600000000  0.5155700000000 1.0
C      1  0.5186400000000  0.5645990000000  0.4724080000000 1.0
C      1  0.5206540000000  0.5368570000000  0.4386560000000 1.0
C      1  0.4929300000000  0.5749140000000  0.4287510000000 1.0
C      1  0.4925990000000  0.5178270000000  0.3998750000000 1.0
C      1  0.4930810000000  0.4551630000000  0.4069740000000 1.0
C      1  0.4929260000000  0.4101750000000  0.4513540000000 1.0
C      1  0.4930810000000  0.3976410000000  0.5135670000000 1.0
C      1  0.4929300000000  0.4250860000000  0.5712490000000 1.0
C      1  0.4926000000000  0.4821730000000  0.6001250000000 1.0
C      1  0.4930810000000  0.5448370000000  0.5930260000000 1.0
C      1  0.4929260000000  0.5898250000000  0.5486460000000 1.0
C      1  0.4930800000000  0.6023590000000  0.4864330000000 1.0
C      1  0.5868260000000  0.5683590000000  0.4740860000000 1.0
C      1  0.5868410000000  0.5401280000000  0.4386950000000 1.0
C      1  0.5871130000000  0.4964450000000  0.4266760000000 1.0
C      1  0.5871330000000  0.4541110000000  0.4427860000000 1.0
C      1  0.5869060000000  0.4293720000000  0.4807230000000 1.0
C      1  0.5868270000000  0.4316420000000  0.5259130000000 1.0
C      1  0.5868420000000  0.4598720000000  0.5613040000000 1.0
C      1  0.5871140000000  0.5035560000000  0.5733230000000 1.0
C      1  0.5871330000000  0.5458890000000  0.5572130000000 1.0
C      1  0.5869050000000  0.5706290000000  0.5192760000000 1.0
C      1  0.5512180000000  0.5245890000000  0.4077880000000 1.0
C      1  0.5515000000000  0.4656160000000  0.4104880000000 1.0
C      1  0.5511390000000  0.4202550000000  0.4479990000000 1.0
C      1  0.5508060000000  0.4052850000000  0.5050640000000 1.0
C      1  0.5509090000000  0.4258100000000  0.5596730000000 1.0
C      1  0.5512190000000  0.4754110000000  0.5922120000000 1.0
C      1  0.5515010000000  0.5343850000000  0.5895110000000 1.0
C      1  0.5511390000000  0.5797460000000  0.5520000000000 1.0
C      1  0.5508060000000  0.5947150000000  0.4949350000000 1.0
C      1  0.5509080000000  0.5741900000000  0.4403270000000 1.0
C      1  0.5365470000000  0.5224460000000  0.4621830000000 1.0
C      1  0.5361590000000  0.4959820000000  0.4565810000000 1.0
C      1  0.5357620000000  0.4713640000000  0.4674240000000 1.0
C      1  0.5364820000000  0.4573230000000  0.4905040000000 1.0
C      1  0.5341180000000  0.4604300000000  0.5171700000000 1.0
C      1  0.5365470000000  0.4775540000000  0.5378170000000 1.0
C      1  0.5361590000000  0.5040180000000  0.5434190000000 1.0
C      1  0.5357620000000  0.5286360000000  0.5325750000000 1.0
C      1  0.5364820000000  0.5426770000000  0.5094960000000 1.0
C      1  0.5341180000000  0.5395700000000  0.4828290000000 1.0
C      1  0.4716150000000  0.6000240000000  0.4654840000000 1.0
C      1  0.4706300000000  0.5605380000000  0.4137120000000 1.0
C      1  0.4705530000000  0.4970190000000  0.3962590000000 1.0
C      1  0.4713470000000  0.4359970000000  0.4158630000000 1.0
C      1  0.4703020000000  0.4009670000000  0.4696010000000 1.0
C      1  0.4716160000000  0.3999760000000  0.5345160000000 1.0
C      1  0.4706310000000  0.4394620000000  0.5862880000000 1.0
C      1  0.4705540000000  0.5029810000000  0.6037410000000 1.0
C      1  0.4713480000000  0.5640030000000  0.5841370000000 1.0
C      1  0.4703020000000  0.5990330000000  0.5303990000000 1.0
C      1  0.4374120000000  0.5136030000000  0.4558930000000 1.0
C      1  0.4492230000000  0.4859010000000  0.4584350000000 1.0
C      1  0.4381670000000  0.4731800000000  0.4833750000000 1.0
C      1  0.4507950000000  0.4550120000000  0.5022410000000 1.0
C      1  0.4496910000000  0.4630470000000  0.5316710000000 1.0
C      1  0.4374130000000  0.4863970000000  0.5441080000000 1.0
C      1  0.4492230000000  0.5140990000000  0.5415650000000 1.0
C      1  0.4381670000000  0.5268200000000  0.5166260000000 1.0
C      1  0.4507940000000  0.5449870000000  0.4977600000000 1.0
C      1  0.4496910000000  0.5369530000000  0.4683300000000 1.0
C      1  0.5007270000000  0.4717140000000  0.4329880000000 1.0
C      1  0.5024840000000  0.4386370000000  0.4629560000000 1.0
C      1  0.5007450000000  0.4279140000000  0.5058290000000 1.0
C      1  0.5007870000000  0.4455540000000  0.5479860000000 1.0
C      1  0.5028920000000  0.4842150000000  0.5700860000000 1.0
C      1  0.5007270000000  0.5282860000000  0.5670120000000 1.0
C      1  0.5024840000000  0.5613630000000  0.5370440000000 1.0
C      1  0.5007440000000  0.5720860000000  0.4941710000000 1.0
C      1  0.5007870000000  0.5544460000000  0.4520140000000 1.0
C      1  0.5028920000000  0.5157860000000  0.4299140000000 1.0
C      1  0.4104470000000  0.5311360000000  0.5622520000000 1.0
C      1  0.4129270000000  0.5533500000000  0.5435290000000 1.0
C      1  0.4109690000000  0.5699950000000  0.4895170000000 1.0
C      1  0.4111270000000  0.5613960000000  0.4619920000000 1.0
C      1  0.4084510000000  0.5220070000000  0.4251720000000 1.0
C      1  0.4104470000000  0.4688630000000  0.4377490000000 1.0
C      1  0.4129260000000  0.4466490000000  0.4564710000000 1.0
C      1  0.4109700000000  0.4300050000000  0.5104830000000 1.0
C      1  0.4111270000000  0.4386030000000  0.5380090000000 1.0
C      1  0.4084520000000  0.4779920000000  0.5748290000000 1.0
C      1  0.4369580000000  0.5222050000000  0.4233490000000 1.0
C      1  0.4383010000000  0.4731730000000  0.4290380000000 1.0
C      1  0.4360630000000  0.4315070000000  0.4526760000000 1.0
C      1  0.4386570000000  0.4239620000000  0.5026150000000 1.0
C      1  0.4387360000000  0.4384690000000  0.5474290000000 1.0
C      1  0.4369590000000  0.4777950000000  0.5766520000000 1.0
C      1  0.4383020000000  0.5268270000000  0.5709630000000 1.0
C      1  0.4360630000000  0.5684920000000  0.5473250000000 1.0
C      1  0.4386570000000  0.5760380000000  0.4973860000000 1.0
C      1  0.4387360000000  0.5615300000000  0.4525710000000 1.0
C      1  0.4058460000000  0.5136680000000  0.4547850000000 1.0
C      1  0.3984580000000  0.4860070000000  0.4576170000000 1.0
C      1  0.4080090000000  0.4677640000000  0.4798780000000 1.0
C      1  0.3965070000000  0.4550060000000  0.5032160000000 1.0
C      1  0.3962180000000  0.4627070000000  0.5311200000000 1.0
C      1  0.4058470000000  0.4863310000000  0.5452160000000 1.0
C      1  0.3984590000000  0.5139930000000  0.5423830000000 1.0
C      1  0.4080090000000  0.5322350000000  0.5201230000000 1.0
C      1  0.3965070000000  0.5449940000000  0.4967850000000 1.0
C      1  0.3962180000000  0.5372930000000  0.4688810000000 1.0
C      1  0.5996410000000  0.4706950000000  0.4634440000000 1.0
C      1  0.5995970000000  0.4548810000000  0.4876660000000 1.0
C      1  0.5994040000000  0.4563340000000  0.5165800000000 1.0
C      1  0.5995760000000  0.4743760000000  0.5392130000000 1.0
C      1  0.5996900000000  0.5022570000000  0.5468540000000 1.0
C      1  0.5996410000000  0.5293050000000  0.5365550000000 1.0
C      1  0.5995970000000  0.5451200000000  0.5123340000000 1.0
C      1  0.5994030000000  0.5436670000000  0.4834190000000 1.0
C      1  0.5995760000000  0.5256240000000  0.4607860000000 1.0
C      1  0.5996900000000  0.4977440000000  0.4531450000000 1.0
C      1  0.4810520000000  0.4646590000000  0.5321730000000 1.0
C      1  0.4885150000000  0.4898470000000  0.5442780000000 1.0
C      1  0.4801250000000  0.5176580000000  0.5423890000000 1.0
C      1  0.4873330000000  0.5391670000000  0.5238570000000 1.0
C      1  0.4815110000000  0.5466110000000  0.4969180000000 1.0
C      1  0.4810520000000  0.5353410000000  0.4678270000000 1.0
C      1  0.4885140000000  0.5101530000000  0.4557220000000 1.0
C      1  0.4801250000000  0.4823420000000  0.4576110000000 1.0
C      1  0.4873330000000  0.4608330000000  0.4761440000000 1.0
C      1  0.4815120000000  0.4533890000000  0.5030820000000 1.0
C      1  0.5760430000000  0.5832070000000  0.4960430000000 1.0
C      1  0.5760420000000  0.5650070000000  0.4478120000000 1.0
C      1  0.5762790000000  0.5219280000000  0.4192510000000 1.0
C      1  0.5764560000000  0.4703910000000  0.4217870000000 1.0
C      1  0.5762490000000  0.4301840000000  0.4541770000000 1.0
C      1  0.5760440000000  0.4167930000000  0.5039560000000 1.0
C      1  0.5760430000000  0.4349940000000  0.5521880000000 1.0
C      1  0.5762800000000  0.4780730000000  0.5807480000000 1.0
C      1  0.5764570000000  0.5296100000000  0.5782120000000 1.0
C      1  0.5762490000000  0.5698160000000  0.5458220000000 1.0
C      1  0.4904920000000  0.5225330000000  0.6119230000000 1.0
C      1  0.4914380000000  0.5839280000000  0.5776220000000 1.0
C      1  0.4899730000000  0.6126820000000  0.5136850000000 1.0
C      1  0.4913280000000  0.6001750000000  0.4441660000000 1.0
C      1  0.4904580000000  0.5474930000000  0.3970680000000 1.0
C      1  0.4904920000000  0.4774670000000  0.3880770000000 1.0
C      1  0.4914380000000  0.4160720000000  0.4223790000000 1.0
C      1  0.4899740000000  0.3873180000000  0.4863150000000 1.0
C      1  0.4913290000000  0.3998250000000  0.5558340000000 1.0
C      1  0.4904590000000  0.4525070000000  0.6029320000000 1.0
END
