TITL C-49251-4911-11 -0.0502989692340859 125000 -809.210149169902 0 0 115 (C1) n - 1
REM
REM in /rds/project/t2_vol4/rds-t2-cs072/BORA/CARBON/from-Arr/AIRSS/Generating-Clusters/GAP-ML-2020/Higher-Symm/SD-CG/HFTN-CG
REM
REM
REM
REM
REM
REM ./C.cell (b20cbc046b6831c77cfcea5457e17084)
REM AIRSS Version 0.9.1 bugfix July 2018 build 013d7b7c2542+ Fri, 06 Jul 2018 19:26:36 +0100
REM compiler GCC version 9.3.0
REM options -cpp -mtune=generic -march=x86-64 -g -O0
REM seed 731447 1650361595 -1650952519 -1280274651 1467681475 1356936071 477580195 -286710212 -1265450142 1032692919 -1426163851 -77936484 1089720132 -1669825633 20178880 976258015 2127029382 1075766438 -764928622 1852915355 748089405 -1168546855 -1010171492 344652249 20732141 -687661922 1757083626 -1865851196 1967203802 -1466483902 -514162734 670661703 -2022861012
REM
CELL 1.54180   50.00000   50.00000   50.00000   90.00000   90.00000   90.00000
LATT -1
SFAC C  
C      1  0.4857070000000  0.4873030000000  0.5943790000000 1.0
C      1  0.4845900000000  0.5923680000000  0.5119590000000 1.0
C      1  0.4828420000000  0.5118620000000  0.4064300000000 1.0
C      1  0.4828900000000  0.4061230000000  0.4897900000000 1.0
C      1  0.5152450000000  0.4872310000000  0.5946100000000 1.0
C      1  0.5137660000000  0.5926140000000  0.5117840000000 1.0
C      1  0.5122080000000  0.5118720000000  0.4053610000000 1.0
C      1  0.5122210000000  0.4055170000000  0.4889710000000 1.0
C      1  0.5731880000000  0.5607810000000  0.4774120000000 1.0
C      1  0.5724040000000  0.4778610000000  0.4374030000000 1.0
C      1  0.5731750000000  0.4398930000000  0.5210130000000 1.0
C      1  0.5754940000000  0.5226700000000  0.5600700000000 1.0
C      1  0.4239680000000  0.5599700000000  0.4790780000000 1.0
C      1  0.4223950000000  0.4776270000000  0.4408810000000 1.0
C      1  0.4233740000000  0.4396690000000  0.5238710000000 1.0
C      1  0.4248590000000  0.5220890000000  0.5618440000000 1.0
C      1  0.5866810000000  0.5136960000000  0.5331990000000 1.0
C      1  0.5845770000000  0.5343860000000  0.4844460000000 1.0
C      1  0.5838530000000  0.4863540000000  0.4630950000000 1.0
C      1  0.5843610000000  0.4659670000000  0.5116910000000 1.0
C      1  0.4119000000000  0.5133590000000  0.5362650000000 1.0
C      1  0.4114690000000  0.5342100000000  0.4879280000000 1.0
C      1  0.4106010000000  0.4865630000000  0.4669720000000 1.0
C      1  0.4109550000000  0.4656080000000  0.5153710000000 1.0
C      1  0.4823610000000  0.4880750000000  0.4467470000000 1.0
C      1  0.4833030000000  0.4483920000000  0.5106040000000 1.0
C      1  0.4846270000000  0.5101910000000  0.5532940000000 1.0
C      1  0.4843900000000  0.5502410000000  0.4903230000000 1.0
C      1  0.5131750000000  0.4871860000000  0.4450310000000 1.0
C      1  0.5139960000000  0.4478570000000  0.5098060000000 1.0
C      1  0.5151730000000  0.5108780000000  0.5551170000000 1.0
C      1  0.5151690000000  0.5501310000000  0.4904020000000 1.0
C      1  0.5559300000000  0.5693180000000  0.4976640000000 1.0
C      1  0.5568490000000  0.4992560000000  0.4270620000000 1.0
C      1  0.5550010000000  0.4306180000000  0.5018470000000 1.0
C      1  0.5576750000000  0.5028940000000  0.5694780000000 1.0
C      1  0.4429420000000  0.5671680000000  0.4983030000000 1.0
C      1  0.4408740000000  0.4970440000000  0.4324790000000 1.0
C      1  0.4415650000000  0.4320900000000  0.5040890000000 1.0
C      1  0.4433030000000  0.5023290000000  0.5694970000000 1.0
C      1  0.5724850000000  0.4328380000000  0.5474280000000 1.0
C      1  0.5734650000000  0.5492650000000  0.5674190000000 1.0
C      1  0.5696840000000  0.5685510000000  0.4518220000000 1.0
C      1  0.5665390000000  0.4519420000000  0.4309010000000 1.0
C      1  0.4271650000000  0.4324180000000  0.5499680000000 1.0
C      1  0.4272910000000  0.5485250000000  0.5685680000000 1.0
C      1  0.4267540000000  0.5672530000000  0.4528680000000 1.0
C      1  0.4241530000000  0.4510260000000  0.4343220000000 1.0
C      1  0.5127110000000  0.5399700000000  0.4144030000000 1.0
C      1  0.5111670000000  0.4111980000000  0.4596340000000 1.0
C      1  0.5148700000000  0.4588270000000  0.5856900000000 1.0
C      1  0.5140770000000  0.5864840000000  0.5409660000000 1.0
C      1  0.4838710000000  0.5403920000000  0.4148540000000 1.0
C      1  0.4821210000000  0.4125310000000  0.4608350000000 1.0
C      1  0.4859120000000  0.4588140000000  0.5860970000000 1.0
C      1  0.4850230000000  0.5856930000000  0.5409150000000 1.0
C      1  0.4418390000000  0.5465540000000  0.5197290000000 1.0
C      1  0.4408060000000  0.5183910000000  0.4533260000000 1.0
C      1  0.4400030000000  0.4526500000000  0.4826210000000 1.0
C      1  0.4418310000000  0.4810110000000  0.5487560000000 1.0
C      1  0.5584660000000  0.5495820000000  0.5194620000000 1.0
C      1  0.5681740000000  0.5224990000000  0.4395960000000 1.0
C      1  0.5562610000000  0.4496630000000  0.4794040000000 1.0
C      1  0.5584750000000  0.4811750000000  0.5492180000000 1.0
C      1  0.4722790000000  0.5488460000000  0.4387450000000 1.0
C      1  0.4698530000000  0.4361980000000  0.4519740000000 1.0
C      1  0.4732540000000  0.4505510000000  0.5626070000000 1.0
C      1  0.4729180000000  0.5620120000000  0.5498030000000 1.0
C      1  0.5267870000000  0.5468960000000  0.4377980000000 1.0
C      1  0.5237950000000  0.4336620000000  0.4493710000000 1.0
C      1  0.5268200000000  0.4503510000000  0.5618880000000 1.0
C      1  0.5270050000000  0.5637840000000  0.5506690000000 1.0
C      1  0.4696020000000  0.5101650000000  0.4666770000000 1.0
C      1  0.4688310000000  0.4673920000000  0.4897380000000 1.0
C      1  0.4702260000000  0.4890620000000  0.5337390000000 1.0
C      1  0.4702470000000  0.5315130000000  0.5114200000000 1.0
C      1  0.5214860000000  0.5064170000000  0.4657780000000 1.0
C      1  0.5271590000000  0.4637380000000  0.4860390000000 1.0
C      1  0.5289770000000  0.4897040000000  0.5363570000000 1.0
C      1  0.5292540000000  0.5340940000000  0.5138930000000 1.0
C      1  0.5554640000000  0.5577690000000  0.5490700000000 1.0
C      1  0.5553960000000  0.5485500000000  0.4393200000000 1.0
C      1  0.5519210000000  0.4400890000000  0.4499760000000 1.0
C      1  0.5549750000000  0.4516000000000  0.5562200000000 1.0
C      1  0.4449530000000  0.5559970000000  0.5494490000000 1.0
C      1  0.4442440000000  0.5482390000000  0.4448410000000 1.0
C      1  0.4420410000000  0.4428860000000  0.4529240000000 1.0
C      1  0.4451440000000  0.4512160000000  0.5573980000000 1.0
C      1  0.4705090000000  0.5055470000000  0.5787450000000 1.0
C      1  0.4700740000000  0.5759990000000  0.4943100000000 1.0
C      1  0.4676780000000  0.4935210000000  0.4218760000000 1.0
C      1  0.4687170000000  0.4228700000000  0.5074670000000 1.0
C      1  0.5302280000000  0.5061430000000  0.5801010000000 1.0
C      1  0.5284060000000  0.5767380000000  0.4939020000000 1.0
C      1  0.5287790000000  0.4947850000000  0.4206390000000 1.0
C      1  0.5277000000000  0.4216870000000  0.5060420000000 1.0
C      1  0.4162980000000  0.4856380000000  0.5344830000000 1.0
C      1  0.4163930000000  0.5321280000000  0.5156480000000 1.0
C      1  0.4157820000000  0.5141380000000  0.4686450000000 1.0
C      1  0.4150460000000  0.4676040000000  0.4874670000000 1.0
C      1  0.5818200000000  0.4859690000000  0.5316820000000 1.0
C      1  0.5819850000000  0.5327010000000  0.5127180000000 1.0
C      1  0.5834420000000  0.5151630000000  0.4629460000000 1.0
C      1  0.5799920000000  0.4671650000000  0.4836870000000 1.0
C      1  0.4843640000000  0.5365700000000  0.4629130000000 1.0
C      1  0.4825880000000  0.4614310000000  0.4621820000000 1.0
C      1  0.4846770000000  0.4626050000000  0.5377170000000 1.0
C      1  0.4849900000000  0.5370810000000  0.5383980000000 1.0
C      1  0.5149280000000  0.5350250000000  0.4630070000000 1.0
C      1  0.5126460000000  0.4592390000000  0.4599350000000 1.0
C      1  0.5148560000000  0.4626340000000  0.5371860000000 1.0
C      1  0.5150560000000  0.5386050000000  0.5400530000000 1.0
C      1  0.4679010000000  0.4994440000000  0.5008290000000 1.0
C      1  0.5293150000000  0.5052420000000  0.5120330000000 1.0
C      1  0.5271990000000  0.4928770000000  0.4886370000000 1.0
END
