TITL C-49257-6266-6 122.380373627668 125000 -1260.70052525633 0 0 180 (C1) n - 1
REM
REM in /rds/project/t2_vol4/rds-t2-cs072/BORA/CARBON/from-Arr/AIRSS/Generating-Clusters/GAP-ML-2020/Higher-Symm/SD-CG/HFTN-CG
REM
REM
REM
REM
REM
REM ./C.cell (b20cbc046b6831c77cfcea5457e17084)
REM AIRSS Version 0.9.1 bugfix July 2018 build 013d7b7c2542+ Fri, 06 Jul 2018 19:26:36 +0100
REM compiler GCC version 9.3.0
REM options -cpp -mtune=generic -march=x86-64 -g -O0
REM seed -468801017 2030320942 1816282536 -387693721 1248700 875510031 -1383903225 405559177 -1588016624 210479961 213013903 971063262 1110624951 111695314 -733111095 -1526391641 -638266721 875383230 -257537237 1277264113 -525983704 -1427888410 -2055342896 -1282709871 1386021648 -532346906 -589945694 137313048 -1021345278 1255104970 -2020352987 916305097 -516656645
REM
CELL 1.54180   50.00000   50.00000   50.00000   90.00000   90.00000   90.00000
LATT -1
SFAC C  
C      1  0.5316580000000  0.4851660000000  0.4262310000000 1.0
C      1  0.5315960000000  0.4286540000000  0.4755280000000 1.0
C      1  0.5293500000000  0.4436650000000  0.5480060000000 1.0
C      1  0.5288880000000  0.5120420000000  0.5714540000000 1.0
C      1  0.5286860000000  0.5671740000000  0.5244580000000 1.0
C      1  0.5318220000000  0.5581540000000  0.4502730000000 1.0
C      1  0.5288080000000  0.5125630000000  0.4294720000000 1.0
C      1  0.5317700000000  0.5720860000000  0.4745620000000 1.0
C      1  0.5314430000000  0.5561870000000  0.5497870000000 1.0
C      1  0.5315050000000  0.4845800000000  0.5745910000000 1.0
C      1  0.5316700000000  0.4282700000000  0.5251470000000 1.0
C      1  0.5293630000000  0.4442740000000  0.4528120000000 1.0
C      1  0.3920630000000  0.5542490000000  0.4843940000000 1.0
C      1  0.3929890000000  0.5144030000000  0.4467620000000 1.0
C      1  0.3928110000000  0.4611440000000  0.4619230000000 1.0
C      1  0.3924510000000  0.4465730000000  0.5149030000000 1.0
C      1  0.3923540000000  0.4864410000000  0.5528640000000 1.0
C      1  0.3922960000000  0.5395880000000  0.5374980000000 1.0
C      1  0.3925250000000  0.4468900000000  0.4851110000000 1.0
C      1  0.3923820000000  0.4872480000000  0.4471380000000 1.0
C      1  0.3920900000000  0.5406340000000  0.4610000000000 1.0
C      1  0.3928810000000  0.5535500000000  0.5142310000000 1.0
C      1  0.3928330000000  0.5135730000000  0.5523440000000 1.0
C      1  0.3925800000000  0.4603350000000  0.5383520000000 1.0
C      1  0.5668020000000  0.5349380000000  0.5892930000000 1.0
C      1  0.5665440000000  0.5943420000000  0.5139450000000 1.0
C      1  0.5680800000000  0.5610270000000  0.4243220000000 1.0
C      1  0.5684520000000  0.4644790000000  0.4091820000000 1.0
C      1  0.5685140000000  0.4027140000000  0.4855840000000 1.0
C      1  0.5672150000000  0.4394750000000  0.5757590000000 1.0
C      1  0.5685880000000  0.4642230000000  0.5912030000000 1.0
C      1  0.5685930000000  0.4025760000000  0.5147440000000 1.0
C      1  0.5670400000000  0.4398040000000  0.4246660000000 1.0
C      1  0.5665810000000  0.5350730000000  0.4112180000000 1.0
C      1  0.5680450000000  0.5959740000000  0.4849180000000 1.0
C      1  0.5683240000000  0.5607680000000  0.5758360000000 1.0
C      1  0.5058130000000  0.5485130000000  0.5583370000000 1.0
C      1  0.5061650000000  0.5731190000000  0.4857940000000 1.0
C      1  0.5017180000000  0.5223940000000  0.4364380000000 1.0
C      1  0.5020280000000  0.4544910000000  0.4480020000000 1.0
C      1  0.5059510000000  0.4257030000000  0.5136430000000 1.0
C      1  0.5060080000000  0.4729820000000  0.5727620000000 1.0
C      1  0.5020170000000  0.4536700000000  0.5529210000000 1.0
C      1  0.5058450000000  0.4262580000000  0.4869710000000 1.0
C      1  0.5060270000000  0.4739230000000  0.4283350000000 1.0
C      1  0.5062350000000  0.5490120000000  0.4436650000000 1.0
C      1  0.5015870000000  0.5660980000000  0.5124740000000 1.0
C      1  0.5016940000000  0.5216390000000  0.5651110000000 1.0
C      1  0.4846230000000  0.4129410000000  0.5327900000000 1.0
C      1  0.4846160000000  0.4840180000000  0.5912320000000 1.0
C      1  0.4847460000000  0.5703370000000  0.5584620000000 1.0
C      1  0.4851440000000  0.5857100000000  0.4684320000000 1.0
C      1  0.4835720000000  0.5163050000000  0.4095980000000 1.0
C      1  0.4836740000000  0.4291720000000  0.4406940000000 1.0
C      1  0.4835180000000  0.5863330000000  0.5311810000000 1.0
C      1  0.4834460000000  0.5155150000000  0.5911730000000 1.0
C      1  0.4835840000000  0.4283530000000  0.5598340000000 1.0
C      1  0.4845690000000  0.4135210000000  0.4675460000000 1.0
C      1  0.4847490000000  0.4847730000000  0.4097410000000 1.0
C      1  0.4851530000000  0.5702860000000  0.4416200000000 1.0
C      1  0.5236400000000  0.4056260000000  0.4287950000000 1.0
C      1  0.5241860000000  0.3899100000000  0.5479070000000 1.0
C      1  0.5242730000000  0.4865620000000  0.6188710000000 1.0
C      1  0.5241720000000  0.5956750000000  0.5704290000000 1.0
C      1  0.5239080000000  0.6103960000000  0.4525360000000 1.0
C      1  0.5234900000000  0.5150760000000  0.3836080000000 1.0
C      1  0.5239250000000  0.5963590000000  0.4281710000000 1.0
C      1  0.5234730000000  0.6081670000000  0.5451520000000 1.0
C      1  0.5236530000000  0.5146820000000  0.6171140000000 1.0
C      1  0.5238100000000  0.4050330000000  0.5717970000000 1.0
C      1  0.5240600000000  0.3902900000000  0.4525490000000 1.0
C      1  0.5242300000000  0.4869550000000  0.3817770000000 1.0
C      1  0.5446360000000  0.5741140000000  0.5698570000000 1.0
C      1  0.5440550000000  0.5988980000000  0.4711410000000 1.0
C      1  0.5410750000000  0.5257430000000  0.4050850000000 1.0
C      1  0.5417390000000  0.4293330000000  0.4298830000000 1.0
C      1  0.5445780000000  0.4016480000000  0.5290010000000 1.0
C      1  0.5449510000000  0.4761280000000  0.5999170000000 1.0
C      1  0.5419370000000  0.4287790000000  0.5708000000000 1.0
C      1  0.5443860000000  0.4019350000000  0.4715230000000 1.0
C      1  0.5448360000000  0.4766390000000  0.4007550000000 1.0
C      1  0.5441480000000  0.5745140000000  0.4288080000000 1.0
C      1  0.5410730000000  0.5948590000000  0.5252060000000 1.0
C      1  0.5414250000000  0.5253090000000  0.5956190000000 1.0
C      1  0.5976520000000  0.4459020000000  0.4864580000000 1.0
C      1  0.5971210000000  0.4609510000000  0.5395610000000 1.0
C      1  0.5970890000000  0.5145230000000  0.5529390000000 1.0
C      1  0.5973010000000  0.5531230000000  0.5134990000000 1.0
C      1  0.5976730000000  0.5386600000000  0.4604370000000 1.0
C      1  0.5976780000000  0.4848540000000  0.4469830000000 1.0
C      1  0.5976780000000  0.5535520000000  0.4861750000000 1.0
C      1  0.5976720000000  0.5383450000000  0.5394270000000 1.0
C      1  0.5976550000000  0.4846870000000  0.5532930000000 1.0
C      1  0.5976790000000  0.4458000000000  0.5138890000000 1.0
C      1  0.5970700000000  0.4611560000000  0.4608010000000 1.0
C      1  0.5972280000000  0.5147330000000  0.4471970000000 1.0
C      1  0.4830040000000  0.4656020000000  0.5325710000000 1.0
C      1  0.4819090000000  0.5105070000000  0.5451830000000 1.0
C      1  0.4800280000000  0.5437960000000  0.5116700000000 1.0
C      1  0.4650890000000  0.5342670000000  0.4644490000000 1.0
C      1  0.4700080000000  0.4868450000000  0.4544870000000 1.0
C      1  0.4691820000000  0.4521750000000  0.4865920000000 1.0
C      1  0.4693390000000  0.5327900000000  0.5345290000000 1.0
C      1  0.4703390000000  0.4858740000000  0.5467140000000 1.0
C      1  0.4692910000000  0.4516470000000  0.5139000000000 1.0
C      1  0.4830230000000  0.4665130000000  0.4682900000000 1.0
C      1  0.4804690000000  0.5120930000000  0.4563010000000 1.0
C      1  0.4649000000000  0.5478830000000  0.4882170000000 1.0
C      1  0.4119390000000  0.4507050000000  0.4414450000000 1.0
C      1  0.4118490000000  0.4235480000000  0.5141330000000 1.0
C      1  0.4117090000000  0.4744500000000  0.5727410000000 1.0
C      1  0.4117630000000  0.5504270000000  0.5579280000000 1.0
C      1  0.4115620000000  0.5774150000000  0.4851940000000 1.0
C      1  0.4121590000000  0.5266110000000  0.4273030000000 1.0
C      1  0.4115670000000  0.5515480000000  0.4405120000000 1.0
C      1  0.4121180000000  0.5764290000000  0.5134070000000 1.0
C      1  0.4120020000000  0.5258450000000  0.5717370000000 1.0
C      1  0.4117930000000  0.4499010000000  0.5587690000000 1.0
C      1  0.4118260000000  0.4237690000000  0.4857240000000 1.0
C      1  0.4117730000000  0.4751440000000  0.4273610000000 1.0
C      1  0.4926410000000  0.6309580000000  0.4861030000000 1.0
C      1  0.4930270000000  0.5552010000000  0.3810960000000 1.0
C      1  0.4941400000000  0.4249680000000  0.3929280000000 1.0
C      1  0.4934240000000  0.3697530000000  0.5131390000000 1.0
C      1  0.4940270000000  0.4463740000000  0.6211940000000 1.0
C      1  0.4938110000000  0.5777540000000  0.6062630000000 1.0
C      1  0.4931710000000  0.3705410000000  0.4874500000000 1.0
C      1  0.4939980000000  0.4469370000000  0.3795470000000 1.0
C      1  0.4926120000000  0.5775830000000  0.3936330000000 1.0
C      1  0.4929990000000  0.6304910000000  0.5117580000000 1.0
C      1  0.4937020000000  0.5550420000000  0.6183100000000 1.0
C      1  0.4939990000000  0.4247220000000  0.6072930000000 1.0
C      1  0.5847750000000  0.4230590000000  0.4728660000000 1.0
C      1  0.5838530000000  0.4378120000000  0.5523920000000 1.0
C      1  0.5838800000000  0.5141300000000  0.5794540000000 1.0
C      1  0.5839360000000  0.5758200000000  0.5271070000000 1.0
C      1  0.5852480000000  0.5622590000000  0.4473250000000 1.0
C      1  0.5851660000000  0.4853090000000  0.4201680000000 1.0
C      1  0.5852180000000  0.5766880000000  0.4723110000000 1.0
C      1  0.5851680000000  0.5617940000000  0.5524710000000 1.0
C      1  0.5851650000000  0.4851380000000  0.5801130000000 1.0
C      1  0.5848560000000  0.4228990000000  0.5274620000000 1.0
C      1  0.5837640000000  0.4380370000000  0.4479710000000 1.0
C      1  0.5838620000000  0.5143040000000  0.4207540000000 1.0
C      1  0.4980790000000  0.3855430000000  0.5350820000000 1.0
C      1  0.4983510000000  0.4731620000000  0.6164610000000 1.0
C      1  0.4982220000000  0.5868660000000  0.5806270000000 1.0
C      1  0.4977420000000  0.6136430000000  0.4652390000000 1.0
C      1  0.4979130000000  0.5284070000000  0.3859070000000 1.0
C      1  0.4982810000000  0.4147170000000  0.4181140000000 1.0
C      1  0.4978860000000  0.6128840000000  0.5325220000000 1.0
C      1  0.4980530000000  0.5280800000000  0.6147040000000 1.0
C      1  0.4983050000000  0.4139640000000  0.5824030000000 1.0
C      1  0.4979090000000  0.3860760000000  0.4653800000000 1.0
C      1  0.4982850000000  0.4737080000000  0.3844070000000 1.0
C      1  0.4977410000000  0.5870320000000  0.4190270000000 1.0
C      1  0.4603410000000  0.4729160000000  0.4243310000000 1.0
C      1  0.4604780000000  0.4201240000000  0.4840270000000 1.0
C      1  0.4580880000000  0.4425650000000  0.5675710000000 1.0
C      1  0.4581950000000  0.5297510000000  0.5826490000000 1.0
C      1  0.4582070000000  0.5869230000000  0.5152510000000 1.0
C      1  0.4597690000000  0.5528320000000  0.4381660000000 1.0
C      1  0.4582730000000  0.5303800000000  0.4171590000000 1.0
C      1  0.4597290000000  0.5800180000000  0.4852700000000 1.0
C      1  0.4602250000000  0.5520690000000  0.5615560000000 1.0
C      1  0.4602630000000  0.4720180000000  0.5765140000000 1.0
C      1  0.4605540000000  0.4197990000000  0.5160780000000 1.0
C      1  0.4582750000000  0.4435370000000  0.4329950000000 1.0
C      1  0.4351140000000  0.4856450000000  0.5824440000000 1.0
C      1  0.4351710000000  0.5644990000000  0.5532100000000 1.0
C      1  0.4344670000000  0.5806780000000  0.4700020000000 1.0
C      1  0.4351180000000  0.5148780000000  0.4171940000000 1.0
C      1  0.4347150000000  0.4354450000000  0.4456820000000 1.0
C      1  0.4347900000000  0.4201610000000  0.5294740000000 1.0
C      1  0.4349520000000  0.5143080000000  0.5823510000000 1.0
C      1  0.4345970000000  0.4346770000000  0.5545250000000 1.0
C      1  0.4348330000000  0.4206360000000  0.4705100000000 1.0
C      1  0.4352530000000  0.4863000000000  0.4177550000000 1.0
C      1  0.4344690000000  0.5663640000000  0.4452370000000 1.0
C      1  0.4350460000000  0.5792260000000  0.5286840000000 1.0
END
