TITL C-49264-6151-4 -0.314503939883433 125000 -752.587408282196 0 0 109 (C1) n - 1
REM
REM in /rds/project/t2_vol4/rds-t2-cs072/BORA/CARBON/from-Arr/AIRSS/Generating-Clusters/GAP-ML-2020/Higher-Symm/SD-CG/HFTN-CG
REM
REM
REM
REM
REM
REM ./C.cell (b20cbc046b6831c77cfcea5457e17084)
REM AIRSS Version 0.9.1 bugfix July 2018 build 013d7b7c2542+ Fri, 06 Jul 2018 19:26:36 +0100
REM compiler GCC version 9.3.0
REM options -cpp -mtune=generic -march=x86-64 -g -O0
REM seed -811695908 -2094392018 1885847717 -936406074 -600003786 -937829521 1729858415 -495109502 -1115667581 1586563716 -475712849 2083182110 458230980 -1336078940 1796677694 1590576894 1206143809 531254081 -2060608164 1530930067 1811961135 1458247020 -1500605329 -1796458124 -250928225 1195297642 -1041228366 -1513410199 2055867384 -1663845374 328111140 -1194192260 -1423254877
REM
CELL 1.54180   50.00000   50.00000   50.00000   90.00000   90.00000   90.00000
LATT -1
SFAC C  
C      1  0.4858290000000  0.5490440000000  0.5673660000000 1.0
C      1  0.4982700000000  0.5783400000000  0.4748610000000 1.0
C      1  0.4960690000000  0.4891150000000  0.4335940000000 1.0
C      1  0.4833430000000  0.4172390000000  0.4762930000000 1.0
C      1  0.4932320000000  0.4583300000000  0.5653080000000 1.0
C      1  0.5032680000000  0.5469800000000  0.4363060000000 1.0
C      1  0.5130740000000  0.5822070000000  0.5306740000000 1.0
C      1  0.5001990000000  0.4880050000000  0.5715660000000 1.0
C      1  0.5144630000000  0.4189460000000  0.5250150000000 1.0
C      1  0.5053340000000  0.4607470000000  0.4381130000000 1.0
C      1  0.4906160000000  0.5983560000000  0.5212580000000 1.0
C      1  0.4876830000000  0.5391600000000  0.4136230000000 1.0
C      1  0.4858460000000  0.4372550000000  0.4372340000000 1.0
C      1  0.4742180000000  0.4040710000000  0.5507570000000 1.0
C      1  0.4831660000000  0.5041130000000  0.5904380000000 1.0
C      1  0.5166450000000  0.5987890000000  0.4822070000000 1.0
C      1  0.5071620000000  0.5406790000000  0.5853590000000 1.0
C      1  0.5130220000000  0.4359220000000  0.5639770000000 1.0
C      1  0.5248360000000  0.4086820000000  0.4517310000000 1.0
C      1  0.5130270000000  0.5028780000000  0.4124810000000 1.0
C      1  0.4784340000000  0.4931270000000  0.4830620000000 1.0
C      1  0.4734990000000  0.4666710000000  0.4902790000000 1.0
C      1  0.4655320000000  0.4631780000000  0.5178420000000 1.0
C      1  0.4829830000000  0.5148160000000  0.5276410000000 1.0
C      1  0.4738470000000  0.5383330000000  0.4834930000000 1.0
C      1  0.5272360000000  0.4934030000000  0.5269360000000 1.0
C      1  0.5319810000000  0.4659590000000  0.5103870000000 1.0
C      1  0.5305260000000  0.4738710000000  0.4824340000000 1.0
C      1  0.5227480000000  0.5000920000000  0.4795720000000 1.0
C      1  0.5185820000000  0.5404230000000  0.5048670000000 1.0
C      1  0.5362690000000  0.4550500000000  0.4332080000000 1.0
C      1  0.5420390000000  0.4218770000000  0.5274820000000 1.0
C      1  0.5277610000000  0.4992390000000  0.5750450000000 1.0
C      1  0.5408030000000  0.5865330000000  0.5221770000000 1.0
C      1  0.5319880000000  0.5438520000000  0.4320700000000 1.0
C      1  0.4643780000000  0.4503360000000  0.5661180000000 1.0
C      1  0.4557960000000  0.4202390000000  0.4715340000000 1.0
C      1  0.4666390000000  0.4975500000000  0.4243700000000 1.0
C      1  0.4704640000000  0.5821850000000  0.4802200000000 1.0
C      1  0.4585410000000  0.5445610000000  0.5744960000000 1.0
C      1  0.5567500000000  0.5411220000000  0.4472920000000 1.0
C      1  0.5611090000000  0.4657420000000  0.4443360000000 1.0
C      1  0.5575450000000  0.4441400000000  0.5146700000000 1.0
C      1  0.5473880000000  0.4978900000000  0.5517220000000 1.0
C      1  0.5612530000000  0.5648880000000  0.5207840000000 1.0
C      1  0.4366870000000  0.5400850000000  0.5548710000000 1.0
C      1  0.4419840000000  0.4639270000000  0.5531670000000 1.0
C      1  0.4337040000000  0.4367560000000  0.4808290000000 1.0
C      1  0.4407530000000  0.4968540000000  0.4376320000000 1.0
C      1  0.4517550000000  0.5576870000000  0.4809160000000 1.0
C      1  0.5821600000000  0.5206130000000  0.5200040000000 1.0
C      1  0.5793760000000  0.5240700000000  0.4840970000000 1.0
C      1  0.5831900000000  0.4977500000000  0.4737970000000 1.0
C      1  0.5839550000000  0.4784570000000  0.4951860000000 1.0
C      1  0.5820290000000  0.4917380000000  0.5212320000000 1.0
C      1  0.4197210000000  0.5205330000000  0.4828950000000 1.0
C      1  0.4178690000000  0.5283600000000  0.5104850000000 1.0
C      1  0.4231760000000  0.4939730000000  0.5236590000000 1.0
C      1  0.4175000000000  0.4759140000000  0.5027550000000 1.0
C      1  0.4175040000000  0.4916550000000  0.4786530000000 1.0
C      1  0.5372180000000  0.4336080000000  0.4565960000000 1.0
C      1  0.5405310000000  0.4361380000000  0.5528550000000 1.0
C      1  0.5317360000000  0.5277240000000  0.5763480000000 1.0
C      1  0.5424460000000  0.5902550000000  0.4930180000000 1.0
C      1  0.5367280000000  0.5178800000000  0.4193030000000 1.0
C      1  0.4615220000000  0.4273290000000  0.5481780000000 1.0
C      1  0.4590890000000  0.4373880000000  0.4474180000000 1.0
C      1  0.4632980000000  0.5262470000000  0.4213510000000 1.0
C      1  0.4654870000000  0.5876050000000  0.5084620000000 1.0
C      1  0.4571870000000  0.5170020000000  0.5839850000000 1.0
C      1  0.5640500000000  0.4456420000000  0.4645720000000 1.0
C      1  0.5621370000000  0.4528850000000  0.5429740000000 1.0
C      1  0.5525660000000  0.5272390000000  0.5557730000000 1.0
C      1  0.5624860000000  0.5686110000000  0.4912320000000 1.0
C      1  0.5606420000000  0.5143210000000  0.4355000000000 1.0
C      1  0.4445980000000  0.4460850000000  0.5289630000000 1.0
C      1  0.4356800000000  0.4525180000000  0.4561380000000 1.0
C      1  0.4408490000000  0.5261120000000  0.4400770000000 1.0
C      1  0.4448970000000  0.5668950000000  0.5096920000000 1.0
C      1  0.4351470000000  0.5125720000000  0.5651220000000 1.0
C      1  0.5698660000000  0.4798160000000  0.5446940000000 1.0
C      1  0.5673630000000  0.5408350000000  0.5355650000000 1.0
C      1  0.5694100000000  0.5482880000000  0.4720500000000 1.0
C      1  0.5727020000000  0.4915800000000  0.4477330000000 1.0
C      1  0.5740400000000  0.4511750000000  0.4907570000000 1.0
C      1  0.4273450000000  0.4792310000000  0.4547300000000 1.0
C      1  0.4332470000000  0.5387430000000  0.4645490000000 1.0
C      1  0.4309580000000  0.5489600000000  0.5272360000000 1.0
C      1  0.4288630000000  0.4886910000000  0.5510680000000 1.0
C      1  0.4254700000000  0.4477320000000  0.5053470000000 1.0
C      1  0.4988010000000  0.5035560000000  0.4633740000000 1.0
C      1  0.4949210000000  0.4449010000000  0.4865750000000 1.0
C      1  0.4900740000000  0.4638100000000  0.5322150000000 1.0
C      1  0.4895210000000  0.5400490000000  0.5400140000000 1.0
C      1  0.5034990000000  0.5497380000000  0.4825420000000 1.0
C      1  0.4989680000000  0.4925240000000  0.5376140000000 1.0
C      1  0.5077120000000  0.4471530000000  0.5142830000000 1.0
C      1  0.5158120000000  0.4540550000000  0.4674540000000 1.0
C      1  0.4940090000000  0.5329140000000  0.4610810000000 1.0
C      1  0.5095720000000  0.5536420000000  0.5280610000000 1.0
C      1  0.4974290000000  0.5235040000000  0.6045700000000 1.0
C      1  0.4998890000000  0.4142730000000  0.5489470000000 1.0
C      1  0.5010540000000  0.5219740000000  0.3964490000000 1.0
C      1  0.4980730000000  0.4138630000000  0.4509720000000 1.0
C      1  0.5033540000000  0.6134490000000  0.5019680000000 1.0
C      1  0.4698540000000  0.5143710000000  0.5012160000000 1.0
C      1  0.5301320000000  0.5143700000000  0.5042440000000 1.0
C      1  0.4412830000000  0.5129500000000  0.5118920000000 1.0
C      1  0.5602140000000  0.5161810000000  0.5036540000000 1.0
END
