TITL C-49243-5076-1 0.110532800897487 125000 -359.47935919351 0 0 53 (C1) n - 1
REM
REM in /rds/project/t2_vol4/rds-t2-cs072/BORA/CARBON/from-Arr/AIRSS/Generating-Clusters/GAP-ML-2020/Higher-Symm/SD-CG/HFTN-CG
REM
REM
REM
REM
REM
REM ./C.cell (b20cbc046b6831c77cfcea5457e17084)
REM AIRSS Version 0.9.1 bugfix July 2018 build 013d7b7c2542+ Fri, 06 Jul 2018 19:26:36 +0100
REM compiler GCC version 9.3.0
REM options -cpp -mtune=generic -march=x86-64 -g -O0
REM seed 177827588 527450286 -123187794 -1056034910 -1435638655 1814197930 -1560475025 -1691362923 -1686289459 -969151062 2099833308 -1896054942 -1941791895 1420663637 850438599 71786639 1461570225 -511274538 -1763152888 -1360368627 316836841 -211387304 2112032558 343799231 -1920307684 767877557 -1072442376 2102909864 -919537681 -792533756 -813520216 -1810071414 1547088115
REM
CELL 1.54180   50.00000   50.00000   50.00000   90.00000   90.00000   90.00000
LATT -1
SFAC C  
C      1  0.5514010000000  0.4623840000000  0.5037240000000 1.0
C      1  0.5555960000000  0.5351140000000  0.4947360000000 1.0
C      1  0.4503020000000  0.4582010000000  0.4957650000000 1.0
C      1  0.4439900000000  0.5327310000000  0.5028800000000 1.0
C      1  0.5452040000000  0.5022080000000  0.4658360000000 1.0
C      1  0.5543890000000  0.4935360000000  0.5379890000000 1.0
C      1  0.4493420000000  0.4926720000000  0.4607480000000 1.0
C      1  0.4568510000000  0.5005640000000  0.5339500000000 1.0
C      1  0.5198370000000  0.5469500000000  0.5164250000000 1.0
C      1  0.5140460000000  0.4428890000000  0.4866560000000 1.0
C      1  0.4807710000000  0.5603600000000  0.4848410000000 1.0
C      1  0.4880190000000  0.4455650000000  0.5291040000000 1.0
C      1  0.5145130000000  0.5145160000000  0.5510490000000 1.0
C      1  0.5181670000000  0.4738950000000  0.4402870000000 1.0
C      1  0.4881350000000  0.4643330000000  0.5516700000000 1.0
C      1  0.4877880000000  0.5157270000000  0.4489470000000 1.0
C      1  0.5365270000000  0.5270980000000  0.4519580000000 1.0
C      1  0.5377950000000  0.4706140000000  0.5472640000000 1.0
C      1  0.4652540000000  0.5278500000000  0.5447670000000 1.0
C      1  0.4633090000000  0.4690260000000  0.4510380000000 1.0
C      1  0.5375520000000  0.4510660000000  0.5265480000000 1.0
C      1  0.5399450000000  0.5470450000000  0.4722990000000 1.0
C      1  0.4555780000000  0.5476160000000  0.5247620000000 1.0
C      1  0.4639380000000  0.4487820000000  0.4724880000000 1.0
C      1  0.5455540000000  0.5387160000000  0.5219230000000 1.0
C      1  0.5392640000000  0.4556290000000  0.4787040000000 1.0
C      1  0.4606800000000  0.5376230000000  0.4792580000000 1.0
C      1  0.4611880000000  0.4537710000000  0.5215450000000 1.0
C      1  0.5426980000000  0.5190850000000  0.5426480000000 1.0
C      1  0.5404970000000  0.4739480000000  0.4566070000000 1.0
C      1  0.4607690000000  0.4736220000000  0.5434530000000 1.0
C      1  0.4604670000000  0.5198420000000  0.4557530000000 1.0
C      1  0.5067120000000  0.4962640000000  0.5287440000000 1.0
C      1  0.5190600000000  0.5032590000000  0.4833920000000 1.0
C      1  0.4961490000000  0.4932700000000  0.4679080000000 1.0
C      1  0.4815610000000  0.4993120000000  0.5176110000000 1.0
C      1  0.5084570000000  0.5294970000000  0.4933190000000 1.0
C      1  0.5234540000000  0.4897740000000  0.5069630000000 1.0
C      1  0.4771490000000  0.4907750000000  0.4906680000000 1.0
C      1  0.4775450000000  0.5625720000000  0.5140420000000 1.0
C      1  0.4931590000000  0.5345940000000  0.5502450000000 1.0
C      1  0.4931800000000  0.4674270000000  0.4503220000000 1.0
C      1  0.5079990000000  0.5344230000000  0.4478000000000 1.0
C      1  0.5115750000000  0.4802680000000  0.5535680000000 1.0
C      1  0.4991770000000  0.5559720000000  0.5322770000000 1.0
C      1  0.4918450000000  0.4440630000000  0.4700110000000 1.0
C      1  0.5125540000000  0.4417670000000  0.5156130000000 1.0
C      1  0.5081600000000  0.5510610000000  0.4724990000000 1.0
C      1  0.5635550000000  0.5085130000000  0.4889990000000 1.0
C      1  0.5608320000000  0.4885430000000  0.5103130000000 1.0
C      1  0.4457200000000  0.4870550000000  0.4891880000000 1.0
C      1  0.4380670000000  0.5059280000000  0.5100340000000 1.0
C      1  0.4817010000000  0.5203780000000  0.4983220000000 1.0
END
