TITL C-49251-4911-10 -0.00309927074181786 125000 -296.809382162774 0 0 43 (C3) n - 1
REM
REM in /rds/project/t2_vol4/rds-t2-cs072/BORA/CARBON/from-Arr/AIRSS/Generating-Clusters/GAP-ML-2020/Higher-Symm/SD-CG/HFTN-CG
REM
REM
REM
REM
REM
REM ./C.cell (b20cbc046b6831c77cfcea5457e17084)
REM AIRSS Version 0.9.1 bugfix July 2018 build 013d7b7c2542+ Fri, 06 Jul 2018 19:26:36 +0100
REM compiler GCC version 9.3.0
REM options -cpp -mtune=generic -march=x86-64 -g -O0
REM seed -55975040 559852310 1989693151 473035201 -1753782399 -1652764978 -184605672 -1196327318 -2096465454 1572157132 1590552882 -309113270 527252549 861279427 2137185355 1694960079 -563845784 686115305 -1466107172 -1990331050 -1887281831 -1574438382 -1279261458 -585050559 -1047316492 -1010742897 463506810 -2094531172 -1366474255 1148948142 1956028425 589198401 1622315174
REM
CELL 1.54180   50.00000   50.00000   50.00000   90.00000   90.00000   90.00000
LATT -1
SFAC C  
C      1  0.5205060000000  0.5659370000000  0.4921020000000 1.0
C      1  0.4325740000000  0.4864520000000  0.4915080000000 1.0
C      1  0.5453690000000  0.4500430000000  0.4929220000000 1.0
C      1  0.4963540000000  0.4526700000000  0.4875290000000 1.0
C      1  0.5427960000000  0.5220930000000  0.4877130000000 1.0
C      1  0.4594580000000  0.5276000000000  0.4867690000000 1.0
C      1  0.4774080000000  0.5495310000000  0.5264380000000 1.0
C      1  0.4678960000000  0.4579070000000  0.5267650000000 1.0
C      1  0.5519970000000  0.4954850000000  0.5275140000000 1.0
C      1  0.4990000000000  0.4704070000000  0.4640100000000 1.0
C      1  0.5264050000000  0.5151260000000  0.4641020000000 1.0
C      1  0.4739780000000  0.5164990000000  0.4635170000000 1.0
C      1  0.5522290000000  0.4980790000000  0.5000150000000 1.0
C      1  0.4753870000000  0.5479780000000  0.4989330000000 1.0
C      1  0.4705930000000  0.4564770000000  0.4993110000000 1.0
C      1  0.4446550000000  0.5086380000000  0.5029880000000 1.0
C      1  0.5199730000000  0.4496020000000  0.5040960000000 1.0
C      1  0.5334420000000  0.5443530000000  0.5037980000000 1.0
C      1  0.5253110000000  0.4848890000000  0.4632630000000 1.0
C      1  0.5007220000000  0.5306550000000  0.4627770000000 1.0
C      1  0.4733830000000  0.4864740000000  0.4626830000000 1.0
C      1  0.5179770000000  0.4565520000000  0.5323320000000 1.0
C      1  0.5280690000000  0.5396180000000  0.5320520000000 1.0
C      1  0.4510900000000  0.5068220000000  0.5313580000000 1.0
C      1  0.4921440000000  0.4567980000000  0.5435820000000 1.0
C      1  0.5406280000000  0.5173140000000  0.5438310000000 1.0
C      1  0.4639830000000  0.5290440000000  0.5429310000000 1.0
C      1  0.5262790000000  0.4978180000000  0.5598600000000 1.0
C      1  0.4878390000000  0.5266330000000  0.5593010000000 1.0
C      1  0.4821040000000  0.4789330000000  0.5594630000000 1.0
C      1  0.5363270000000  0.4757730000000  0.5430020000000 1.0
C      1  0.5021190000000  0.5460750000000  0.5422940000000 1.0
C      1  0.4583410000000  0.4812940000000  0.5421170000000 1.0
C      1  0.4552830000000  0.4742780000000  0.4826390000000 1.0
C      1  0.5446720000000  0.4756460000000  0.4836180000000 1.0
C      1  0.4987970000000  0.5523780000000  0.4827510000000 1.0
C      1  0.4750480000000  0.4872850000000  0.4325840000000 1.0
C      1  0.5241510000000  0.4854260000000  0.4331340000000 1.0
C      1  0.5012120000000  0.5288820000000  0.4326760000000 1.0
C      1  0.5258980000000  0.5141650000000  0.4328790000000 1.0
C      1  0.4754530000000  0.5160220000000  0.4323150000000 1.0
C      1  0.4990650000000  0.4714040000000  0.4327850000000 1.0
C      1  0.4986730000000  0.5011570000000  0.5657150000000 1.0
END
