TITL C-49238-4943-7 4.38996408099716 125000 -664.877909071243 0 0 95 (C1) n - 1
REM
REM in /rds/project/t2_vol4/rds-t2-cs072/BORA/CARBON/from-Arr/AIRSS/Generating-Clusters/GAP-ML-2020/Higher-Symm/SD-CG/HFTN-CG
REM
REM
REM
REM
REM
REM ./C.cell (b20cbc046b6831c77cfcea5457e17084)
REM AIRSS Version 0.9.1 bugfix July 2018 build 013d7b7c2542+ Fri, 06 Jul 2018 19:26:36 +0100
REM compiler GCC version 9.3.0
REM options -cpp -mtune=generic -march=x86-64 -g -O0
REM seed 1677999558 -1858346067 -695737984 1939334924 920370972 -1928257416 -1471596107 583726589 -804388955 1913692838 548125320 -2077033947 -973393519 663116145 2129671639 1775735137 1304604594 1341436856 1770600720 -1120396668 -1973816712 231903550 1372672827 -1703790816 -1790717734 -1775460312 1036046684 1096109896 -630705349 655586907 136146364 567073036 -1365419258
REM
CELL 1.54180   50.00000   50.00000   50.00000   90.00000   90.00000   90.00000
LATT -1
SFAC C  
C      1  0.5219550000000  0.5655600000000  0.4567990000000 1.0
C      1  0.4719920000000  0.5346870000000  0.4295890000000 1.0
C      1  0.5787500000000  0.4910660000000  0.5233330000000 1.0
C      1  0.4615570000000  0.5097090000000  0.4589060000000 1.0
C      1  0.5059190000000  0.4306710000000  0.4845750000000 1.0
C      1  0.4188020000000  0.5000160000000  0.5165710000000 1.0
C      1  0.5242870000000  0.4725170000000  0.4812350000000 1.0
C      1  0.5398380000000  0.5197490000000  0.4589640000000 1.0
C      1  0.4953270000000  0.5282480000000  0.4772360000000 1.0
C      1  0.4147650000000  0.4934790000000  0.4626240000000 1.0
C      1  0.5080750000000  0.5319330000000  0.5051110000000 1.0
C      1  0.4618220000000  0.5414490000000  0.5643790000000 1.0
C      1  0.4426280000000  0.5012620000000  0.5357960000000 1.0
C      1  0.5105650000000  0.4338680000000  0.5462050000000 1.0
C      1  0.4159790000000  0.4732170000000  0.5071580000000 1.0
C      1  0.5020450000000  0.4997830000000  0.4188810000000 1.0
C      1  0.4759500000000  0.4890340000000  0.4182570000000 1.0
C      1  0.4468270000000  0.4714050000000  0.5403620000000 1.0
C      1  0.5458970000000  0.4632680000000  0.4354080000000 1.0
C      1  0.4862920000000  0.5274260000000  0.5255330000000 1.0
C      1  0.5463760000000  0.5746450000000  0.4631120000000 1.0
C      1  0.5353370000000  0.5414460000000  0.5708100000000 1.0
C      1  0.4571540000000  0.5092010000000  0.4286000000000 1.0
C      1  0.5358210000000  0.4974450000000  0.4860290000000 1.0
C      1  0.5687230000000  0.5020230000000  0.5482070000000 1.0
C      1  0.5005840000000  0.5812590000000  0.4697420000000 1.0
C      1  0.4742240000000  0.4615380000000  0.5431970000000 1.0
C      1  0.4860710000000  0.4987600000000  0.4732120000000 1.0
C      1  0.5249100000000  0.5590470000000  0.5125240000000 1.0
C      1  0.4531460000000  0.5601660000000  0.5455650000000 1.0
C      1  0.4625000000000  0.5136370000000  0.5143740000000 1.0
C      1  0.5472660000000  0.4403610000000  0.4511210000000 1.0
C      1  0.4446610000000  0.4654040000000  0.4417670000000 1.0
C      1  0.4826770000000  0.4342090000000  0.4680260000000 1.0
C      1  0.4655840000000  0.5558590000000  0.4493380000000 1.0
C      1  0.5658070000000  0.4838050000000  0.4416310000000 1.0
C      1  0.4558540000000  0.4999290000000  0.5839170000000 1.0
C      1  0.4455050000000  0.5599590000000  0.5184140000000 1.0
C      1  0.4703990000000  0.4637620000000  0.4299950000000 1.0
C      1  0.5557380000000  0.5563320000000  0.5071850000000 1.0
C      1  0.4500730000000  0.4183820000000  0.5012640000000 1.0
C      1  0.5292340000000  0.5136800000000  0.5745690000000 1.0
C      1  0.5646850000000  0.5323030000000  0.4674150000000 1.0
C      1  0.4909500000000  0.4729870000000  0.5170040000000 1.0
C      1  0.4554580000000  0.4320940000000  0.4765220000000 1.0
C      1  0.5109740000000  0.5566060000000  0.5639450000000 1.0
C      1  0.4186780000000  0.4694800000000  0.4789240000000 1.0
C      1  0.5302510000000  0.4477310000000  0.5272410000000 1.0
C      1  0.5537610000000  0.4278810000000  0.4905270000000 1.0
C      1  0.5833300000000  0.5142490000000  0.5064500000000 1.0
C      1  0.4889050000000  0.5410520000000  0.5735440000000 1.0
C      1  0.4643020000000  0.5785520000000  0.5276390000000 1.0
C      1  0.5124800000000  0.4554580000000  0.5656970000000 1.0
C      1  0.5563340000000  0.4423120000000  0.5147470000000 1.0
C      1  0.5147900000000  0.5359960000000  0.4541080000000 1.0
C      1  0.5293820000000  0.4725530000000  0.5482150000000 1.0
C      1  0.5609880000000  0.5578470000000  0.4789710000000 1.0
C      1  0.5820280000000  0.5126750000000  0.4782880000000 1.0
C      1  0.5736880000000  0.5378350000000  0.5196600000000 1.0
C      1  0.5118910000000  0.5693850000000  0.5388560000000 1.0
C      1  0.5072970000000  0.5812720000000  0.4980670000000 1.0
C      1  0.4186700000000  0.5211950000000  0.4970330000000 1.0
C      1  0.5714540000000  0.5310340000000  0.5473540000000 1.0
C      1  0.5114330000000  0.4550320000000  0.5028090000000 1.0
C      1  0.5695690000000  0.4405510000000  0.4706750000000 1.0
C      1  0.4996090000000  0.5274000000000  0.4282000000000 1.0
C      1  0.4631420000000  0.5364090000000  0.4721790000000 1.0
C      1  0.5118640000000  0.4910750000000  0.5308640000000 1.0
C      1  0.4747730000000  0.4904710000000  0.4989100000000 1.0
C      1  0.4776800000000  0.5795380000000  0.4534140000000 1.0
C      1  0.4373030000000  0.4518630000000  0.4655790000000 1.0
C      1  0.5055990000000  0.4770810000000  0.4591550000000 1.0
C      1  0.5226070000000  0.4843820000000  0.4326320000000 1.0
C      1  0.4924480000000  0.5838160000000  0.5230590000000 1.0
C      1  0.4295620000000  0.4556580000000  0.5254240000000 1.0
C      1  0.5814830000000  0.4871660000000  0.4654460000000 1.0
C      1  0.5455730000000  0.5026880000000  0.4370470000000 1.0
C      1  0.5615540000000  0.5479940000000  0.5663670000000 1.0
C      1  0.4874070000000  0.4672600000000  0.5698400000000 1.0
C      1  0.5310330000000  0.4251960000000  0.4727370000000 1.0
C      1  0.4041800000000  0.5155930000000  0.4747890000000 1.0
C      1  0.4460930000000  0.5362650000000  0.4987310000000 1.0
C      1  0.4816610000000  0.4910420000000  0.5843940000000 1.0
C      1  0.4359810000000  0.4280510000000  0.5230410000000 1.0
C      1  0.4970020000000  0.5104150000000  0.5455880000000 1.0
C      1  0.4483890000000  0.5156030000000  0.5630430000000 1.0
C      1  0.4822310000000  0.4322270000000  0.5398570000000 1.0
C      1  0.5752980000000  0.4653200000000  0.5104310000000 1.0
C      1  0.4894340000000  0.4537540000000  0.4485700000000 1.0
C      1  0.4353450000000  0.4924550000000  0.4422840000000 1.0
C      1  0.5807450000000  0.4642870000000  0.4819160000000 1.0
C      1  0.5459650000000  0.4934550000000  0.5622660000000 1.0
C      1  0.4999060000000  0.5130960000000  0.5753730000000 1.0
C      1  0.4632690000000  0.4171400000000  0.5267870000000 1.0
C      1  0.5246550000000  0.5080260000000  0.5088670000000 1.0
END
