TITL C-49252-4957-1 0.00158806219142089 125000 -54.2482609701579 0 0 9 (C1) n - 1
REM
REM in /rds/project/t2_vol4/rds-t2-cs072/BORA/CARBON/from-Arr/AIRSS/Generating-Clusters/GAP-ML-2020/Higher-Symm/SD-CG/HFTN-CG
REM
REM
REM
REM
REM
REM ./C.cell (b20cbc046b6831c77cfcea5457e17084)
REM AIRSS Version 0.9.1 bugfix July 2018 build 013d7b7c2542+ Fri, 06 Jul 2018 19:26:36 +0100
REM compiler GCC version 9.3.0
REM options -cpp -mtune=generic -march=x86-64 -g -O0
REM seed -1599799635 2016080397 -1658925489 -1609516618 -1938754467 691634053 -371764833 -1997165630 -372330287 644594622 1394558361 -1469465563 -1777184502 971882236 90999166 508701884 -1007692545 -1532251793 -1010525143 1164218810 1599338401 -976280995 -1067139064 1797617005 -286969188 1492120648 2058449781 750580835 -839464827 -1689839536 1948868928 -1226831841 -1271618054
REM
CELL 1.54180   50.00000   50.00000   50.00000   90.00000   90.00000   90.00000
LATT -1
SFAC C  
C      1  0.4755860000000  0.4960040000000  0.4611330000000 1.0
C      1  0.4881900000000  0.4726660000000  0.4643420000000 1.0
C      1  0.5126150000000  0.4739430000000  0.4739320000000 1.0
C      1  0.5313070000000  0.4907770000000  0.4797930000000 1.0
C      1  0.5210960000000  0.5153350000000  0.4906070000000 1.0
C      1  0.5057000000000  0.5337760000000  0.4745530000000 1.0
C      1  0.4864370000000  0.5184150000000  0.4665890000000 1.0
C      1  0.5052890000000  0.4882020000000  0.5255800000000 1.0
C      1  0.5128460000000  0.5096470000000  0.5156080000000 1.0
END
