TITL C-50695-4105-7 -21.0631371452959 125000 -926.429362682569 0 0 130 (C1) n - 1
REM
REM in /rds/project/t2_vol4/rds-t2-cs072/BORA/CARBON/from-Arr/AIRSS/Generating-Clusters/GAP-ML-2020/Higher-Symm/SD-CG/HFTN-CG
REM
REM
REM
REM
REM
REM ./C.cell (b20cbc046b6831c77cfcea5457e17084)
REM AIRSS Version 0.9.1 bugfix July 2018 build 013d7b7c2542+ Fri, 06 Jul 2018 19:26:36 +0100
REM compiler GCC version 9.3.0
REM options -cpp -mtune=generic -march=x86-64 -g -O0
REM seed -1063267575 -1133547176 892754211 -1541073748 -2025334618 -1401198287 1731860077 -139668435 1213527448 -669875701 -292497938 1830418661 -1884756515 -187531641 -1838092518 -606312018 -1999176195 -377169410 736598323 -1836508648 2040452825 -1818627507 375033184 264986982 1697696196 -1170293410 1849078963 2130666192 435349870 411627761 -1932930758 1180897899 -222862147
REM
CELL 1.54180   50.00000   50.00000   50.00000   90.00000   90.00000   90.00000
LATT -1
SFAC C  
C      1  0.4737940000000  0.5254380000000  0.4075030000000 1.0
C      1  0.4655330000000  0.4858340000000  0.4034310000000 1.0
C      1  0.5014950000000  0.4681800000000  0.3785630000000 1.0
C      1  0.5186240000000  0.5356780000000  0.4045580000000 1.0
C      1  0.5047200000000  0.5456950000000  0.6039830000000 1.0
C      1  0.5109660000000  0.5010120000000  0.6117930000000 1.0
C      1  0.4690150000000  0.4800180000000  0.5960820000000 1.0
C      1  0.4753770000000  0.5236860000000  0.5934500000000 1.0
C      1  0.5168630000000  0.5149500000000  0.4278690000000 1.0
C      1  0.4874230000000  0.5163400000000  0.4330820000000 1.0
C      1  0.4839240000000  0.4862620000000  0.4305390000000 1.0
C      1  0.5146460000000  0.4840000000000  0.4248560000000 1.0
C      1  0.4850710000000  0.5124400000000  0.5676610000000 1.0
C      1  0.5155490000000  0.5143950000000  0.5690150000000 1.0
C      1  0.5169470000000  0.4838000000000  0.5713660000000 1.0
C      1  0.4861830000000  0.4829670000000  0.5699840000000 1.0
C      1  0.4888360000000  0.4009760000000  0.5254150000000 1.0
C      1  0.5990580000000  0.4846150000000  0.5239840000000 1.0
C      1  0.5156250000000  0.5964730000000  0.5265920000000 1.0
C      1  0.4037260000000  0.5137680000000  0.5223780000000 1.0
C      1  0.5153250000000  0.4011420000000  0.4741360000000 1.0
C      1  0.4039570000000  0.4833460000000  0.4747350000000 1.0
C      1  0.4879320000000  0.5990780000000  0.4766840000000 1.0
C      1  0.5990060000000  0.5125380000000  0.4739740000000 1.0
C      1  0.4207550000000  0.5304080000000  0.5378790000000 1.0
C      1  0.4739880000000  0.4197070000000  0.5414770000000 1.0
C      1  0.5807510000000  0.4691150000000  0.5397320000000 1.0
C      1  0.5318500000000  0.5778460000000  0.5409800000000 1.0
C      1  0.5807190000000  0.5279940000000  0.4581920000000 1.0
C      1  0.5303290000000  0.4198230000000  0.4581480000000 1.0
C      1  0.4209780000000  0.4656400000000  0.4600740000000 1.0
C      1  0.4723730000000  0.5817940000000  0.4600810000000 1.0
C      1  0.4603090000000  0.5137410000000  0.4985130000000 1.0
C      1  0.4872380000000  0.4569810000000  0.4995080000000 1.0
C      1  0.5430130000000  0.4858230000000  0.4988010000000 1.0
C      1  0.5153870000000  0.5428040000000  0.4986900000000 1.0
C      1  0.5434850000000  0.5130410000000  0.4988750000000 1.0
C      1  0.5144270000000  0.4563630000000  0.4983830000000 1.0
C      1  0.4591190000000  0.4867900000000  0.5003310000000 1.0
C      1  0.4883580000000  0.5435740000000  0.5006860000000 1.0
C      1  0.6026580000000  0.5254240000000  0.4991200000000 1.0
C      1  0.4748290000000  0.6005210000000  0.5017220000000 1.0
C      1  0.4006920000000  0.4717740000000  0.5004750000000 1.0
C      1  0.5288960000000  0.3970440000000  0.4988880000000 1.0
C      1  0.4017720000000  0.5253110000000  0.4963660000000 1.0
C      1  0.5289090000000  0.6009520000000  0.5018140000000 1.0
C      1  0.6028140000000  0.4717660000000  0.4988020000000 1.0
C      1  0.4751890000000  0.3972930000000  0.5009020000000 1.0
C      1  0.5884350000000  0.5498440000000  0.4991970000000 1.0
C      1  0.4505810000000  0.5859650000000  0.5001260000000 1.0
C      1  0.4148310000000  0.4473830000000  0.5023040000000 1.0
C      1  0.5533730000000  0.4110390000000  0.4983980000000 1.0
C      1  0.4159120000000  0.5495830000000  0.4956690000000 1.0
C      1  0.5533660000000  0.5866450000000  0.5006120000000 1.0
C      1  0.5890810000000  0.4471800000000  0.4988250000000 1.0
C      1  0.4508220000000  0.4116130000000  0.5020340000000 1.0
C      1  0.5568610000000  0.5734120000000  0.5260970000000 1.0
C      1  0.4265470000000  0.5543180000000  0.5227090000000 1.0
C      1  0.4477410000000  0.4247660000000  0.5280020000000 1.0
C      1  0.5771150000000  0.4434670000000  0.5249760000000 1.0
C      1  0.4473310000000  0.5743200000000  0.4731670000000 1.0
C      1  0.5761140000000  0.5540990000000  0.4731250000000 1.0
C      1  0.5563240000000  0.4236630000000  0.4724240000000 1.0
C      1  0.4261110000000  0.4420340000000  0.4761360000000 1.0
C      1  0.5280460000000  0.4720590000000  0.4769620000000 1.0
C      1  0.5284970000000  0.5264640000000  0.4770800000000 1.0
C      1  0.4755080000000  0.5291560000000  0.4784000000000 1.0
C      1  0.4724320000000  0.4714560000000  0.4789190000000 1.0
C      1  0.4753440000000  0.4727380000000  0.5215530000000 1.0
C      1  0.4738330000000  0.5274850000000  0.5205750000000 1.0
C      1  0.5294120000000  0.5277640000000  0.5200230000000 1.0
C      1  0.5286150000000  0.4711660000000  0.5199800000000 1.0
C      1  0.5610190000000  0.5110730000000  0.4453150000000 1.0
C      1  0.4881840000000  0.5633070000000  0.4456190000000 1.0
C      1  0.4406410000000  0.4784380000000  0.4443840000000 1.0
C      1  0.5154600000000  0.4406740000000  0.4450440000000 1.0
C      1  0.4401150000000  0.5173080000000  0.5540130000000 1.0
C      1  0.5184600000000  0.5572400000000  0.5554850000000 1.0
C      1  0.5600690000000  0.4833980000000  0.5537610000000 1.0
C      1  0.4908670000000  0.4393760000000  0.5533010000000 1.0
C      1  0.4703530000000  0.4682060000000  0.4493080000000 1.0
C      1  0.5302790000000  0.4692310000000  0.4468700000000 1.0
C      1  0.5343050000000  0.5209570000000  0.4503660000000 1.0
C      1  0.4803400000000  0.5362340000000  0.4519880000000 1.0
C      1  0.5319590000000  0.4684930000000  0.5501710000000 1.0
C      1  0.4798370000000  0.4659410000000  0.5481370000000 1.0
C      1  0.4688970000000  0.5277010000000  0.5487210000000 1.0
C      1  0.5315330000000  0.5291640000000  0.5494710000000 1.0
C      1  0.5761930000000  0.5531740000000  0.5255460000000 1.0
C      1  0.4465180000000  0.5736920000000  0.5258660000000 1.0
C      1  0.4272330000000  0.4447590000000  0.5285130000000 1.0
C      1  0.5580560000000  0.4229290000000  0.5245980000000 1.0
C      1  0.4285290000000  0.5529750000000  0.4697840000000 1.0
C      1  0.5574880000000  0.5758740000000  0.4737840000000 1.0
C      1  0.5767040000000  0.4430180000000  0.4727240000000 1.0
C      1  0.4465850000000  0.4232320000000  0.4757950000000 1.0
C      1  0.5326160000000  0.5835760000000  0.4590550000000 1.0
C      1  0.4237380000000  0.5259940000000  0.4545380000000 1.0
C      1  0.4715820000000  0.4197200000000  0.4603800000000 1.0
C      1  0.5810460000000  0.4680550000000  0.4578710000000 1.0
C      1  0.4710180000000  0.5781360000000  0.5427000000000 1.0
C      1  0.5803600000000  0.5276860000000  0.5399640000000 1.0
C      1  0.5334170000000  0.4184600000000  0.5398170000000 1.0
C      1  0.4209270000000  0.4710390000000  0.5425010000000 1.0
C      1  0.5989210000000  0.4844120000000  0.4737100000000 1.0
C      1  0.5162420000000  0.5991130000000  0.4766190000000 1.0
C      1  0.4057320000000  0.5114470000000  0.4720310000000 1.0
C      1  0.4874420000000  0.4012730000000  0.4753970000000 1.0
C      1  0.4040590000000  0.4857800000000  0.5247480000000 1.0
C      1  0.4873470000000  0.5961660000000  0.5270770000000 1.0
C      1  0.5987680000000  0.5124780000000  0.5241180000000 1.0
C      1  0.5168450000000  0.4006670000000  0.5243580000000 1.0
C      1  0.4848810000000  0.5576730000000  0.5600220000000 1.0
C      1  0.4339730000000  0.4888070000000  0.5626790000000 1.0
C      1  0.5201330000000  0.4392160000000  0.5540550000000 1.0
C      1  0.5598960000000  0.5132720000000  0.5543290000000 1.0
C      1  0.5165640000000  0.5711830000000  0.4379400000000 1.0
C      1  0.5604460000000  0.4817450000000  0.4436010000000 1.0
C      1  0.4854510000000  0.4404100000000  0.4459370000000 1.0
C      1  0.4368750000000  0.5070470000000  0.4351070000000 1.0
C      1  0.5216640000000  0.5242820000000  0.5981520000000 1.0
C      1  0.4829110000000  0.5518350000000  0.5896230000000 1.0
C      1  0.4433550000000  0.4816510000000  0.5877160000000 1.0
C      1  0.5264310000000  0.4823340000000  0.5989050000000 1.0
C      1  0.4493840000000  0.5099080000000  0.4090870000000 1.0
C      1  0.5236860000000  0.5604340000000  0.4137570000000 1.0
C      1  0.5183890000000  0.4726140000000  0.3979100000000 1.0
C      1  0.4758010000000  0.4751770000000  0.3809840000000 1.0
C      1  0.4945650000000  0.5285350000000  0.3905560000000 1.0
C      1  0.4828030000000  0.5019530000000  0.6114920000000 1.0
END
