TITL C-50692-4197-9 -0.0394058352463604 125000 -407.488257710753 0 0 64 (T23) n - 1
REM
REM in /rds/project/t2_vol4/rds-t2-cs072/BORA/CARBON/from-Arr/AIRSS/Generating-Clusters/GAP-ML-2020/Higher-Symm/SD-CG/HFTN-CG
REM
REM
REM
REM
REM
REM ./C.cell (b20cbc046b6831c77cfcea5457e17084)
REM AIRSS Version 0.9.1 bugfix July 2018 build 013d7b7c2542+ Fri, 06 Jul 2018 19:26:36 +0100
REM compiler GCC version 9.3.0
REM options -cpp -mtune=generic -march=x86-64 -g -O0
REM seed -960944179 1954420779 1506639801 -872957596 326499365 223365440 -1754439123 -114696483 2120990173 -782364107 1284146176 -1540151922 1247822217 1684312216 -1990308226 1882312228 -1581508870 -1393296593 -1996867706 -444409619 -2014566506 -392727646 -2146823755 815990641 956192540 1310532871 -1653003122 -799264490 -388135604 1725306910 -1677397153 -359288039 -238954658
REM
CELL 1.54180   50.00000   50.00000   50.00000   90.00000   90.00000   90.00000
LATT -1
SFAC C  
C      1  0.5039320000000  0.5125090000000  0.4324040000000 1.0
C      1  0.4313510000000  0.5038050000000  0.5126580000000 1.0
C      1  0.5119930000000  0.4316090000000  0.5043390000000 1.0
C      1  0.5028330000000  0.4856220000000  0.5672240000000 1.0
C      1  0.4948010000000  0.4857750000000  0.4323100000000 1.0
C      1  0.4938720000000  0.5124140000000  0.5671810000000 1.0
C      1  0.4315240000000  0.4947840000000  0.4858880000000 1.0
C      1  0.5661670000000  0.4943300000000  0.5136630000000 1.0
C      1  0.5663970000000  0.5034010000000  0.4869100000000 1.0
C      1  0.5124890000000  0.5664660000000  0.4954210000000 1.0
C      1  0.4856590000000  0.5665430000000  0.5042660000000 1.0
C      1  0.4852990000000  0.4317030000000  0.4950920000000 1.0
C      1  0.4787950000000  0.4769040000000  0.4997980000000 1.0
C      1  0.4991530000000  0.4791070000000  0.4775230000000 1.0
C      1  0.4767720000000  0.4993590000000  0.4796200000000 1.0
C      1  0.4789390000000  0.5213830000000  0.4994610000000 1.0
C      1  0.5189220000000  0.5212560000000  0.5001400000000 1.0
C      1  0.5187830000000  0.4767770000000  0.4997190000000 1.0
C      1  0.4989460000000  0.5190520000000  0.5220390000000 1.0
C      1  0.4989010000000  0.5190950000000  0.4775580000000 1.0
C      1  0.4984400000000  0.4790670000000  0.5219980000000 1.0
C      1  0.4764700000000  0.4989430000000  0.5196050000000 1.0
C      1  0.5212480000000  0.4988380000000  0.4799540000000 1.0
C      1  0.5209490000000  0.4991800000000  0.5199400000000 1.0
C      1  0.5600310000000  0.5474380000000  0.4974470000000 1.0
C      1  0.4958520000000  0.5600420000000  0.5483650000000 1.0
C      1  0.5469410000000  0.4960320000000  0.5611380000000 1.0
C      1  0.5596800000000  0.4503340000000  0.5030290000000 1.0
C      1  0.4377310000000  0.4507270000000  0.4964390000000 1.0
C      1  0.4379970000000  0.5478210000000  0.5022040000000 1.0
C      1  0.4961940000000  0.4381360000000  0.4511520000000 1.0
C      1  0.5011380000000  0.4380280000000  0.5482920000000 1.0
C      1  0.5022550000000  0.5601140000000  0.4513100000000 1.0
C      1  0.5478760000000  0.5018190000000  0.4391510000000 1.0
C      1  0.4498620000000  0.5020150000000  0.5604140000000 1.0
C      1  0.4507610000000  0.4964540000000  0.4384160000000 1.0
C      1  0.4518690000000  0.5075950000000  0.4650850000000 1.0
C      1  0.4643000000000  0.4519050000000  0.5078090000000 1.0
C      1  0.5074390000000  0.4647490000000  0.4525340000000 1.0
C      1  0.4513000000000  0.4908660000000  0.5337640000000 1.0
C      1  0.5463670000000  0.4906290000000  0.4657800000000 1.0
C      1  0.5459030000000  0.5072310000000  0.5344900000000 1.0
C      1  0.4647260000000  0.5464740000000  0.4912340000000 1.0
C      1  0.5332940000000  0.5462400000000  0.5084150000000 1.0
C      1  0.5331190000000  0.4517020000000  0.4916610000000 1.0
C      1  0.5069460000000  0.5333580000000  0.5471510000000 1.0
C      1  0.4909920000000  0.5334980000000  0.4524740000000 1.0
C      1  0.4900630000000  0.4647150000000  0.5469600000000 1.0
C      1  0.5136500000000  0.5750930000000  0.4685260000000 1.0
C      1  0.4669010000000  0.5134230000000  0.5755850000000 1.0
C      1  0.5746800000000  0.4673910000000  0.5146340000000 1.0
C      1  0.5126950000000  0.4229760000000  0.5312480000000 1.0
C      1  0.4845420000000  0.4231250000000  0.4681670000000 1.0
C      1  0.4845520000000  0.5751260000000  0.5311770000000 1.0
C      1  0.4679530000000  0.4849370000000  0.4235020000000 1.0
C      1  0.5296750000000  0.4845970000000  0.5760300000000 1.0
C      1  0.5309100000000  0.5133630000000  0.4240020000000 1.0
C      1  0.5750950000000  0.5302850000000  0.4860680000000 1.0
C      1  0.4228250000000  0.5307420000000  0.5135510000000 1.0
C      1  0.4228400000000  0.4679020000000  0.4848660000000 1.0
C      1  0.4623050000000  0.5361830000000  0.4625860000000 1.0
C      1  0.4615140000000  0.4622120000000  0.5364180000000 1.0
C      1  0.5359710000000  0.4620450000000  0.4630720000000 1.0
C      1  0.5356500000000  0.5358800000000  0.5370430000000 1.0
END
