TITL C-50699-4136-3 -0.00500414842656244 125000 -224.003181973875 0 0 32 (Oh) n - 1
REM
REM in /rds/project/t2_vol4/rds-t2-cs072/BORA/CARBON/from-Arr/AIRSS/Generating-Clusters/GAP-ML-2020/Higher-Symm/SD-CG/HFTN-CG
REM
REM
REM
REM
REM
REM ./C.cell (b20cbc046b6831c77cfcea5457e17084)
REM AIRSS Version 0.9.1 bugfix July 2018 build 013d7b7c2542+ Fri, 06 Jul 2018 19:26:36 +0100
REM compiler GCC version 9.3.0
REM options -cpp -mtune=generic -march=x86-64 -g -O0
REM seed 1241666397 -527951423 -512599634 -137196081 -1148034015 -59546368 84559410 -1660267619 -683329223 355496079 -309361580 2025325033 -2128563825 -462897297 -642076085 -542586186 1271130392 -1512900311 -322095809 1948023232 1830044626 -1417677674 1807907693 1652775590 476602264 958384878 323059118 -195392396 1378537949 -1095026064 -444626737 2086814292 2042716474
REM
CELL 1.54180   50.00000   50.00000   50.00000   90.00000   90.00000   90.00000
LATT -1
SFAC C  
C      1  0.5143120000000  0.4839710000000  0.4517500000000 1.0
C      1  0.4504440000000  0.5134180000000  0.4861710000000 1.0
C      1  0.4848650000000  0.4495500000000  0.5156180000000 1.0
C      1  0.5143120000000  0.5134180000000  0.5500390000000 1.0
C      1  0.4848650000000  0.5134180000000  0.4517500000000 1.0
C      1  0.4848650000000  0.4839710000000  0.5500390000000 1.0
C      1  0.4504440000000  0.4839710000000  0.5156180000000 1.0
C      1  0.5487330000000  0.4839710000000  0.4861710000000 1.0
C      1  0.5487330000000  0.5134180000000  0.5156180000000 1.0
C      1  0.4848650000000  0.5478390000000  0.4861710000000 1.0
C      1  0.5143120000000  0.5478390000000  0.5156180000000 1.0
C      1  0.5143120000000  0.4495500000000  0.4861710000000 1.0
C      1  0.4848650000000  0.4839710000000  0.4517500000000 1.0
C      1  0.5487330000000  0.5134180000000  0.4861710000000 1.0
C      1  0.5143120000000  0.4495500000000  0.5156180000000 1.0
C      1  0.4848650000000  0.5134180000000  0.5500390000000 1.0
C      1  0.5143120000000  0.5134180000000  0.4517500000000 1.0
C      1  0.5143120000000  0.4839710000000  0.5500390000000 1.0
C      1  0.5487330000000  0.4839710000000  0.5156180000000 1.0
C      1  0.4504440000000  0.4839710000000  0.4861710000000 1.0
C      1  0.4504440000000  0.5134180000000  0.5156180000000 1.0
C      1  0.5143120000000  0.5478390000000  0.4861710000000 1.0
C      1  0.4848650000000  0.5478390000000  0.5156180000000 1.0
C      1  0.4848650000000  0.4495500000000  0.4861710000000 1.0
C      1  0.5291740000000  0.5282800000000  0.4713090000000 1.0
C      1  0.4700030000000  0.5282800000000  0.5304800000000 1.0
C      1  0.5291740000000  0.4691090000000  0.5304800000000 1.0
C      1  0.4700030000000  0.5282800000000  0.4713090000000 1.0
C      1  0.4700030000000  0.4691090000000  0.5304800000000 1.0
C      1  0.5291740000000  0.4691090000000  0.4713090000000 1.0
C      1  0.4700030000000  0.4691090000000  0.4713090000000 1.0
C      1  0.5291740000000  0.5282800000000  0.5304800000000 1.0
END
