TITL C-50697-4152-5 -57.729324243911 125000 -867.706967432648 0 0 128 (C4) n - 1
REM
REM in /rds/project/t2_vol4/rds-t2-cs072/BORA/CARBON/from-Arr/AIRSS/Generating-Clusters/GAP-ML-2020/Higher-Symm/SD-CG/HFTN-CG
REM
REM
REM
REM
REM
REM ./C.cell (b20cbc046b6831c77cfcea5457e17084)
REM AIRSS Version 0.9.1 bugfix July 2018 build 013d7b7c2542+ Fri, 06 Jul 2018 19:26:36 +0100
REM compiler GCC version 9.3.0
REM options -cpp -mtune=generic -march=x86-64 -g -O0
REM seed -694858253 -1850368858 -1814883405 -1462404907 -1770541228 -1233775304 1689853631 441306754 -2001059045 -1825283913 1679551524 -1783315153 -616324469 -1436900135 1692395167 1057192450 1681837677 1135509095 2105929115 233475654 1460946714 -752677793 1995159548 1567310545 -1059902836 970962520 -569800803 -923382240 2135338872 394161527 -749112274 1239133639 -1645646568
REM
CELL 1.54180   50.00000   50.00000   50.00000   90.00000   90.00000   90.00000
LATT -1
SFAC C  
C      1  0.5426650000000  0.5458910000000  0.5437050000000 1.0
C      1  0.5458900000000  0.4573340000000  0.5437050000000 1.0
C      1  0.4573330000000  0.4541090000000  0.5437030000000 1.0
C      1  0.4541080000000  0.5426660000000  0.5437030000000 1.0
C      1  0.5426650000000  0.4541070000000  0.4562970000000 1.0
C      1  0.5458940000000  0.5426640000000  0.4562970000000 1.0
C      1  0.4573370000000  0.5458930000000  0.4562950000000 1.0
C      1  0.4541080000000  0.4573360000000  0.4562950000000 1.0
C      1  0.5464390000000  0.5473950000000  0.5736510000000 1.0
C      1  0.5473930000000  0.4535590000000  0.5736510000000 1.0
C      1  0.4535580000000  0.4526050000000  0.5736490000000 1.0
C      1  0.4526030000000  0.5464410000000  0.5736490000000 1.0
C      1  0.5464400000000  0.4526030000000  0.4263510000000 1.0
C      1  0.5473990000000  0.5464390000000  0.4263510000000 1.0
C      1  0.4535630000000  0.5473980000000  0.4263490000000 1.0
C      1  0.4526040000000  0.4535620000000  0.4263490000000 1.0
C      1  0.4823090000000  0.4039890000000  0.4680750000000 1.0
C      1  0.4039900000000  0.5176920000000  0.4680730000000 1.0
C      1  0.5176920000000  0.5960110000000  0.4680760000000 1.0
C      1  0.5960110000000  0.4823080000000  0.4680770000000 1.0
C      1  0.4823120000000  0.5960110000000  0.5319250000000 1.0
C      1  0.4039880000000  0.4823130000000  0.5319220000000 1.0
C      1  0.5176860000000  0.4039880000000  0.5319250000000 1.0
C      1  0.5960110000000  0.5176870000000  0.5319270000000 1.0
C      1  0.4614870000000  0.4166890000000  0.4534850000000 1.0
C      1  0.4166900000000  0.5385150000000  0.4534850000000 1.0
C      1  0.5385150000000  0.5833110000000  0.4534880000000 1.0
C      1  0.5833120000000  0.4614860000000  0.4534880000000 1.0
C      1  0.4614890000000  0.5833130000000  0.5465130000000 1.0
C      1  0.4166860000000  0.4614900000000  0.5465120000000 1.0
C      1  0.5385090000000  0.4166870000000  0.5465140000000 1.0
C      1  0.5833120000000  0.5385100000000  0.5465160000000 1.0
C      1  0.4844990000000  0.4655030000000  0.4937460000000 1.0
C      1  0.4655030000000  0.5155010000000  0.4937460000000 1.0
C      1  0.5155010000000  0.5344970000000  0.4937470000000 1.0
C      1  0.5344970000000  0.4844990000000  0.4937480000000 1.0
C      1  0.4845010000000  0.5344980000000  0.5062530000000 1.0
C      1  0.4655020000000  0.4845010000000  0.5062520000000 1.0
C      1  0.5154990000000  0.4655020000000  0.5062530000000 1.0
C      1  0.5344970000000  0.5154990000000  0.5062540000000 1.0
C      1  0.4098740000000  0.4853150000000  0.5023870000000 1.0
C      1  0.4853150000000  0.5901260000000  0.5023890000000 1.0
C      1  0.5901260000000  0.5146850000000  0.5023910000000 1.0
C      1  0.5146850000000  0.4098740000000  0.5023880000000 1.0
C      1  0.4098750000000  0.5146900000000  0.4976100000000 1.0
C      1  0.4853100000000  0.4098750000000  0.4976110000000 1.0
C      1  0.5901260000000  0.4853100000000  0.4976130000000 1.0
C      1  0.5146900000000  0.5901260000000  0.4976120000000 1.0
C      1  0.5677690000000  0.5280360000000  0.5695490000000 1.0
C      1  0.5280350000000  0.4322290000000  0.5695480000000 1.0
C      1  0.4322280000000  0.4719630000000  0.5695460000000 1.0
C      1  0.4719620000000  0.5677700000000  0.5695470000000 1.0
C      1  0.5677710000000  0.4719600000000  0.4304540000000 1.0
C      1  0.5280410000000  0.5677690000000  0.4304530000000 1.0
C      1  0.4322320000000  0.5280400000000  0.4304510000000 1.0
C      1  0.4719620000000  0.4322310000000  0.4304510000000 1.0
C      1  0.5021090000000  0.5637130000000  0.5639110000000 1.0
C      1  0.5637120000000  0.4978890000000  0.5639120000000 1.0
C      1  0.4978880000000  0.4362860000000  0.5639100000000 1.0
C      1  0.4362850000000  0.5021100000000  0.5639090000000 1.0
C      1  0.5021080000000  0.4362860000000  0.4360890000000 1.0
C      1  0.5637150000000  0.5021070000000  0.4360910000000 1.0
C      1  0.4978940000000  0.5637140000000  0.4360900000000 1.0
C      1  0.4362880000000  0.4978930000000  0.4360880000000 1.0
C      1  0.4324390000000  0.4558660000000  0.4754470000000 1.0
C      1  0.4558660000000  0.5675610000000  0.4754480000000 1.0
C      1  0.5675620000000  0.5441340000000  0.4754500000000 1.0
C      1  0.5441350000000  0.4324390000000  0.4754490000000 1.0
C      1  0.4324400000000  0.5441370000000  0.5245500000000 1.0
C      1  0.4558620000000  0.4324410000000  0.5245500000000 1.0
C      1  0.5675590000000  0.4558620000000  0.5245530000000 1.0
C      1  0.5441370000000  0.5675590000000  0.5245530000000 1.0
C      1  0.4093680000000  0.5270470000000  0.5252030000000 1.0
C      1  0.5270470000000  0.5906310000000  0.5252060000000 1.0
C      1  0.5906310000000  0.4729530000000  0.5252070000000 1.0
C      1  0.4729520000000  0.4093680000000  0.5252040000000 1.0
C      1  0.4093680000000  0.4729570000000  0.4747930000000 1.0
C      1  0.5270430000000  0.4093670000000  0.4747950000000 1.0
C      1  0.5906330000000  0.5270430000000  0.4747970000000 1.0
C      1  0.4729580000000  0.5906330000000  0.4747950000000 1.0
C      1  0.4937950000000  0.4119930000000  0.5441250000000 1.0
C      1  0.4119920000000  0.5062040000000  0.5441240000000 1.0
C      1  0.5062030000000  0.5880070000000  0.5441260000000 1.0
C      1  0.5880060000000  0.4937960000000  0.5441270000000 1.0
C      1  0.4938010000000  0.5880070000000  0.4558750000000 1.0
C      1  0.4119940000000  0.4938000000000  0.4558730000000 1.0
C      1  0.5062010000000  0.4119930000000  0.4558740000000 1.0
C      1  0.5880080000000  0.5062000000000  0.4558760000000 1.0
C      1  0.4645280000000  0.4972280000000  0.4528630000000 1.0
C      1  0.4972290000000  0.5354730000000  0.4528630000000 1.0
C      1  0.5354740000000  0.5027720000000  0.4528640000000 1.0
C      1  0.5027730000000  0.4645270000000  0.4528630000000 1.0
C      1  0.4645260000000  0.5027730000000  0.5471360000000 1.0
C      1  0.4972260000000  0.4645270000000  0.5471360000000 1.0
C      1  0.5354720000000  0.4972260000000  0.5471370000000 1.0
C      1  0.5027720000000  0.5354730000000  0.5471370000000 1.0
C      1  0.4407760000000  0.5246930000000  0.5837270000000 1.0
C      1  0.5246920000000  0.5592220000000  0.5837290000000 1.0
C      1  0.5592210000000  0.4753060000000  0.5837290000000 1.0
C      1  0.4753050000000  0.4407770000000  0.5837270000000 1.0
C      1  0.4407780000000  0.4753100000000  0.4162700000000 1.0
C      1  0.5246920000000  0.4407760000000  0.4162720000000 1.0
C      1  0.5592260000000  0.5246910000000  0.4162730000000 1.0
C      1  0.4753110000000  0.5592240000000  0.4162720000000 1.0
C      1  0.5678080000000  0.4496760000000  0.4746230000000 1.0
C      1  0.4496770000000  0.4321930000000  0.4746200000000 1.0
C      1  0.4321930000000  0.5503240000000  0.4746210000000 1.0
C      1  0.5503240000000  0.5678080000000  0.4746230000000 1.0
C      1  0.5678100000000  0.5503200000000  0.5253800000000 1.0
C      1  0.4496790000000  0.5678100000000  0.5253770000000 1.0
C      1  0.4321890000000  0.4496800000000  0.5253760000000 1.0
C      1  0.5503200000000  0.4321900000000  0.5253790000000 1.0
C      1  0.4371350000000  0.4692500000000  0.5024740000000 1.0
C      1  0.4692500000000  0.5628650000000  0.5024750000000 1.0
C      1  0.5628650000000  0.5307500000000  0.5024770000000 1.0
C      1  0.5307500000000  0.4371350000000  0.5024760000000 1.0
C      1  0.4371360000000  0.5307530000000  0.4975240000000 1.0
C      1  0.4692470000000  0.4371360000000  0.4975240000000 1.0
C      1  0.5628640000000  0.4692470000000  0.4975260000000 1.0
C      1  0.5307530000000  0.5628640000000  0.4975260000000 1.0
C      1  0.5271690000000  0.4783190000000  0.4636130000000 1.0
C      1  0.4783190000000  0.4728320000000  0.4636120000000 1.0
C      1  0.4728320000000  0.5216810000000  0.4636120000000 1.0
C      1  0.5216820000000  0.5271690000000  0.4636130000000 1.0
C      1  0.5271690000000  0.5216800000000  0.5363880000000 1.0
C      1  0.4783190000000  0.5271690000000  0.5363870000000 1.0
C      1  0.4728300000000  0.4783200000000  0.5363870000000 1.0
C      1  0.5216790000000  0.4728300000000  0.5363880000000 1.0
END
