TITL C-50682-4179-2 -203.905256880309 125000 -674.480698828512 0 0 95 (C1) n - 1
REM
REM in /rds/project/t2_vol4/rds-t2-cs072/BORA/CARBON/from-Arr/AIRSS/Generating-Clusters/GAP-ML-2020/Higher-Symm/SD-CG/HFTN-CG
REM
REM
REM
REM
REM
REM ./C.cell (b20cbc046b6831c77cfcea5457e17084)
REM AIRSS Version 0.9.1 bugfix July 2018 build 013d7b7c2542+ Fri, 06 Jul 2018 19:26:36 +0100
REM compiler GCC version 9.3.0
REM options -cpp -mtune=generic -march=x86-64 -g -O0
REM seed -1009094141 -201325573 -2094777617 -285473041 -644681089 -313151929 1473037938 -349416962 -1243512318 -471514211 -361284070 1195038594 -750872080 -1869528796 2036444334 1932908281 -181011471 1117034482 1031286179 -1082086685 2034988128 1883737759 -1696808224 2135546023 913242519 -837273390 -91269878 1735124350 879434646 1714552522 696052508 -1318983205 -365732346
REM
CELL 1.54180   50.00000   50.00000   50.00000   90.00000   90.00000   90.00000
LATT -1
SFAC C  
C      1  0.4530410000000  0.5567730000000  0.4504040000000 1.0
C      1  0.4531490000000  0.5723470000000  0.4749370000000 1.0
C      1  0.4501830000000  0.5717250000000  0.5292380000000 1.0
C      1  0.4519100000000  0.5549160000000  0.5530060000000 1.0
C      1  0.4476030000000  0.4988050000000  0.5677780000000 1.0
C      1  0.4509380000000  0.4706900000000  0.5653390000000 1.0
C      1  0.4428750000000  0.4530000000000  0.5431840000000 1.0
C      1  0.4395160000000  0.4287380000000  0.4880300000000 1.0
C      1  0.4442100000000  0.4376510000000  0.4607000000000 1.0
C      1  0.4548890000000  0.4790190000000  0.4278690000000 1.0
C      1  0.4578720000000  0.5076560000000  0.4250480000000 1.0
C      1  0.5216720000000  0.5490440000000  0.4287660000000 1.0
C      1  0.5213300000000  0.5704180000000  0.4481120000000 1.0
C      1  0.5179990000000  0.5866890000000  0.5121790000000 1.0
C      1  0.5189990000000  0.5792450000000  0.5402410000000 1.0
C      1  0.5166950000000  0.5255570000000  0.5798210000000 1.0
C      1  0.5186710000000  0.4963960000000  0.5815640000000 1.0
C      1  0.5270460000000  0.4411790000000  0.5481640000000 1.0
C      1  0.5291590000000  0.4239290000000  0.5255780000000 1.0
C      1  0.5267280000000  0.4232780000000  0.4663700000000 1.0
C      1  0.5179870000000  0.4399350000000  0.4439480000000 1.0
C      1  0.5263990000000  0.4827580000000  0.4217430000000 1.0
C      1  0.4725360000000  0.5094330000000  0.5809780000000 1.0
C      1  0.4757920000000  0.4639100000000  0.5767220000000 1.0
C      1  0.4634620000000  0.4320460000000  0.5421770000000 1.0
C      1  0.4624920000000  0.4152760000000  0.4958050000000 1.0
C      1  0.4702900000000  0.4286100000000  0.4517470000000 1.0
C      1  0.4806900000000  0.4664690000000  0.4230490000000 1.0
C      1  0.4848230000000  0.5137880000000  0.4168140000000 1.0
C      1  0.4780930000000  0.5585610000000  0.4377140000000 1.0
C      1  0.4792840000000  0.5840120000000  0.4777290000000 1.0
C      1  0.4749070000000  0.5846780000000  0.5271290000000 1.0
C      1  0.4779030000000  0.5570480000000  0.5658780000000 1.0
C      1  0.5028840000000  0.4549930000000  0.5479580000000 1.0
C      1  0.5050860000000  0.4154690000000  0.5121410000000 1.0
C      1  0.5063510000000  0.4120960000000  0.4831280000000 1.0
C      1  0.5112350000000  0.4651100000000  0.4862460000000 1.0
C      1  0.4873100000000  0.4770570000000  0.4795190000000 1.0
C      1  0.4949950000000  0.5010530000000  0.4653240000000 1.0
C      1  0.5067380000000  0.5207780000000  0.4799770000000 1.0
C      1  0.4843280000000  0.5283080000000  0.4984380000000 1.0
C      1  0.4984990000000  0.5289410000000  0.5214360000000 1.0
C      1  0.5032480000000  0.5073340000000  0.5354580000000 1.0
C      1  0.4983970000000  0.4816320000000  0.5261620000000 1.0
C      1  0.5393460000000  0.5617150000000  0.5484490000000 1.0
C      1  0.5380160000000  0.5385510000000  0.5660760000000 1.0
C      1  0.5418960000000  0.4837750000000  0.5696880000000 1.0
C      1  0.5475980000000  0.4581980000000  0.5568170000000 1.0
C      1  0.5511790000000  0.4299590000000  0.5092900000000 1.0
C      1  0.5496200000000  0.4311610000000  0.4806860000000 1.0
C      1  0.5354210000000  0.4618280000000  0.4389080000000 1.0
C      1  0.5444290000000  0.5040160000000  0.4254960000000 1.0
C      1  0.5440510000000  0.5323650000000  0.4303590000000 1.0
C      1  0.5414150000000  0.5709080000000  0.4677110000000 1.0
C      1  0.5389690000000  0.5772200000000  0.4958950000000 1.0
C      1  0.5619140000000  0.4992710000000  0.4486150000000 1.0
C      1  0.5622250000000  0.5289650000000  0.4542510000000 1.0
C      1  0.5610550000000  0.5491620000000  0.4736500000000 1.0
C      1  0.5584410000000  0.5560050000000  0.5030830000000 1.0
C      1  0.5581880000000  0.5476560000000  0.5299080000000 1.0
C      1  0.5576070000000  0.5241030000000  0.5476540000000 1.0
C      1  0.5600750000000  0.4965740000000  0.5494840000000 1.0
C      1  0.5650280000000  0.4704020000000  0.5354890000000 1.0
C      1  0.5667680000000  0.4561490000000  0.5106660000000 1.0
C      1  0.5645260000000  0.4569310000000  0.4800340000000 1.0
C      1  0.5567750000000  0.4724190000000  0.4577230000000 1.0
C      1  0.4235080000000  0.4929500000000  0.5246260000000 1.0
C      1  0.4258190000000  0.4646620000000  0.5222280000000 1.0
C      1  0.4261300000000  0.4534590000000  0.4958230000000 1.0
C      1  0.4287610000000  0.4623060000000  0.4672480000000 1.0
C      1  0.4347080000000  0.4834090000000  0.4498880000000 1.0
C      1  0.4376130000000  0.5123680000000  0.4473340000000 1.0
C      1  0.4349890000000  0.5366760000000  0.4615280000000 1.0
C      1  0.4338040000000  0.5530280000000  0.4869750000000 1.0
C      1  0.4330770000000  0.5519350000000  0.5151370000000 1.0
C      1  0.4334150000000  0.5361700000000  0.5406810000000 1.0
C      1  0.4299080000000  0.5090380000000  0.5476780000000 1.0
C      1  0.4826100000000  0.4413610000000  0.5611060000000 1.0
C      1  0.4767540000000  0.4180560000000  0.5199210000000 1.0
C      1  0.4800410000000  0.4132460000000  0.4735910000000 1.0
C      1  0.4900450000000  0.4424780000000  0.4359220000000 1.0
C      1  0.4987100000000  0.4875800000000  0.4159700000000 1.0
C      1  0.4946480000000  0.5400900000000  0.4225570000000 1.0
C      1  0.4938330000000  0.5759770000000  0.4541000000000 1.0
C      1  0.4905490000000  0.5897530000000  0.5035110000000 1.0
C      1  0.4917330000000  0.5763980000000  0.5492580000000 1.0
C      1  0.4882620000000  0.5338920000000  0.5795860000000 1.0
C      1  0.4905800000000  0.4874900000000  0.5844180000000 1.0
C      1  0.4747650000000  0.4819600000000  0.5058900000000 1.0
C      1  0.5857830000000  0.5062100000000  0.5000220000000 1.0
C      1  0.4619780000000  0.5077600000000  0.5016360000000 1.0
C      1  0.5320450000000  0.5064340000000  0.4964310000000 1.0
C      1  0.5221060000000  0.4812810000000  0.5059780000000 1.0
C      1  0.4332940000000  0.5082040000000  0.5030680000000 1.0
C      1  0.5611980000000  0.5088740000000  0.4958120000000 1.0
END
