TITL C-50684-4170-4 0.00220971420686724 125000 -22.947849493641 0 0 4 (D(inf)h) n - 1
REM
REM in /rds/project/t2_vol4/rds-t2-cs072/BORA/CARBON/from-Arr/AIRSS/Generating-Clusters/GAP-ML-2020/Higher-Symm/SD-CG/HFTN-CG
REM
REM
REM
REM
REM
REM ./C.cell (b20cbc046b6831c77cfcea5457e17084)
REM AIRSS Version 0.9.1 bugfix July 2018 build 013d7b7c2542+ Fri, 06 Jul 2018 19:26:36 +0100
REM compiler GCC version 9.3.0
REM options -cpp -mtune=generic -march=x86-64 -g -O0
REM seed 1553776540 -419448333 -746494311 -1017440057 272089268 1613488006 804666872 1258765005 -540640297 669954467 -1995455299 752660400 -1948930521 1924653682 525006617 619823317 -689187745 2800967 1946196820 -278071476 1468077001 -1409232076 1812461119 -467489951 341705892 -448269647 -1151379257 42752213 -203478515 1938821407 2021386466 414667488 -683860220
REM
CELL 1.54180   50.00000   50.00000   50.00000   90.00000   90.00000   90.00000
LATT -1
SFAC C  
C      1  0.4997340000000  0.4611370000000  0.4984750000000 1.0
C      1  0.4997340000000  0.5134660000000  0.4984750000000 1.0
C      1  0.4997340000000  0.5388630000000  0.4984750000000 1.0
C      1  0.4997340000000  0.4865340000000  0.4984750000000 1.0
END
