TITL C-50697-4152-2 -56.030904564898 125000 -229.835994379369 0 0 38 (C1) n - 1
REM
REM in /rds/project/t2_vol4/rds-t2-cs072/BORA/CARBON/from-Arr/AIRSS/Generating-Clusters/GAP-ML-2020/Higher-Symm/SD-CG/HFTN-CG
REM
REM
REM
REM
REM
REM ./C.cell (b20cbc046b6831c77cfcea5457e17084)
REM AIRSS Version 0.9.1 bugfix July 2018 build 013d7b7c2542+ Fri, 06 Jul 2018 19:26:36 +0100
REM compiler GCC version 9.3.0
REM options -cpp -mtune=generic -march=x86-64 -g -O0
REM seed 441674288 150242879 509242497 -546808404 921740338 -771707166 634359287 599042680 -862419758 -1695993078 -1707867048 -1197706424 215836106 -1256296906 -1073804989 -1237658313 -47274750 -1403326616 347177784 -2003386755 -828262121 -1182139121 -1542008368 -534120377 -876241194 685594007 -1157868638 2076101197 -935624025 919977014 -362027298 -1462600488 92993804
REM
CELL 1.54180   50.00000   50.00000   50.00000   90.00000   90.00000   90.00000
LATT -1
SFAC C  
C      1  0.4761230000000  0.5116390000000  0.5515570000000 1.0
C      1  0.4651960000000  0.5153920000000  0.4536370000000 1.0
C      1  0.5579110000000  0.5192340000000  0.4928660000000 1.0
C      1  0.4786910000000  0.4863000000000  0.5537300000000 1.0
C      1  0.4683170000000  0.4900290000000  0.4534550000000 1.0
C      1  0.5574210000000  0.4937370000000  0.4948200000000 1.0
C      1  0.5413400000000  0.5333290000000  0.4719600000000 1.0
C      1  0.5012120000000  0.5293700000000  0.5505890000000 1.0
C      1  0.4542690000000  0.5314270000000  0.4760180000000 1.0
C      1  0.5459540000000  0.4750690000000  0.4742610000000 1.0
C      1  0.5035230000000  0.4705570000000  0.5513720000000 1.0
C      1  0.4573050000000  0.4728900000000  0.4765810000000 1.0
C      1  0.5171850000000  0.5458720000000  0.4806790000000 1.0
C      1  0.5063690000000  0.5448390000000  0.5270070000000 1.0
C      1  0.4723660000000  0.5437540000000  0.4947810000000 1.0
C      1  0.5215750000000  0.4604330000000  0.4801550000000 1.0
C      1  0.5102970000000  0.4592970000000  0.5256810000000 1.0
C      1  0.4759870000000  0.4583210000000  0.4928500000000 1.0
C      1  0.5457670000000  0.4889550000000  0.4492450000000 1.0
C      1  0.5236270000000  0.4864400000000  0.5639400000000 1.0
C      1  0.4362920000000  0.4870670000000  0.4895130000000 1.0
C      1  0.5411580000000  0.5173720000000  0.4484940000000 1.0
C      1  0.5230470000000  0.5152230000000  0.5617120000000 1.0
C      1  0.4335070000000  0.5156980000000  0.4876240000000 1.0
C      1  0.5105740000000  0.4874140000000  0.4850140000000 1.0
C      1  0.5099860000000  0.4869630000000  0.5154560000000 1.0
C      1  0.4833380000000  0.4862550000000  0.5003720000000 1.0
C      1  0.5085500000000  0.5176600000000  0.4847040000000 1.0
C      1  0.5090720000000  0.5173150000000  0.5156330000000 1.0
C      1  0.4825150000000  0.5165550000000  0.5000680000000 1.0
C      1  0.4267050000000  0.5179890000000  0.5157880000000 1.0
C      1  0.5170760000000  0.5091580000000  0.4330770000000 1.0
C      1  0.5488700000000  0.5110250000000  0.5479590000000 1.0
C      1  0.4348360000000  0.4927380000000  0.5186650000000 1.0
C      1  0.5252120000000  0.4840410000000  0.4292540000000 1.0
C      1  0.5514950000000  0.4856400000000  0.5560400000000 1.0
C      1  0.4985930000000  0.5569470000000  0.5009340000000 1.0
C      1  0.5027600000000  0.4470700000000  0.4994580000000 1.0
END
