TITL C-50669-4093-9 -0.0198481226300285 125000 -545.722586071586 0 0 80 (C2) n - 1
REM
REM in /rds/project/t2_vol4/rds-t2-cs072/BORA/CARBON/from-Arr/AIRSS/Generating-Clusters/GAP-ML-2020/Higher-Symm/SD-CG/HFTN-CG
REM
REM
REM
REM
REM
REM ./C.cell (b20cbc046b6831c77cfcea5457e17084)
REM AIRSS Version 0.9.1 bugfix July 2018 build 013d7b7c2542+ Fri, 06 Jul 2018 19:26:36 +0100
REM compiler GCC version 9.3.0
REM options -cpp -mtune=generic -march=x86-64 -g -O0
REM seed 1459446171 1687649469 -98347164 -141049168 -357426952 -821196219 1943156028 1426377773 313176565 1417350142 449039628 1506766903 -528072580 -1594402703 882694884 78400777 1100000582 1847285157 -227636966 2006874912 1114718343 -1365589918 -1190095619 -215217548 1233436364 1348165923 352820524 391497563 800605795 1198098584 -1881777409 1237877896 -1029744208
REM
CELL 1.54180   50.00000   50.00000   50.00000   90.00000   90.00000   90.00000
LATT -1
SFAC C  
C      1  0.4305510000000  0.5166950000000  0.5429730000000 1.0
C      1  0.4277550000000  0.4891250000000  0.4598620000000 1.0
C      1  0.5090300000000  0.4480980000000  0.5489340000000 1.0
C      1  0.5112940000000  0.5510670000000  0.4506590000000 1.0
C      1  0.4766270000000  0.5613370000000  0.5198660000000 1.0
C      1  0.4709020000000  0.4408180000000  0.4811840000000 1.0
C      1  0.4907260000000  0.4616860000000  0.4123920000000 1.0
C      1  0.4974050000000  0.5388010000000  0.5878460000000 1.0
C      1  0.4660780000000  0.5151440000000  0.5087930000000 1.0
C      1  0.4646270000000  0.4877020000000  0.4925930000000 1.0
C      1  0.5302770000000  0.5767920000000  0.4915180000000 1.0
C      1  0.5241940000000  0.4209710000000  0.5073920000000 1.0
C      1  0.4560300000000  0.4912410000000  0.4637460000000 1.0
C      1  0.4583800000000  0.5122750000000  0.5379670000000 1.0
C      1  0.5714220000000  0.4761320000000  0.5013720000000 1.0
C      1  0.5730270000000  0.5179340000000  0.4957380000000 1.0
C      1  0.5534430000000  0.4447320000000  0.5324810000000 1.0
C      1  0.5564540000000  0.5507530000000  0.4653200000000 1.0
C      1  0.4756360000000  0.4659360000000  0.5749320000000 1.0
C      1  0.4755380000000  0.5360690000000  0.4260450000000 1.0
C      1  0.4993190000000  0.4423370000000  0.4272950000000 1.0
C      1  0.5069530000000  0.5574050000000  0.5725790000000 1.0
C      1  0.4810860000000  0.5739470000000  0.4919030000000 1.0
C      1  0.4754260000000  0.4278390000000  0.5089670000000 1.0
C      1  0.4484990000000  0.5400160000000  0.4917540000000 1.0
C      1  0.4457620000000  0.4643280000000  0.5103620000000 1.0
C      1  0.5701780000000  0.4938640000000  0.4783080000000 1.0
C      1  0.5712550000000  0.5003260000000  0.5188610000000 1.0
C      1  0.5465860000000  0.4827910000000  0.5567320000000 1.0
C      1  0.5455370000000  0.5134240000000  0.4414240000000 1.0
C      1  0.4134920000000  0.5124840000000  0.4665920000000 1.0
C      1  0.4141640000000  0.4945960000000  0.5368560000000 1.0
C      1  0.5486610000000  0.5626200000000  0.5093810000000 1.0
C      1  0.5429490000000  0.4336170000000  0.4887860000000 1.0
C      1  0.4332270000000  0.5443770000000  0.5389820000000 1.0
C      1  0.4283100000000  0.4613110000000  0.4637890000000 1.0
C      1  0.5169880000000  0.4769320000000  0.5573550000000 1.0
C      1  0.5165180000000  0.5216920000000  0.4419750000000 1.0
C      1  0.4207370000000  0.4739020000000  0.5236610000000 1.0
C      1  0.4222620000000  0.5325470000000  0.4794800000000 1.0
C      1  0.4986990000000  0.5789070000000  0.5296620000000 1.0
C      1  0.4910500000000  0.4215140000000  0.4705430000000 1.0
C      1  0.4477210000000  0.5556980000000  0.5190440000000 1.0
C      1  0.4426120000000  0.4488070000000  0.4831500000000 1.0
C      1  0.5644550000000  0.5450320000000  0.4924630000000 1.0
C      1  0.5607950000000  0.4498230000000  0.5050310000000 1.0
C      1  0.4766720000000  0.4842450000000  0.4460130000000 1.0
C      1  0.4802170000000  0.5175260000000  0.5548490000000 1.0
C      1  0.4927170000000  0.5155710000000  0.4210090000000 1.0
C      1  0.4946250000000  0.4849490000000  0.5792450000000 1.0
C      1  0.5323080000000  0.4686750000000  0.4562010000000 1.0
C      1  0.5364910000000  0.5284990000000  0.5424220000000 1.0
C      1  0.5274850000000  0.4324830000000  0.5339000000000 1.0
C      1  0.5315520000000  0.5650920000000  0.4649180000000 1.0
C      1  0.4874900000000  0.4676710000000  0.4855110000000 1.0
C      1  0.4907720000000  0.5332220000000  0.5149240000000 1.0
C      1  0.4835220000000  0.4878890000000  0.4188940000000 1.0
C      1  0.4878230000000  0.5132890000000  0.5816800000000 1.0
C      1  0.4638640000000  0.4450910000000  0.5270740000000 1.0
C      1  0.4674350000000  0.5577320000000  0.4743010000000 1.0
C      1  0.5186860000000  0.5099520000000  0.4899700000000 1.0
C      1  0.5181930000000  0.4885330000000  0.5092920000000 1.0
C      1  0.4794850000000  0.4498190000000  0.5514370000000 1.0
C      1  0.4816310000000  0.5517790000000  0.4493410000000 1.0
C      1  0.5074070000000  0.4933540000000  0.5348290000000 1.0
C      1  0.5065300000000  0.5060730000000  0.4648920000000 1.0
C      1  0.5614060000000  0.4607920000000  0.5527540000000 1.0
C      1  0.5622580000000  0.5341280000000  0.4447710000000 1.0
C      1  0.5055100000000  0.5848520000000  0.5019930000000 1.0
C      1  0.4984500000000  0.4149860000000  0.4979280000000 1.0
C      1  0.5128230000000  0.5347530000000  0.4976650000000 1.0
C      1  0.5100140000000  0.4643090000000  0.5018780000000 1.0
C      1  0.5090830000000  0.4295480000000  0.4503960000000 1.0
C      1  0.5168020000000  0.5693890000000  0.5490860000000 1.0
C      1  0.5042480000000  0.5211220000000  0.5386630000000 1.0
C      1  0.5009540000000  0.4786640000000  0.4612330000000 1.0
C      1  0.5397840000000  0.5560090000000  0.5359960000000 1.0
C      1  0.5335880000000  0.4409770000000  0.4625350000000 1.0
C      1  0.5525390000000  0.4889210000000  0.4557500000000 1.0
C      1  0.5549960000000  0.5066620000000  0.5420980000000 1.0
END
