TITL C-50688-9834-6 -57.4679119494301 125000 -430.380379871345 0 0 64 (C1) n - 1
REM
REM in /rds/project/t2_vol4/rds-t2-cs072/BORA/CARBON/from-Arr/AIRSS/Generating-Clusters/GAP-ML-2020/Higher-Symm/SD-CG/HFTN-CG
REM
REM
REM
REM
REM
REM ./C.cell (b20cbc046b6831c77cfcea5457e17084)
REM AIRSS Version 0.9.1 bugfix July 2018 build 013d7b7c2542+ Fri, 06 Jul 2018 19:26:36 +0100
REM compiler GCC version 9.3.0
REM options -cpp -mtune=generic -march=x86-64 -g -O0
REM seed 1905700869 -503514811 747028856 -1628461380 -1516260335 -1526390333 1570619825 -841941682 420566969 -1175262396 -1627717795 -1380565129 -221886821 1688334481 -919622063 -1625624846 895732082 -1638549068 1793650368 1716292663 -117120484 778155201 1818603384 -180121598 -2077690652 -119902351 1244851673 411783548 -2102237002 -1085136856 825795607 -641012586 -146152914
REM
CELL 1.54180   50.00000   50.00000   50.00000   90.00000   90.00000   90.00000
LATT -1
SFAC C  
C      1  0.4481310000000  0.4890000000000  0.5287660000000 1.0
C      1  0.5341600000000  0.4508870000000  0.4958380000000 1.0
C      1  0.4839790000000  0.5275370000000  0.4481890000000 1.0
C      1  0.4441850000000  0.5101550000000  0.4709980000000 1.0
C      1  0.5561610000000  0.5104770000000  0.5370740000000 1.0
C      1  0.5471490000000  0.5050740000000  0.4674430000000 1.0
C      1  0.5334590000000  0.5472030000000  0.5106240000000 1.0
C      1  0.4681490000000  0.5487790000000  0.4900130000000 1.0
C      1  0.4725310000000  0.4575450000000  0.5023330000000 1.0
C      1  0.4896020000000  0.4687400000000  0.5483720000000 1.0
C      1  0.5160480000000  0.4733880000000  0.4510660000000 1.0
C      1  0.5094040000000  0.5259460000000  0.5450550000000 1.0
C      1  0.4460140000000  0.5306020000000  0.4907380000000 1.0
C      1  0.5321730000000  0.4964520000000  0.4451920000000 1.0
C      1  0.4883570000000  0.4491060000000  0.5288870000000 1.0
C      1  0.4468110000000  0.4702630000000  0.5083660000000 1.0
C      1  0.5488610000000  0.5234080000000  0.5098270000000 1.0
C      1  0.5494700000000  0.4732270000000  0.5032860000000 1.0
C      1  0.5345050000000  0.5091390000000  0.5540340000000 1.0
C      1  0.4731620000000  0.4941510000000  0.5413800000000 1.0
C      1  0.4646970000000  0.5068840000000  0.4517970000000 1.0
C      1  0.4872580000000  0.5466470000000  0.4685610000000 1.0
C      1  0.5126830000000  0.4584420000000  0.4753970000000 1.0
C      1  0.5144370000000  0.5502090000000  0.5308660000000 1.0
C      1  0.5301060000000  0.5671280000000  0.4910940000000 1.0
C      1  0.4926220000000  0.5277640000000  0.5701070000000 1.0
C      1  0.5804910000000  0.4972000000000  0.5301390000000 1.0
C      1  0.5268530000000  0.4257600000000  0.5071620000000 1.0
C      1  0.4742090000000  0.4319510000000  0.4859260000000 1.0
C      1  0.4752740000000  0.5709910000000  0.5065710000000 1.0
C      1  0.4956550000000  0.4699990000000  0.4315740000000 1.0
C      1  0.5031070000000  0.4727080000000  0.5726040000000 1.0
C      1  0.4975470000000  0.5245210000000  0.4232280000000 1.0
C      1  0.5743840000000  0.5115540000000  0.4725720000000 1.0
C      1  0.4250090000000  0.5057730000000  0.5295370000000 1.0
C      1  0.4202770000000  0.4946110000000  0.4743500000000 1.0
C      1  0.5251780000000  0.4930730000000  0.5758130000000 1.0
C      1  0.4976180000000  0.5726640000000  0.5267220000000 1.0
C      1  0.5753060000000  0.5289070000000  0.4956240000000 1.0
C      1  0.5224100000000  0.5085750000000  0.4206640000000 1.0
C      1  0.4701650000000  0.4858010000000  0.4331830000000 1.0
C      1  0.4708590000000  0.5083450000000  0.5678700000000 1.0
C      1  0.4984080000000  0.4326570000000  0.4698590000000 1.0
C      1  0.5076650000000  0.5661090000000  0.4714900000000 1.0
C      1  0.5021310000000  0.4251120000000  0.5243120000000 1.0
C      1  0.5767260000000  0.4768650000000  0.5088210000000 1.0
C      1  0.4240300000000  0.5277710000000  0.5090160000000 1.0
C      1  0.4218690000000  0.4725020000000  0.4943240000000 1.0
C      1  0.4043220000000  0.5107420000000  0.4938600000000 1.0
C      1  0.4867330000000  0.4105360000000  0.5017720000000 1.0
C      1  0.5059380000000  0.4865170000000  0.4088300000000 1.0
C      1  0.4056770000000  0.4898600000000  0.5129650000000 1.0
C      1  0.5914880000000  0.4936580000000  0.4890990000000 1.0
C      1  0.5953800000000  0.5144760000000  0.5105280000000 1.0
C      1  0.4937230000000  0.5868320000000  0.4886110000000 1.0
C      1  0.5144670000000  0.5884370000000  0.5071550000000 1.0
C      1  0.5111790000000  0.4113310000000  0.4850900000000 1.0
C      1  0.4824290000000  0.5015410000000  0.4106850000000 1.0
C      1  0.4836880000000  0.4916870000000  0.5881940000000 1.0
C      1  0.5055100000000  0.5116560000000  0.5906170000000 1.0
C      1  0.5053730000000  0.4976070000000  0.5026410000000 1.0
C      1  0.4944970000000  0.5083780000000  0.5262290000000 1.0
C      1  0.5352530000000  0.4999380000000  0.4951980000000 1.0
C      1  0.4937700000000  0.4745650000000  0.4912140000000 1.0
END
