TITL C-50682-4179-6 -0.0982305678825875 125000 -522.400817088248 0 0 75 (C1) n - 1
REM
REM in /rds/project/t2_vol4/rds-t2-cs072/BORA/CARBON/from-Arr/AIRSS/Generating-Clusters/GAP-ML-2020/Higher-Symm/SD-CG/HFTN-CG
REM
REM
REM
REM
REM
REM ./C.cell (b20cbc046b6831c77cfcea5457e17084)
REM AIRSS Version 0.9.1 bugfix July 2018 build 013d7b7c2542+ Fri, 06 Jul 2018 19:26:36 +0100
REM compiler GCC version 9.3.0
REM options -cpp -mtune=generic -march=x86-64 -g -O0
REM seed 1396724796 2061535591 -539635975 1090240835 -347354623 1490559480 2031843818 -1797899714 -460870818 382380174 -2025050919 -1120367461 1495821640 -602995328 -541227551 -1195235427 -223383259 1205878419 1195315463 -694809869 -1455116816 1900930651 1747588771 -1856752633 -2076487229 -1987583624 1954337690 -750269506 -249517715 783156777 894657028 1135478621 -1011452966
REM
CELL 1.54180   50.00000   50.00000   50.00000   90.00000   90.00000   90.00000
LATT -1
SFAC C  
C      1  0.4583060000000  0.4187840000000  0.4882380000000 1.0
C      1  0.5332510000000  0.4236050000000  0.4849980000000 1.0
C      1  0.5603290000000  0.4339110000000  0.4891450000000 1.0
C      1  0.5893840000000  0.4900430000000  0.4890770000000 1.0
C      1  0.5828370000000  0.5179870000000  0.4850240000000 1.0
C      1  0.5384550000000  0.5783690000000  0.4857780000000 1.0
C      1  0.5146300000000  0.5937520000000  0.4890790000000 1.0
C      1  0.4541750000000  0.5758680000000  0.4828630000000 1.0
C      1  0.4128210000000  0.5277930000000  0.4862050000000 1.0
C      1  0.4148680000000  0.4992820000000  0.4843610000000 1.0
C      1  0.4322060000000  0.4313870000000  0.4918580000000 1.0
C      1  0.5441880000000  0.4777580000000  0.4373660000000 1.0
C      1  0.5656680000000  0.4931990000000  0.4489350000000 1.0
C      1  0.5535240000000  0.5428390000000  0.4529290000000 1.0
C      1  0.5152420000000  0.5746050000000  0.4458880000000 1.0
C      1  0.4874120000000  0.5754680000000  0.4501280000000 1.0
C      1  0.4451950000000  0.5435710000000  0.4497640000000 1.0
C      1  0.4364190000000  0.5167160000000  0.4469970000000 1.0
C      1  0.4408120000000  0.4650310000000  0.4586080000000 1.0
C      1  0.4670440000000  0.4529530000000  0.4512430000000 1.0
C      1  0.4948420000000  0.4393520000000  0.4544220000000 1.0
C      1  0.5440000000000  0.4522040000000  0.4499370000000 1.0
C      1  0.4160770000000  0.4891510000000  0.5120790000000 1.0
C      1  0.4311310000000  0.4413900000000  0.5194160000000 1.0
C      1  0.4710270000000  0.4196060000000  0.5146760000000 1.0
C      1  0.5220500000000  0.4203560000000  0.5116970000000 1.0
C      1  0.5634480000000  0.4399950000000  0.5170320000000 1.0
C      1  0.5856420000000  0.4839280000000  0.5170450000000 1.0
C      1  0.5773260000000  0.5288900000000  0.5115720000000 1.0
C      1  0.5457040000000  0.5689990000000  0.5122580000000 1.0
C      1  0.5039970000000  0.5876800000000  0.5157020000000 1.0
C      1  0.4563720000000  0.5714860000000  0.5091850000000 1.0
C      1  0.4209160000000  0.5353320000000  0.5130350000000 1.0
C      1  0.5221690000000  0.4366670000000  0.4608080000000 1.0
C      1  0.5670000000000  0.4504100000000  0.4676770000000 1.0
C      1  0.5801160000000  0.4753180000000  0.4672300000000 1.0
C      1  0.5681390000000  0.5208980000000  0.4594450000000 1.0
C      1  0.5386840000000  0.5648300000000  0.4595150000000 1.0
C      1  0.5025350000000  0.5942580000000  0.4635000000000 1.0
C      1  0.4619430000000  0.5653910000000  0.4584430000000 1.0
C      1  0.4210770000000  0.5375240000000  0.4609090000000 1.0
C      1  0.4309560000000  0.4924330000000  0.4609070000000 1.0
C      1  0.4229640000000  0.4470660000000  0.4719690000000 1.0
C      1  0.4716550000000  0.4291850000000  0.4649730000000 1.0
C      1  0.5268020000000  0.4541040000000  0.5458010000000 1.0
C      1  0.5469970000000  0.4758670000000  0.5452000000000 1.0
C      1  0.5523060000000  0.5051320000000  0.5457530000000 1.0
C      1  0.5398250000000  0.5320330000000  0.5419430000000 1.0
C      1  0.5158720000000  0.5499450000000  0.5448930000000 1.0
C      1  0.4856080000000  0.5509970000000  0.5416980000000 1.0
C      1  0.4602640000000  0.5356170000000  0.5412490000000 1.0
C      1  0.4468880000000  0.5084120000000  0.5442420000000 1.0
C      1  0.4506780000000  0.4787320000000  0.5435850000000 1.0
C      1  0.4693880000000  0.4556860000000  0.5465380000000 1.0
C      1  0.4978390000000  0.4475620000000  0.5429350000000 1.0
C      1  0.5693040000000  0.4646360000000  0.5282510000000 1.0
C      1  0.5775770000000  0.5074690000000  0.5303920000000 1.0
C      1  0.5573810000000  0.5456920000000  0.5219930000000 1.0
C      1  0.5242830000000  0.5742150000000  0.5302800000000 1.0
C      1  0.4806660000000  0.5745910000000  0.5241020000000 1.0
C      1  0.4423750000000  0.5507220000000  0.5229040000000 1.0
C      1  0.4222060000000  0.5116250000000  0.5284760000000 1.0
C      1  0.4284800000000  0.4682520000000  0.5259540000000 1.0
C      1  0.4547510000000  0.4337810000000  0.5328280000000 1.0
C      1  0.4969350000000  0.4250850000000  0.5233400000000 1.0
C      1  0.5397390000000  0.4326120000000  0.5302910000000 1.0
C      1  0.4977090000000  0.5008810000000  0.5826660000000 1.0
C      1  0.5148420000000  0.4866300000000  0.4306850000000 1.0
C      1  0.4999890000000  0.4989800000000  0.5304020000000 1.0
C      1  0.4989440000000  0.4999250000000  0.5564150000000 1.0
C      1  0.5071040000000  0.4972960000000  0.4803650000000 1.0
C      1  0.4988380000000  0.5010570000000  0.6079980000000 1.0
C      1  0.5010020000000  0.4804740000000  0.4086720000000 1.0
C      1  0.5085150000000  0.4959360000000  0.5063740000000 1.0
C      1  0.5050860000000  0.4962800000000  0.4552580000000 1.0
END
