TITL C-50676-4141-11 -23.6175387563103 125000 -238.776225420858 0 0 36 (C3) n - 1
REM
REM in /rds/project/t2_vol4/rds-t2-cs072/BORA/CARBON/from-Arr/AIRSS/Generating-Clusters/GAP-ML-2020/Higher-Symm/SD-CG/HFTN-CG
REM
REM
REM
REM
REM
REM ./C.cell (b20cbc046b6831c77cfcea5457e17084)
REM AIRSS Version 0.9.1 bugfix July 2018 build 013d7b7c2542+ Fri, 06 Jul 2018 19:26:36 +0100
REM compiler GCC version 9.3.0
REM options -cpp -mtune=generic -march=x86-64 -g -O0
REM seed 318403954 153391621 994957706 394118223 -256528304 -407469572 1081350459 -528474879 1856896198 512689976 -1372496194 221038118 874330598 726655688 788549476 -201411878 1529935971 -896194009 2132783333 1770781907 1000058354 1264719807 550608040 -430208991 -146392527 173682166 556724478 -777781913 807542735 1971371701 -936558783 -371003700 -1250977225
REM
CELL 1.54180   50.00000   50.00000   50.00000   90.00000   90.00000   90.00000
LATT -1
SFAC C  
C      1  0.4844910000000  0.5220570000000  0.5270300000000 1.0
C      1  0.4841990000000  0.5235370000000  0.4744270000000 1.0
C      1  0.5299090000000  0.5237240000000  0.5005020000000 1.0
C      1  0.5391570000000  0.4757720000000  0.4997140000000 1.0
C      1  0.4808340000000  0.4736650000000  0.5325510000000 1.0
C      1  0.4815240000000  0.4755710000000  0.4656160000000 1.0
C      1  0.4833200000000  0.5537650000000  0.4763500000000 1.0
C      1  0.5285070000000  0.5539930000000  0.5005910000000 1.0
C      1  0.4849380000000  0.5523500000000  0.5275830000000 1.0
C      1  0.5228290000000  0.5085940000000  0.5520160000000 1.0
C      1  0.4434850000000  0.5086220000000  0.4943070000000 1.0
C      1  0.5331050000000  0.5115580000000  0.4544900000000 1.0
C      1  0.4621950000000  0.4710430000000  0.5107410000000 1.0
C      1  0.5097420000000  0.4734310000000  0.4602220000000 1.0
C      1  0.5297510000000  0.4719570000000  0.5266750000000 1.0
C      1  0.5390410000000  0.4870160000000  0.5480960000000 1.0
C      1  0.4389100000000  0.4860980000000  0.5089900000000 1.0
C      1  0.5228000000000  0.4896900000000  0.4418630000000 1.0
C      1  0.5487800000000  0.5022550000000  0.4928560000000 1.0
C      1  0.4818160000000  0.4994040000000  0.5458760000000 1.0
C      1  0.4693390000000  0.5015400000000  0.4613590000000 1.0
C      1  0.5124580000000  0.5549940000000  0.4766810000000 1.0
C      1  0.5136620000000  0.5536330000000  0.5256930000000 1.0
C      1  0.4706060000000  0.5534270000000  0.5022060000000 1.0
C      1  0.5024220000000  0.4333180000000  0.5144880000000 1.0
C      1  0.4866260000000  0.4336660000000  0.4908780000000 1.0
C      1  0.5149670000000  0.4342910000000  0.4890180000000 1.0
C      1  0.4426320000000  0.5068280000000  0.4663830000000 1.0
C      1  0.5577340000000  0.5091190000000  0.4675740000000 1.0
C      1  0.4992080000000  0.5051370000000  0.5666390000000 1.0
C      1  0.5139280000000  0.5254510000000  0.4746230000000 1.0
C      1  0.5148820000000  0.5240120000000  0.5262240000000 1.0
C      1  0.4697090000000  0.5238060000000  0.5012240000000 1.0
C      1  0.5042420000000  0.4580990000000  0.5293570000000 1.0
C      1  0.4726920000000  0.4586720000000  0.4865180000000 1.0
C      1  0.5255580000000  0.4599060000000  0.4806410000000 1.0
END
