TITL C-50676-4141-8 -119.532984779796 125000 -259.059846564024 0 0 39 (C1) n - 1
REM
REM in /rds/project/t2_vol4/rds-t2-cs072/BORA/CARBON/from-Arr/AIRSS/Generating-Clusters/GAP-ML-2020/Higher-Symm/SD-CG/HFTN-CG
REM
REM
REM
REM
REM
REM ./C.cell (b20cbc046b6831c77cfcea5457e17084)
REM AIRSS Version 0.9.1 bugfix July 2018 build 013d7b7c2542+ Fri, 06 Jul 2018 19:26:36 +0100
REM compiler GCC version 9.3.0
REM options -cpp -mtune=generic -march=x86-64 -g -O0
REM seed -1277391132 1499229015 -1487373015 189404251 458236379 -37496658 -615331617 -2142543709 764544699 1616052614 877062646 1685227969 728206038 -2044603182 -1489561019 -1400580684 2084845519 1330895864 310823871 -1991392548 -698243256 204031926 1987257217 714915184 -661448593 -1679591222 507523535 458035864 -350218411 -1007897535 85216502 911230153 -1950363218
REM
CELL 1.54180   50.00000   50.00000   50.00000   90.00000   90.00000   90.00000
LATT -1
SFAC C  
C      1  0.4531930000000  0.5232850000000  0.5140810000000 1.0
C      1  0.5350880000000  0.4804830000000  0.5147780000000 1.0
C      1  0.4843930000000  0.5183160000000  0.4794340000000 1.0
C      1  0.5061930000000  0.4800510000000  0.4797170000000 1.0
C      1  0.4563790000000  0.5183040000000  0.4859990000000 1.0
C      1  0.5341030000000  0.4840840000000  0.4852230000000 1.0
C      1  0.5481250000000  0.5047550000000  0.4715900000000 1.0
C      1  0.4450110000000  0.4951290000000  0.4747170000000 1.0
C      1  0.4495490000000  0.5471300000000  0.5267140000000 1.0
C      1  0.5432440000000  0.4592680000000  0.5291650000000 1.0
C      1  0.4650220000000  0.4821860000000  0.4571180000000 1.0
C      1  0.5318110000000  0.5184170000000  0.4507680000000 1.0
C      1  0.5147930000000  0.5022720000000  0.5206460000000 1.0
C      1  0.4681730000000  0.5043950000000  0.5295050000000 1.0
C      1  0.4708900000000  0.5568150000000  0.5369850000000 1.0
C      1  0.5259250000000  0.4410030000000  0.5376090000000 1.0
C      1  0.4660230000000  0.4597000000000  0.4740200000000 1.0
C      1  0.5277420000000  0.5401330000000  0.4688130000000 1.0
C      1  0.5075740000000  0.5445800000000  0.5109860000000 1.0
C      1  0.4875640000000  0.4552550000000  0.5159480000000 1.0
C      1  0.5282330000000  0.5257610000000  0.5105570000000 1.0
C      1  0.4700870000000  0.4799900000000  0.5145240000000 1.0
C      1  0.5025390000000  0.5406720000000  0.4829110000000 1.0
C      1  0.4919610000000  0.4554260000000  0.4864790000000 1.0
C      1  0.4947790000000  0.5437090000000  0.5351540000000 1.0
C      1  0.4997760000000  0.4390390000000  0.5336960000000 1.0
C      1  0.5464590000000  0.5286990000000  0.4893750000000 1.0
C      1  0.4495930000000  0.4734110000000  0.4940440000000 1.0
C      1  0.5108090000000  0.4940310000000  0.6464020000000 1.0
C      1  0.5117630000000  0.5053200000000  0.3837210000000 1.0
C      1  0.4943140000000  0.5132860000000  0.5444360000000 1.0
C      1  0.4912700000000  0.4969000000000  0.4578730000000 1.0
C      1  0.5089930000000  0.5049870000000  0.4091050000000 1.0
C      1  0.5067420000000  0.4990710000000  0.6221210000000 1.0
C      1  0.5011930000000  0.4990110000000  0.3609890000000 1.0
C      1  0.4925260000000  0.4970930000000  0.5011940000000 1.0
C      1  0.5026570000000  0.5045130000000  0.5967050000000 1.0
C      1  0.5099350000000  0.5065450000000  0.4358610000000 1.0
C      1  0.4982390000000  0.5092650000000  0.5725430000000 1.0
END
