TITL C-50688-9834-8 0.138372184615825 125000 -379.0852380404 0 0 57 (C1) n - 1
REM
REM in /rds/project/t2_vol4/rds-t2-cs072/BORA/CARBON/from-Arr/AIRSS/Generating-Clusters/GAP-ML-2020/Higher-Symm/SD-CG/HFTN-CG
REM
REM
REM
REM
REM
REM ./C.cell (b20cbc046b6831c77cfcea5457e17084)
REM AIRSS Version 0.9.1 bugfix July 2018 build 013d7b7c2542+ Fri, 06 Jul 2018 19:26:36 +0100
REM compiler GCC version 9.3.0
REM options -cpp -mtune=generic -march=x86-64 -g -O0
REM seed -140468538 -2104758770 -497884423 -928139656 161071306 1066989005 -1251574667 -766681785 760561675 142965961 1901937336 -676330180 1890518811 -1779740122 1451758488 -1857652924 1127629648 1637821111 108673393 609081452 -721684747 -483301189 -715770032 790003009 2129081232 2114946603 562940726 -1445097995 -1412289613 -1084926417 -447782939 1469327540 76823802
REM
CELL 1.54180   50.00000   50.00000   50.00000   90.00000   90.00000   90.00000
LATT -1
SFAC C  
C      1  0.5587900000000  0.4705940000000  0.4802640000000 1.0
C      1  0.5506120000000  0.4771660000000  0.5240500000000 1.0
C      1  0.5092950000000  0.4740730000000  0.5579490000000 1.0
C      1  0.4558460000000  0.4678000000000  0.5396780000000 1.0
C      1  0.4503130000000  0.4838700000000  0.4973970000000 1.0
C      1  0.4709260000000  0.4701710000000  0.4467810000000 1.0
C      1  0.5164260000000  0.4787110000000  0.4448510000000 1.0
C      1  0.4942710000000  0.5646510000000  0.5296340000000 1.0
C      1  0.4691050000000  0.5526480000000  0.5182940000000 1.0
C      1  0.4585590000000  0.5530420000000  0.4903560000000 1.0
C      1  0.4918950000000  0.5554130000000  0.4593790000000 1.0
C      1  0.5206220000000  0.5521890000000  0.4667980000000 1.0
C      1  0.5339740000000  0.5539590000000  0.4930590000000 1.0
C      1  0.5224770000000  0.5638350000000  0.5190570000000 1.0
C      1  0.4717750000000  0.5078640000000  0.4988010000000 1.0
C      1  0.4918420000000  0.5055540000000  0.4784160000000 1.0
C      1  0.5182410000000  0.5024510000000  0.4857000000000 1.0
C      1  0.5293020000000  0.5194070000000  0.5051350000000 1.0
C      1  0.5271100000000  0.5182740000000  0.5342720000000 1.0
C      1  0.4976080000000  0.5194650000000  0.5452180000000 1.0
C      1  0.4766010000000  0.5221920000000  0.5239320000000 1.0
C      1  0.4841700000000  0.4260350000000  0.4718240000000 1.0
C      1  0.5114920000000  0.4255940000000  0.4667300000000 1.0
C      1  0.5310140000000  0.4246810000000  0.4863700000000 1.0
C      1  0.5294130000000  0.4254010000000  0.5139690000000 1.0
C      1  0.5061780000000  0.4250680000000  0.5294040000000 1.0
C      1  0.4802800000000  0.4251960000000  0.5196570000000 1.0
C      1  0.4687460000000  0.4265900000000  0.4944650000000 1.0
C      1  0.4670570000000  0.4584990000000  0.4950660000000 1.0
C      1  0.4828410000000  0.4569840000000  0.4697140000000 1.0
C      1  0.5131200000000  0.4571860000000  0.4642720000000 1.0
C      1  0.5341300000000  0.4558920000000  0.4853990000000 1.0
C      1  0.5306000000000  0.4572390000000  0.5157210000000 1.0
C      1  0.5062640000000  0.4562090000000  0.5335010000000 1.0
C      1  0.4776980000000  0.4560980000000  0.5231700000000 1.0
C      1  0.4768130000000  0.5087100000000  0.4345980000000 1.0
C      1  0.5326330000000  0.5013030000000  0.4563620000000 1.0
C      1  0.5676270000000  0.5110500000000  0.4882040000000 1.0
C      1  0.5417640000000  0.4948830000000  0.5453340000000 1.0
C      1  0.4894810000000  0.4954880000000  0.5599270000000 1.0
C      1  0.4452250000000  0.5084380000000  0.5418160000000 1.0
C      1  0.4415800000000  0.5007870000000  0.4726470000000 1.0
C      1  0.4503590000000  0.5253490000000  0.4859550000000 1.0
C      1  0.4920580000000  0.5258760000000  0.4510310000000 1.0
C      1  0.5224400000000  0.5277700000000  0.4508760000000 1.0
C      1  0.5535510000000  0.5329480000000  0.4961320000000 1.0
C      1  0.5298590000000  0.5482610000000  0.5421480000000 1.0
C      1  0.5028260000000  0.5491540000000  0.5526660000000 1.0
C      1  0.4524720000000  0.5341180000000  0.5366210000000 1.0
C      1  0.4387890000000  0.4859430000000  0.5240010000000 1.0
C      1  0.4551740000000  0.4937320000000  0.4497880000000 1.0
C      1  0.4920810000000  0.4844310000000  0.4326030000000 1.0
C      1  0.5590690000000  0.4947360000000  0.4650300000000 1.0
C      1  0.5675490000000  0.4859310000000  0.5033210000000 1.0
C      1  0.5337470000000  0.4818640000000  0.5682520000000 1.0
C      1  0.4621540000000  0.4891910000000  0.5574750000000 1.0
C      1  0.4697020000000  0.5683030000000  0.4695700000000 1.0
END
