TITL C-50697-4152-6 -0.0220377374529947 125000 -141.686249805247 0 0 23 (C2) n - 1
REM
REM in /rds/project/t2_vol4/rds-t2-cs072/BORA/CARBON/from-Arr/AIRSS/Generating-Clusters/GAP-ML-2020/Higher-Symm/SD-CG/HFTN-CG
REM
REM
REM
REM
REM
REM ./C.cell (b20cbc046b6831c77cfcea5457e17084)
REM AIRSS Version 0.9.1 bugfix July 2018 build 013d7b7c2542+ Fri, 06 Jul 2018 19:26:36 +0100
REM compiler GCC version 9.3.0
REM options -cpp -mtune=generic -march=x86-64 -g -O0
REM seed 574036926 -170788150 -281519101 193304822 457503896 -1025614096 -464723426 -1955058154 -1063202453 99498796 -1409473700 364831093 501621264 412928097 1162770466 1998733127 1764763304 -1002573564 -1020734338 -1687258057 -758542552 -1285164921 -1559431525 -154147381 1072412423 1765850285 523786611 1093259134 236722435 -142966261 -2093182659 -1695040377 -619772575
REM
CELL 1.54180   50.00000   50.00000   50.00000   90.00000   90.00000   90.00000
LATT -1
SFAC C  
C      1  0.4744230000000  0.4568100000000  0.4618450000000 1.0
C      1  0.5266000000000  0.4560560000000  0.4641510000000 1.0
C      1  0.5415780000000  0.4566780000000  0.5145420000000 1.0
C      1  0.4994400000000  0.4575870000000  0.5451210000000 1.0
C      1  0.4544680000000  0.4578180000000  0.5132130000000 1.0
C      1  0.5259540000000  0.5365540000000  0.4642460000000 1.0
C      1  0.4708210000000  0.5362920000000  0.4633060000000 1.0
C      1  0.4564600000000  0.5373020000000  0.5165100000000 1.0
C      1  0.4998600000000  0.5380850000000  0.5455660000000 1.0
C      1  0.5417820000000  0.5374810000000  0.5138460000000 1.0
C      1  0.4657680000000  0.4569570000000  0.4875500000000 1.0
C      1  0.5007930000000  0.4565580000000  0.4600410000000 1.0
C      1  0.5360500000000  0.4569180000000  0.4887740000000 1.0
C      1  0.5224020000000  0.4579030000000  0.5321910000000 1.0
C      1  0.4781950000000  0.4578830000000  0.5282860000000 1.0
C      1  0.5367910000000  0.5362490000000  0.4882670000000 1.0
C      1  0.4988650000000  0.5362430000000  0.4652210000000 1.0
C      1  0.4647180000000  0.5371550000000  0.4906750000000 1.0
C      1  0.4766350000000  0.5375680000000  0.5335870000000 1.0
C      1  0.5220620000000  0.5372330000000  0.5313290000000 1.0
C      1  0.4909200000000  0.4609020000000  0.5019930000000 1.0
C      1  0.4935400000000  0.5332260000000  0.4939420000000 1.0
C      1  0.4956040000000  0.4970650000000  0.4990750000000 1.0
END
