TITL C-50693-4198-4 13.953752680242 125000 -381.934599786285 0 0 56 (C1) n - 1
REM
REM in /rds/project/t2_vol4/rds-t2-cs072/BORA/CARBON/from-Arr/AIRSS/Generating-Clusters/GAP-ML-2020/Higher-Symm/SD-CG/HFTN-CG
REM
REM
REM
REM
REM
REM ./C.cell (b20cbc046b6831c77cfcea5457e17084)
REM AIRSS Version 0.9.1 bugfix July 2018 build 013d7b7c2542+ Fri, 06 Jul 2018 19:26:36 +0100
REM compiler GCC version 9.3.0
REM options -cpp -mtune=generic -march=x86-64 -g -O0
REM seed 624901796 -403737529 956113351 1746946319 -1418032339 -128627573 -41381460 -1930385165 1853528553 426586040 -554784339 -670089792 1830076214 -1828499378 983574467 -893289403 -1276789689 1498377079 -264476344 1112933658 2067203901 782948095 -1405520182 639256880 -662419531 2014850116 1174503726 1710254448 -1031994817 -1362920921 504117495 1913622774 2061771137
REM
CELL 1.54180   50.00000   50.00000   50.00000   90.00000   90.00000   90.00000
LATT -1
SFAC C  
C      1  0.5432470000000  0.5203210000000  0.5492620000000 1.0
C      1  0.5424200000000  0.5465100000000  0.5346790000000 1.0
C      1  0.5410690000000  0.5599990000000  0.4789530000000 1.0
C      1  0.5411490000000  0.5127910000000  0.4462090000000 1.0
C      1  0.5405680000000  0.4839310000000  0.4519430000000 1.0
C      1  0.5449990000000  0.4530730000000  0.5038360000000 1.0
C      1  0.5442080000000  0.4641530000000  0.5312110000000 1.0
C      1  0.4627030000000  0.4354930000000  0.4767730000000 1.0
C      1  0.4737240000000  0.4515340000000  0.5224100000000 1.0
C      1  0.4763680000000  0.4873250000000  0.5516010000000 1.0
C      1  0.4734770000000  0.5328430000000  0.5374980000000 1.0
C      1  0.4678650000000  0.5574990000000  0.4943350000000 1.0
C      1  0.4433670000000  0.5199010000000  0.4671980000000 1.0
C      1  0.4665240000000  0.4778890000000  0.4464230000000 1.0
C      1  0.5172950000000  0.5567120000000  0.5369920000000 1.0
C      1  0.5148060000000  0.5620820000000  0.4717260000000 1.0
C      1  0.5188420000000  0.5259420000000  0.4373540000000 1.0
C      1  0.5170880000000  0.4680110000000  0.4517680000000 1.0
C      1  0.5195630000000  0.4455650000000  0.4961760000000 1.0
C      1  0.5181060000000  0.4638480000000  0.5406610000000 1.0
C      1  0.5174160000000  0.5122670000000  0.5548940000000 1.0
C      1  0.5620450000000  0.5106940000000  0.5299420000000 1.0
C      1  0.5600460000000  0.5357600000000  0.5146840000000 1.0
C      1  0.5567650000000  0.5386910000000  0.4865420000000 1.0
C      1  0.5595490000000  0.5173820000000  0.4679950000000 1.0
C      1  0.5605950000000  0.4884290000000  0.4726110000000 1.0
C      1  0.5630960000000  0.4737900000000  0.4955570000000 1.0
C      1  0.5630280000000  0.4844340000000  0.5230770000000 1.0
C      1  0.4486820000000  0.4494540000000  0.5654070000000 1.0
C      1  0.4635700000000  0.5272480000000  0.5785980000000 1.0
C      1  0.4782340000000  0.5780800000000  0.5350020000000 1.0
C      1  0.4574220000000  0.5616800000000  0.4484130000000 1.0
C      1  0.4734930000000  0.5214310000000  0.4315970000000 1.0
C      1  0.4741950000000  0.4310990000000  0.4392550000000 1.0
C      1  0.4750830000000  0.4084240000000  0.5137910000000 1.0
C      1  0.4361230000000  0.4379730000000  0.5838440000000 1.0
C      1  0.4846380000000  0.5428610000000  0.5769230000000 1.0
C      1  0.5020990000000  0.5739830000000  0.5205450000000 1.0
C      1  0.4789570000000  0.5486600000000  0.4392940000000 1.0
C      1  0.4978510000000  0.5081420000000  0.4298390000000 1.0
C      1  0.4886270000000  0.4285360000000  0.4630210000000 1.0
C      1  0.4957840000000  0.4147550000000  0.5273760000000 1.0
C      1  0.4627850000000  0.5119760000000  0.5534530000000 1.0
C      1  0.4646370000000  0.5553580000000  0.5237480000000 1.0
C      1  0.4535600000000  0.5463270000000  0.4723170000000 1.0
C      1  0.4553490000000  0.5052680000000  0.4474250000000 1.0
C      1  0.4576720000000  0.4519750000000  0.4529030000000 1.0
C      1  0.4615520000000  0.4333520000000  0.5035530000000 1.0
C      1  0.4639490000000  0.4619450000000  0.5463810000000 1.0
C      1  0.5047530000000  0.4869690000000  0.5517850000000 1.0
C      1  0.5008180000000  0.5367700000000  0.5515780000000 1.0
C      1  0.4950040000000  0.5678500000000  0.4922860000000 1.0
C      1  0.5069030000000  0.5504810000000  0.4468520000000 1.0
C      1  0.4950130000000  0.4814060000000  0.4394570000000 1.0
C      1  0.5108310000000  0.4456290000000  0.4700530000000 1.0
C      1  0.5024890000000  0.4455020000000  0.5229960000000 1.0
END
