TITL C-50693-4198-12 262.44176945436 125000 -777.524626645605 0 0 113 (C2) n - 1
REM
REM in /rds/project/t2_vol4/rds-t2-cs072/BORA/CARBON/from-Arr/AIRSS/Generating-Clusters/GAP-ML-2020/Higher-Symm/SD-CG/HFTN-CG
REM
REM
REM
REM
REM
REM ./C.cell (b20cbc046b6831c77cfcea5457e17084)
REM AIRSS Version 0.9.1 bugfix July 2018 build 013d7b7c2542+ Fri, 06 Jul 2018 19:26:36 +0100
REM compiler GCC version 9.3.0
REM options -cpp -mtune=generic -march=x86-64 -g -O0
REM seed 1920918288 -1468200356 -913055323 1146848283 -1794677636 1086481866 -288270909 82257683 -652775459 1007987809 -1911605595 -1822541685 1356374361 -242038039 -347873498 -654109752 -1349162036 -46131855 -1198171694 -1332695653 -629537511 -1185320946 -1055548721 173741572 1009299074 -639187286 -332943875 -1327726088 -1232380815 -757242912 1857306901 -245139379 623340006
REM
CELL 1.54180   50.00000   50.00000   50.00000   90.00000   90.00000   90.00000
LATT -1
SFAC C  
C      1  0.4782300000000  0.4510970000000  0.4244870000000 1.0
C      1  0.4782290000000  0.5491490000000  0.5752440000000 1.0
C      1  0.5249730000000  0.4549660000000  0.5670230000000 1.0
C      1  0.5249700000000  0.5452810000000  0.4327070000000 1.0
C      1  0.5142540000000  0.5297590000000  0.4573150000000 1.0
C      1  0.5142560000000  0.4704880000000  0.5424150000000 1.0
C      1  0.5053220000000  0.5307330000000  0.4129660000000 1.0
C      1  0.5053240000000  0.4695130000000  0.5867650000000 1.0
C      1  0.5210420000000  0.4412230000000  0.4435220000000 1.0
C      1  0.5210410000000  0.5590250000000  0.5562080000000 1.0
C      1  0.5176800000000  0.4586080000000  0.4704570000000 1.0
C      1  0.5176790000000  0.5416390000000  0.5292730000000 1.0
C      1  0.5660090000000  0.5474860000000  0.5401560000000 1.0
C      1  0.5660100000000  0.4527630000000  0.4595740000000 1.0
C      1  0.4834970000000  0.4164770000000  0.4571870000000 1.0
C      1  0.4834950000000  0.5837680000000  0.5425430000000 1.0
C      1  0.4328490000000  0.4975250000000  0.4514120000000 1.0
C      1  0.4328500000000  0.5027190000000  0.5483190000000 1.0
C      1  0.4773060000000  0.4758740000000  0.5800990000000 1.0
C      1  0.4773040000000  0.5243720000000  0.4196320000000 1.0
C      1  0.4910470000000  0.5747630000000  0.4525570000000 1.0
C      1  0.4910500000000  0.4254830000000  0.5471740000000 1.0
C      1  0.4650150000000  0.5388730000000  0.4417030000000 1.0
C      1  0.4650170000000  0.4613730000000  0.5580280000000 1.0
C      1  0.4222790000000  0.4598000000000  0.5290510000000 1.0
C      1  0.4222780000000  0.5404440000000  0.4706810000000 1.0
C      1  0.4512670000000  0.4241320000000  0.5283060000000 1.0
C      1  0.4512640000000  0.5761130000000  0.4714250000000 1.0
C      1  0.4538230000000  0.5437670000000  0.5620770000000 1.0
C      1  0.4538240000000  0.4564780000000  0.4376540000000 1.0
C      1  0.5612910000000  0.5140340000000  0.5815670000000 1.0
C      1  0.5612900000000  0.4862150000000  0.4181630000000 1.0
C      1  0.5421190000000  0.5719870000000  0.4930290000000 1.0
C      1  0.5421220000000  0.4282610000000  0.5067010000000 1.0
C      1  0.5183760000000  0.5091090000000  0.4006790000000 1.0
C      1  0.5183770000000  0.4911380000000  0.5990510000000 1.0
C      1  0.4651340000000  0.4242450000000  0.4751570000000 1.0
C      1  0.4651320000000  0.5760010000000  0.5245740000000 1.0
C      1  0.4464810000000  0.5572690000000  0.5378670000000 1.0
C      1  0.4464820000000  0.4429750000000  0.4618640000000 1.0
C      1  0.5677010000000  0.4866820000000  0.5720100000000 1.0
C      1  0.5676990000000  0.5135670000000  0.4277190000000 1.0
C      1  0.5065380000000  0.5012650000000  0.4537600000000 1.0
C      1  0.5065390000000  0.4989820000000  0.5459700000000 1.0
C      1  0.5457760000000  0.5682730000000  0.5438790000000 1.0
C      1  0.5457770000000  0.4319750000000  0.4558510000000 1.0
C      1  0.4273660000000  0.5432610000000  0.5215410000000 1.0
C      1  0.4273670000000  0.4569830000000  0.4781900000000 1.0
C      1  0.5234570000000  0.4195100000000  0.5254250000000 1.0
C      1  0.5234540000000  0.5807370000000  0.4743050000000 1.0
C      1  0.5706650000000  0.5368370000000  0.5112200000000 1.0
C      1  0.5706660000000  0.4634120000000  0.4885090000000 1.0
C      1  0.5323760000000  0.5682520000000  0.5190270000000 1.0
C      1  0.5323780000000  0.4319950000000  0.4807030000000 1.0
C      1  0.4242240000000  0.5689150000000  0.4747070000000 1.0
C      1  0.4242270000000  0.4313280000000  0.5250240000000 1.0
C      1  0.5188600000000  0.5723140000000  0.4458290000000 1.0
C      1  0.5188640000000  0.4279330000000  0.5539010000000 1.0
C      1  0.4468200000000  0.4841130000000  0.4318590000000 1.0
C      1  0.4468200000000  0.5161320000000  0.5678720000000 1.0
C      1  0.5164350000000  0.5144050000000  0.4983940000000 1.0
C      1  0.5164350000000  0.4858420000000  0.5013360000000 1.0
C      1  0.4613830000000  0.5157930000000  0.4819110000000 1.0
C      1  0.4613840000000  0.4844520000000  0.5178200000000 1.0
C      1  0.4887050000000  0.4565940000000  0.5370370000000 1.0
C      1  0.4887030000000  0.5436520000000  0.4626930000000 1.0
C      1  0.4958560000000  0.5691700000000  0.5627310000000 1.0
C      1  0.4958570000000  0.4310760000000  0.4369990000000 1.0
C      1  0.5748140000000  0.4853740000000  0.5438110000000 1.0
C      1  0.5748130000000  0.5148750000000  0.4559190000000 1.0
C      1  0.5543170000000  0.4611240000000  0.5671670000000 1.0
C      1  0.5543150000000  0.5391240000000  0.4325630000000 1.0
C      1  0.4284300000000  0.5153460000000  0.5231660000000 1.0
C      1  0.4284300000000  0.4848980000000  0.4765660000000 1.0
C      1  0.5294810000000  0.4838020000000  0.4575220000000 1.0
C      1  0.5294810000000  0.5164460000000  0.5422080000000 1.0
C      1  0.5689350000000  0.5335510000000  0.5630990000000 1.0
C      1  0.5689350000000  0.4666970000000  0.4366300000000 1.0
C      1  0.5685650000000  0.4573490000000  0.5411710000000 1.0
C      1  0.5685630000000  0.5429000000000  0.4585580000000 1.0
C      1  0.5519790000000  0.4982990000000  0.5295700000000 1.0
C      1  0.5519780000000  0.5019500000000  0.4701590000000 1.0
C      1  0.5372970000000  0.5126390000000  0.5982180000000 1.0
C      1  0.5372960000000  0.4876080000000  0.4015120000000 1.0
C      1  0.4773000000000  0.5410960000000  0.4900830000000 1.0
C      1  0.4773010000000  0.4591500000000  0.5096470000000 1.0
C      1  0.4672150000000  0.4968420000000  0.4158080000000 1.0
C      1  0.4672160000000  0.5034030000000  0.5839230000000 1.0
C      1  0.4950340000000  0.5853860000000  0.4794070000000 1.0
C      1  0.4950380000000  0.4148600000000  0.5203230000000 1.0
C      1  0.4833730000000  0.4941350000000  0.4710100000000 1.0
C      1  0.4833730000000  0.5061110000000  0.5287210000000 1.0
C      1  0.5573400000000  0.5478900000000  0.4864090000000 1.0
C      1  0.5573420000000  0.4523590000000  0.5133210000000 1.0
C      1  0.5100320000000  0.5181150000000  0.6018080000000 1.0
C      1  0.5100320000000  0.4821320000000  0.3979220000000 1.0
C      1  0.4947530000000  0.5291750000000  0.5122260000000 1.0
C      1  0.4947540000000  0.4710720000000  0.4875040000000 1.0
C      1  0.4188470000000  0.4486980000000  0.5034500000000 1.0
C      1  0.4188450000000  0.5515450000000  0.4962820000000 1.0
C      1  0.4852540000000  0.4749660000000  0.4095140000000 1.0
C      1  0.4852550000000  0.5252800000000  0.5902160000000 1.0
C      1  0.5714940000000  0.5085900000000  0.5110000000000 1.0
C      1  0.5714940000000  0.4916590000000  0.4887290000000 1.0
C      1  0.4436410000000  0.4761480000000  0.5417800000000 1.0
C      1  0.4436400000000  0.5240960000000  0.4579520000000 1.0
C      1  0.4636820000000  0.5695770000000  0.4465270000000 1.0
C      1  0.4636850000000  0.4306690000000  0.5532040000000 1.0
C      1  0.5346280000000  0.5254040000000  0.4789290000000 1.0
C      1  0.5346290000000  0.4748440000000  0.5208000000000 1.0
C      1  0.4708520000000  0.4274290000000  0.5053930000000 1.0
C      1  0.4708490000000  0.5728160000000  0.4943380000000 1.0
C      1  0.4423480000000  0.5001220000000  0.4998660000000 1.0
END
