TITL C-50698-4123-2 -0.19557949615335 125000 -411.460791644389 0 0 64 (T23) n - 1
REM
REM in /rds/project/t2_vol4/rds-t2-cs072/BORA/CARBON/from-Arr/AIRSS/Generating-Clusters/GAP-ML-2020/Higher-Symm/SD-CG/HFTN-CG
REM
REM
REM
REM
REM
REM ./C.cell (b20cbc046b6831c77cfcea5457e17084)
REM AIRSS Version 0.9.1 bugfix July 2018 build 013d7b7c2542+ Fri, 06 Jul 2018 19:26:36 +0100
REM compiler GCC version 9.3.0
REM options -cpp -mtune=generic -march=x86-64 -g -O0
REM seed 706524146 -1300583704 -1809629154 2047376148 -412716106 -1688598949 1750778582 -1760706030 1299117105 -64866430 -1879508306 877160508 -152701490 -339536653 1460799863 1865523998 -300649178 2123032492 -907159353 1070590804 904872492 1694404918 -654324769 834132408 2028582743 -974398696 303807877 331513974 -836134426 324847904 1326237866 -76653689 -643641451
REM
CELL 1.54180   50.00000   50.00000   50.00000   90.00000   90.00000   90.00000
LATT -1
SFAC C  
C      1  0.5150510000000  0.5774070000000  0.4989330000000 1.0
C      1  0.4990390000000  0.5158870000000  0.5765460000000 1.0
C      1  0.5765750000000  0.4997970000000  0.5149500000000 1.0
C      1  0.4868350000000  0.5774390000000  0.5026340000000 1.0
C      1  0.5148960000000  0.4259900000000  0.5027590000000 1.0
C      1  0.4866780000000  0.4260150000000  0.4990640000000 1.0
C      1  0.5027200000000  0.5157550000000  0.4251250000000 1.0
C      1  0.4989930000000  0.4875420000000  0.4251500000000 1.0
C      1  0.5027080000000  0.4876660000000  0.5765700000000 1.0
C      1  0.4251510000000  0.4999300000000  0.4867490000000 1.0
C      1  0.5765760000000  0.5034720000000  0.4867290000000 1.0
C      1  0.4251580000000  0.5036520000000  0.5149630000000 1.0
C      1  0.5106380000000  0.4915470000000  0.4699100000000 1.0
C      1  0.4699290000000  0.5115220000000  0.4907130000000 1.0
C      1  0.4907040000000  0.4707860000000  0.5106610000000 1.0
C      1  0.4910710000000  0.4916190000000  0.5318020000000 1.0
C      1  0.5106650000000  0.5118580000000  0.5317830000000 1.0
C      1  0.4910860000000  0.5118260000000  0.4698950000000 1.0
C      1  0.5318210000000  0.5114760000000  0.5109660000000 1.0
C      1  0.4699110000000  0.4919670000000  0.5109890000000 1.0
C      1  0.5317990000000  0.4918860000000  0.4907230000000 1.0
C      1  0.5109620000000  0.4707490000000  0.4910860000000 1.0
C      1  0.4907660000000  0.5326600000000  0.4910360000000 1.0
C      1  0.5110280000000  0.5326550000000  0.5106070000000 1.0
C      1  0.4914680000000  0.5685320000000  0.5293640000000 1.0
C      1  0.5294350000000  0.4922710000000  0.5676380000000 1.0
C      1  0.5676790000000  0.5302080000000  0.4913480000000 1.0
C      1  0.5104000000000  0.5684640000000  0.4722180000000 1.0
C      1  0.4913240000000  0.4349130000000  0.4723330000000 1.0
C      1  0.5102680000000  0.4349410000000  0.5294760000000 1.0
C      1  0.4722760000000  0.4922170000000  0.4340730000000 1.0
C      1  0.5294400000000  0.5110950000000  0.4340510000000 1.0
C      1  0.4723100000000  0.5112670000000  0.5676280000000 1.0
C      1  0.4341100000000  0.5303620000000  0.5102990000000 1.0
C      1  0.5676220000000  0.4730790000000  0.5103340000000 1.0
C      1  0.4340490000000  0.4732010000000  0.4914100000000 1.0
C      1  0.5315950000000  0.4483430000000  0.5404890000000 1.0
C      1  0.5404900000000  0.5324070000000  0.4474460000000 1.0
C      1  0.4475380000000  0.5413930000000  0.5316010000000 1.0
C      1  0.4700250000000  0.4483400000000  0.4612970000000 1.0
C      1  0.5316970000000  0.5550190000000  0.4612000000000 1.0
C      1  0.4701430000000  0.5551490000000  0.5404050000000 1.0
C      1  0.4613030000000  0.5325800000000  0.5541970000000 1.0
C      1  0.5404380000000  0.4709360000000  0.5542410000000 1.0
C      1  0.4612280000000  0.4709270000000  0.4475070000000 1.0
C      1  0.5542740000000  0.5412310000000  0.4700270000000 1.0
C      1  0.4474500000000  0.4621420000000  0.4701060000000 1.0
C      1  0.5541990000000  0.4620840000000  0.5316570000000 1.0
C      1  0.5194750000000  0.5575650000000  0.5235180000000 1.0
C      1  0.5236100000000  0.5202870000000  0.5566820000000 1.0
C      1  0.5567430000000  0.5243910000000  0.5193730000000 1.0
C      1  0.4823700000000  0.5575650000000  0.4780820000000 1.0
C      1  0.5193550000000  0.4458220000000  0.4781730000000 1.0
C      1  0.4822590000000  0.4458990000000  0.5236170000000 1.0
C      1  0.4781580000000  0.5202390000000  0.4449820000000 1.0
C      1  0.5235600000000  0.4830910000000  0.4450090000000 1.0
C      1  0.4781320000000  0.4832330000000  0.5567180000000 1.0
C      1  0.4450340000000  0.5244750000000  0.4822840000000 1.0
C      1  0.5566920000000  0.4789190000000  0.4823110000000 1.0
C      1  0.4449910000000  0.4790660000000  0.5194230000000 1.0
C      1  0.5410870000000  0.4613690000000  0.4606100000000 1.0
C      1  0.5411780000000  0.5419730000000  0.5410770000000 1.0
C      1  0.4606350000000  0.5419880000000  0.4605500000000 1.0
C      1  0.4605600000000  0.4615210000000  0.5411540000000 1.0
END
