TITL C-50693-4198-1 796.910791530319 125000 -908.74732968602 0 0 133 (C1) n - 1
REM
REM in /rds/project/t2_vol4/rds-t2-cs072/BORA/CARBON/from-Arr/AIRSS/Generating-Clusters/GAP-ML-2020/Higher-Symm/SD-CG/HFTN-CG
REM
REM
REM
REM
REM
REM ./C.cell (b20cbc046b6831c77cfcea5457e17084)
REM AIRSS Version 0.9.1 bugfix July 2018 build 013d7b7c2542+ Fri, 06 Jul 2018 19:26:36 +0100
REM compiler GCC version 9.3.0
REM options -cpp -mtune=generic -march=x86-64 -g -O0
REM seed -435972626 924841334 990630335 -467925869 -1948294515 -1055534169 -692241892 -998837724 346361866 -497858976 1714218340 1393942083 -1071478163 -1398243810 1940758486 1861462805 31048092 -272988147 1189252429 -1080873974 -175027844 1695871342 594062152 1748309361 -658542292 977429459 919024150 -513663153 1779530114 932674588 799987181 -1840156898 1654918164
REM
CELL 1.54180   50.00000   50.00000   50.00000   90.00000   90.00000   90.00000
LATT -1
SFAC C  
C      1  0.5777540000000  0.4572950000000  0.4900230000000 1.0
C      1  0.5809840000000  0.5410000000000  0.4902790000000 1.0
C      1  0.5239650000000  0.5851770000000  0.4924440000000 1.0
C      1  0.4348450000000  0.5638660000000  0.4879470000000 1.0
C      1  0.4131790000000  0.5012040000000  0.4909860000000 1.0
C      1  0.4440750000000  0.4337840000000  0.4897120000000 1.0
C      1  0.5246910000000  0.4135530000000  0.4892850000000 1.0
C      1  0.4713360000000  0.5890030000000  0.4601530000000 1.0
C      1  0.4149070000000  0.5417490000000  0.4564050000000 1.0
C      1  0.4123320000000  0.4634420000000  0.4578180000000 1.0
C      1  0.4736690000000  0.4105790000000  0.4591460000000 1.0
C      1  0.5525600000000  0.4226600000000  0.4571650000000 1.0
C      1  0.5938680000000  0.4921720000000  0.4594150000000 1.0
C      1  0.5669700000000  0.5674310000000  0.4592480000000 1.0
C      1  0.5723800000000  0.5714500000000  0.4862120000000 1.0
C      1  0.4579790000000  0.6045100000000  0.4778590000000 1.0
C      1  0.4091870000000  0.5472450000000  0.4835360000000 1.0
C      1  0.4020880000000  0.4493500000000  0.4784260000000 1.0
C      1  0.4793550000000  0.3975510000000  0.4820650000000 1.0
C      1  0.5554640000000  0.4141380000000  0.4837920000000 1.0
C      1  0.6060290000000  0.5001060000000  0.4821150000000 1.0
C      1  0.4941990000000  0.5678400000000  0.4591530000000 1.0
C      1  0.4546690000000  0.5300180000000  0.4567180000000 1.0
C      1  0.4482420000000  0.4835800000000  0.4589250000000 1.0
C      1  0.4800860000000  0.4485850000000  0.4582140000000 1.0
C      1  0.5273280000000  0.4528200000000  0.4572900000000 1.0
C      1  0.5553120000000  0.4908720000000  0.4587460000000 1.0
C      1  0.5414190000000  0.5363670000000  0.4583740000000 1.0
C      1  0.4547710000000  0.5186140000000  0.5047910000000 1.0
C      1  0.4587210000000  0.4751380000000  0.5050980000000 1.0
C      1  0.4939870000000  0.4497480000000  0.5051440000000 1.0
C      1  0.5355040000000  0.4632800000000  0.5054320000000 1.0
C      1  0.5513130000000  0.5033210000000  0.5053340000000 1.0
C      1  0.5309630000000  0.5397380000000  0.5055270000000 1.0
C      1  0.4839360000000  0.5535580000000  0.5053860000000 1.0
C      1  0.5346140000000  0.4282000000000  0.5351990000000 1.0
C      1  0.5780790000000  0.4816950000000  0.5354050000000 1.0
C      1  0.5640580000000  0.5467180000000  0.5356870000000 1.0
C      1  0.5052350000000  0.5802010000000  0.5384280000000 1.0
C      1  0.4383050000000  0.5490770000000  0.5341170000000 1.0
C      1  0.4249310000000  0.4828300000000  0.5361280000000 1.0
C      1  0.4671780000000  0.4284970000000  0.5340810000000 1.0
C      1  0.4038030000000  0.5267420000000  0.5013830000000 1.0
C      1  0.4183400000000  0.4436550000000  0.4993310000000 1.0
C      1  0.4986030000000  0.3984200000000  0.5008670000000 1.0
C      1  0.5717290000000  0.4301260000000  0.5000280000000 1.0
C      1  0.6014630000000  0.5178750000000  0.5016330000000 1.0
C      1  0.5527070000000  0.5835490000000  0.5028720000000 1.0
C      1  0.4426020000000  0.5930410000000  0.4977690000000 1.0
C      1  0.4892920000000  0.5341650000000  0.4180170000000 1.0
C      1  0.4684310000000  0.5125820000000  0.4161250000000 1.0
C      1  0.4712040000000  0.4834550000000  0.4164870000000 1.0
C      1  0.4953540000000  0.4673970000000  0.4161670000000 1.0
C      1  0.5230790000000  0.4767370000000  0.4163820000000 1.0
C      1  0.5329460000000  0.5041950000000  0.4176450000000 1.0
C      1  0.5182130000000  0.5298350000000  0.4178210000000 1.0
C      1  0.4538160000000  0.5733640000000  0.5412240000000 1.0
C      1  0.4204430000000  0.5101060000000  0.5434050000000 1.0
C      1  0.4427680000000  0.4426760000000  0.5406710000000 1.0
C      1  0.5088670000000  0.4184720000000  0.5439010000000 1.0
C      1  0.5701750000000  0.4547390000000  0.5413900000000 1.0
C      1  0.5800990000000  0.5248610000000  0.5438350000000 1.0
C      1  0.5317200000000  0.5750940000000  0.5453630000000 1.0
C      1  0.4555730000000  0.5317350000000  0.5772000000000 1.0
C      1  0.4582860000000  0.4676920000000  0.5781150000000 1.0
C      1  0.4813150000000  0.4495040000000  0.5784240000000 1.0
C      1  0.5370670000000  0.4561650000000  0.5788730000000 1.0
C      1  0.5539560000000  0.5098460000000  0.5789590000000 1.0
C      1  0.5410850000000  0.5360780000000  0.5791180000000 1.0
C      1  0.4773290000000  0.5515490000000  0.5767550000000 1.0
C      1  0.4898240000000  0.4065640000000  0.5269470000000 1.0
C      1  0.5645330000000  0.4307410000000  0.5272710000000 1.0
C      1  0.5953410000000  0.5073470000000  0.5277860000000 1.0
C      1  0.5551320000000  0.5755410000000  0.5295700000000 1.0
C      1  0.4475310000000  0.5944350000000  0.5250790000000 1.0
C      1  0.4121820000000  0.5318870000000  0.5278530000000 1.0
C      1  0.4202680000000  0.4531740000000  0.5267000000000 1.0
C      1  0.5218610000000  0.5285980000000  0.4801020000000 1.0
C      1  0.4926060000000  0.5392740000000  0.4799270000000 1.0
C      1  0.4705430000000  0.5166690000000  0.4790780000000 1.0
C      1  0.4711490000000  0.4857670000000  0.4794610000000 1.0
C      1  0.4938030000000  0.4658900000000  0.4796540000000 1.0
C      1  0.5228570000000  0.4731430000000  0.4798630000000 1.0
C      1  0.5351920000000  0.5004890000000  0.4798490000000 1.0
C      1  0.5245610000000  0.4747470000000  0.5329140000000 1.0
C      1  0.5344850000000  0.5024900000000  0.5329130000000 1.0
C      1  0.5196630000000  0.5293980000000  0.5322460000000 1.0
C      1  0.4901510000000  0.5361710000000  0.5314320000000 1.0
C      1  0.4698160000000  0.5137790000000  0.5317810000000 1.0
C      1  0.4726400000000  0.4833680000000  0.5323650000000 1.0
C      1  0.4965740000000  0.4659510000000  0.5327600000000 1.0
C      1  0.5759180000000  0.4672750000000  0.4626120000000 1.0
C      1  0.5722490000000  0.5375170000000  0.4609960000000 1.0
C      1  0.5196400000000  0.5816500000000  0.4646910000000 1.0
C      1  0.4413860000000  0.5567550000000  0.4585520000000 1.0
C      1  0.4188100000000  0.4931040000000  0.4630140000000 1.0
C      1  0.4532860000000  0.4336180000000  0.4622170000000 1.0
C      1  0.5222370000000  0.4226780000000  0.4599170000000 1.0
C      1  0.4721470000000  0.4867170000000  0.5951130000000 1.0
C      1  0.4947620000000  0.4683140000000  0.5955800000000 1.0
C      1  0.5226250000000  0.4734650000000  0.5940590000000 1.0
C      1  0.5325050000000  0.4998610000000  0.5956710000000 1.0
C      1  0.5196030000000  0.5261450000000  0.5956590000000 1.0
C      1  0.4927020000000  0.5338120000000  0.5942000000000 1.0
C      1  0.4707120000000  0.5144360000000  0.5947050000000 1.0
C      1  0.5596490000000  0.5328480000000  0.5087490000000 1.0
C      1  0.5014920000000  0.5787370000000  0.5102400000000 1.0
C      1  0.4519280000000  0.5485470000000  0.5072000000000 1.0
C      1  0.4344200000000  0.4931790000000  0.5091020000000 1.0
C      1  0.4641490000000  0.4430930000000  0.5083100000000 1.0
C      1  0.5223650000000  0.4359180000000  0.5086200000000 1.0
C      1  0.5650410000000  0.4759520000000  0.5090540000000 1.0
C      1  0.4492440000000  0.4729000000000  0.4317620000000 1.0
C      1  0.4892480000000  0.4436390000000  0.4307680000000 1.0
C      1  0.5383120000000  0.4570540000000  0.4306930000000 1.0
C      1  0.5579630000000  0.5018160000000  0.4314470000000 1.0
C      1  0.5345700000000  0.5478400000000  0.4329170000000 1.0
C      1  0.4828490000000  0.5583690000000  0.4320270000000 1.0
C      1  0.4455550000000  0.5207800000000  0.4303390000000 1.0
C      1  0.5626370000000  0.4473220000000  0.4450100000000 1.0
C      1  0.5804490000000  0.5145430000000  0.4446730000000 1.0
C      1  0.5410880000000  0.5727270000000  0.4474570000000 1.0
C      1  0.4581920000000  0.5720620000000  0.4402700000000 1.0
C      1  0.4195610000000  0.5162270000000  0.4442400000000 1.0
C      1  0.4360930000000  0.4506490000000  0.4448680000000 1.0
C      1  0.4977680000000  0.4192530000000  0.4439600000000 1.0
C      1  0.4463730000000  0.5247370000000  0.5505060000000 1.0
C      1  0.4499340000000  0.4708830000000  0.5508670000000 1.0
C      1  0.4899900000000  0.4411990000000  0.5512830000000 1.0
C      1  0.5412830000000  0.4544100000000  0.5517900000000 1.0
C      1  0.5604080000000  0.5027770000000  0.5515470000000 1.0
C      1  0.5375060000000  0.5465530000000  0.5522340000000 1.0
C      1  0.4819080000000  0.5635950000000  0.5505590000000 1.0
END
