TITL C-50674-4194-11 0.139557034032693 125000 -226.331490365565 0 0 34 (C1) n - 1
REM
REM in /rds/project/t2_vol4/rds-t2-cs072/BORA/CARBON/from-Arr/AIRSS/Generating-Clusters/GAP-ML-2020/Higher-Symm/SD-CG/HFTN-CG
REM
REM
REM
REM
REM
REM ./C.cell (b20cbc046b6831c77cfcea5457e17084)
REM AIRSS Version 0.9.1 bugfix July 2018 build 013d7b7c2542+ Fri, 06 Jul 2018 19:26:36 +0100
REM compiler GCC version 9.3.0
REM options -cpp -mtune=generic -march=x86-64 -g -O0
REM seed -924663442 -833251538 -1309627304 -1429121225 603652032 -268434971 1914170406 1533927524 772795616 -1817340287 1243563991 1529668812 1111091242 -1547700311 -68060812 -1773733619 1515332002 555628262 -1321417511 -124770781 1687548174 950839687 988561984 1436321489 -2076618139 -2015201528 18938058 696041763 -689898923 2132017007 -1950178431 85238332 -1411223690
REM
CELL 1.54180   50.00000   50.00000   50.00000   90.00000   90.00000   90.00000
LATT -1
SFAC C  
C      1  0.4998580000000  0.4670970000000  0.5402430000000 1.0
C      1  0.5392730000000  0.4645400000000  0.5154930000000 1.0
C      1  0.5212380000000  0.4687970000000  0.4714360000000 1.0
C      1  0.4725400000000  0.4673960000000  0.4684220000000 1.0
C      1  0.4597610000000  0.4694030000000  0.5134850000000 1.0
C      1  0.5322290000000  0.5514510000000  0.4817290000000 1.0
C      1  0.4776040000000  0.5522040000000  0.4534320000000 1.0
C      1  0.4774030000000  0.5541540000000  0.4804930000000 1.0
C      1  0.4972950000000  0.5523880000000  0.5221180000000 1.0
C      1  0.5133270000000  0.5544810000000  0.5447710000000 1.0
C      1  0.5477520000000  0.5304470000000  0.4805590000000 1.0
C      1  0.4880700000000  0.5302070000000  0.4453330000000 1.0
C      1  0.4612160000000  0.5353310000000  0.4956660000000 1.0
C      1  0.4746660000000  0.5337400000000  0.5220430000000 1.0
C      1  0.5233780000000  0.5305220000000  0.5448890000000 1.0
C      1  0.4967280000000  0.4835250000000  0.4661980000000 1.0
C      1  0.4540800000000  0.4837030000000  0.4882440000000 1.0
C      1  0.4763900000000  0.4845690000000  0.5323650000000 1.0
C      1  0.5261930000000  0.4780290000000  0.5384060000000 1.0
C      1  0.5395080000000  0.4842870000000  0.4903380000000 1.0
C      1  0.5566880000000  0.5048500000000  0.4811310000000 1.0
C      1  0.4990740000000  0.5114050000000  0.4624320000000 1.0
C      1  0.4525550000000  0.5106060000000  0.4865560000000 1.0
C      1  0.4750830000000  0.5111510000000  0.5365600000000 1.0
C      1  0.5259480000000  0.5066780000000  0.5319030000000 1.0
C      1  0.5228310000000  0.4416130000000  0.5087920000000 1.0
C      1  0.5129700000000  0.4436940000000  0.4815860000000 1.0
C      1  0.4826510000000  0.4437450000000  0.4815710000000 1.0
C      1  0.4744940000000  0.4448580000000  0.5084240000000 1.0
C      1  0.4979450000000  0.4428230000000  0.5257130000000 1.0
C      1  0.4980880000000  0.4836570000000  0.5006000000000 1.0
C      1  0.5082670000000  0.5226590000000  0.4867310000000 1.0
C      1  0.5043210000000  0.5529740000000  0.4938410000000 1.0
C      1  0.5188970000000  0.5036370000000  0.5042070000000 1.0
END
