TITL C-50694-4122-14 154.561566808308 125000 -288.224816339212 0 0 43 (C3) n - 1
REM
REM in /rds/project/t2_vol4/rds-t2-cs072/BORA/CARBON/from-Arr/AIRSS/Generating-Clusters/GAP-ML-2020/Higher-Symm/SD-CG/HFTN-CG
REM
REM
REM
REM
REM
REM ./C.cell (b20cbc046b6831c77cfcea5457e17084)
REM AIRSS Version 0.9.1 bugfix July 2018 build 013d7b7c2542+ Fri, 06 Jul 2018 19:26:36 +0100
REM compiler GCC version 9.3.0
REM options -cpp -mtune=generic -march=x86-64 -g -O0
REM seed 624563957 109055546 1461386700 -1413644466 -1746850919 1907016729 942446265 59118616 486653230 -1218572100 1944995238 1777638910 -1775281826 -427899529 2040898515 -1207030881 -66548138 -1645627754 1597768053 -1436057614 1640592152 -314024213 366689985 -580236467 114757805 633174235 1155081211 -1005530539 1899079120 1166618975 -774507598 1864616714 -1796698118
REM
CELL 1.54180   50.00000   50.00000   50.00000   90.00000   90.00000   90.00000
LATT -1
SFAC C  
C      1  0.4558020000000  0.5089030000000  0.5396350000000 1.0
C      1  0.4559460000000  0.4624750000000  0.4869050000000 1.0
C      1  0.4559010000000  0.5313540000000  0.4730610000000 1.0
C      1  0.5457510000000  0.4684450000000  0.4661730000000 1.0
C      1  0.5456300000000  0.5466030000000  0.4887640000000 1.0
C      1  0.5455870000000  0.4879600000000  0.5451560000000 1.0
C      1  0.4451990000000  0.4799870000000  0.4690950000000 1.0
C      1  0.4450880000000  0.5379880000000  0.4971120000000 1.0
C      1  0.4450760000000  0.4847240000000  0.5333340000000 1.0
C      1  0.5459720000000  0.4728820000000  0.4408730000000 1.0
C      1  0.5457590000000  0.5662960000000  0.5052570000000 1.0
C      1  0.5457750000000  0.4638310000000  0.5539640000000 1.0
C      1  0.4809570000000  0.5441180000000  0.4649770000000 1.0
C      1  0.4808280000000  0.5096010000000  0.5547770000000 1.0
C      1  0.4810270000000  0.4490900000000  0.4799840000000 1.0
C      1  0.5239300000000  0.4900740000000  0.4432450000000 1.0
C      1  0.5237240000000  0.5555770000000  0.5189190000000 1.0
C      1  0.5237900000000  0.4572900000000  0.5378090000000 1.0
C      1  0.5327500000000  0.5221540000000  0.4817600000000 1.0
C      1  0.5326830000000  0.5062100000000  0.5274600000000 1.0
C      1  0.5327820000000  0.4746050000000  0.4908020000000 1.0
C      1  0.4950860000000  0.5329780000000  0.5456190000000 1.0
C      1  0.4952510000000  0.4453780000000  0.5048350000000 1.0
C      1  0.4952710000000  0.5244970000000  0.4493630000000 1.0
C      1  0.4932160000000  0.5607640000000  0.4823610000000 1.0
C      1  0.4931500000000  0.4862610000000  0.5605240000000 1.0
C      1  0.4933700000000  0.4558220000000  0.4569210000000 1.0
C      1  0.4969640000000  0.4787540000000  0.4436390000000 1.0
C      1  0.4967600000000  0.5608110000000  0.5088680000000 1.0
C      1  0.4967900000000  0.4632930000000  0.5473170000000 1.0
C      1  0.4559580000000  0.4656650000000  0.5170580000000 1.0
C      1  0.4560220000000  0.5036460000000  0.4607470000000 1.0
C      1  0.4558800000000  0.5334220000000  0.5217960000000 1.0
C      1  0.5029440000000  0.5176260000000  0.4959270000000 1.0
C      1  0.5029290000000  0.4961120000000  0.5164000000000 1.0
C      1  0.5029890000000  0.4891390000000  0.4875310000000 1.0
C      1  0.5223360000000  0.5166320000000  0.4532820000000 1.0
C      1  0.5221660000000  0.5336010000000  0.5368970000000 1.0
C      1  0.5222980000000  0.4527040000000  0.5097850000000 1.0
C      1  0.4796360000000  0.5017320000000  0.4454520000000 1.0
C      1  0.4794380000000  0.5476980000000  0.5278290000000 1.0
C      1  0.4795370000000  0.4533750000000  0.5264490000000 1.0
C      1  0.5433260000000  0.5010000000000  0.5000270000000 1.0
END
