TITL C-50670-4131-2 22.7964733852609 125000 -303.174924203551 0 0 44 (C2h) n - 1
REM
REM in /rds/project/t2_vol4/rds-t2-cs072/BORA/CARBON/from-Arr/AIRSS/Generating-Clusters/GAP-ML-2020/Higher-Symm/SD-CG/HFTN-CG
REM
REM
REM
REM
REM
REM ./C.cell (b20cbc046b6831c77cfcea5457e17084)
REM AIRSS Version 0.9.1 bugfix July 2018 build 013d7b7c2542+ Fri, 06 Jul 2018 19:26:36 +0100
REM compiler GCC version 9.3.0
REM options -cpp -mtune=generic -march=x86-64 -g -O0
REM seed -482720966 -364863294 126206588 866275742 1889511411 1844559432 507858675 521755225 -859872379 1077344404 1845320155 -345514255 -89835016 1375124141 -820476482 1087079748 -393976988 1422226299 -1991181785 -1758553691 -552466680 2088142073 1782443227 250818351 1789969710 -65079066 1459626008 1561972637 361463087 1226831496 -1258660501 1655110986 -1873964335
REM
CELL 1.54180   50.00000   50.00000   50.00000   90.00000   90.00000   90.00000
LATT -1
SFAC C  
C      1  0.4675040000000  0.5332100000000  0.5172290000000 1.0
C      1  0.5325180000000  0.5332070000000  0.4828060000000 1.0
C      1  0.4674820000000  0.4667930000000  0.5171940000000 1.0
C      1  0.5324970000000  0.4667900000000  0.4827710000000 1.0
C      1  0.4138190000000  0.4866460000000  0.4669620000000 1.0
C      1  0.5861720000000  0.4865570000000  0.5330240000000 1.0
C      1  0.4138280000000  0.5134430000000  0.4669760000000 1.0
C      1  0.5861800000000  0.5133540000000  0.5330380000000 1.0
C      1  0.4661770000000  0.5139580000000  0.4470760000000 1.0
C      1  0.5338320000000  0.5138810000000  0.5529390000000 1.0
C      1  0.4661680000000  0.4861190000000  0.4470610000000 1.0
C      1  0.5338230000000  0.4860420000000  0.5529240000000 1.0
C      1  0.4838540000000  0.4852620000000  0.5605650000000 1.0
C      1  0.5161370000000  0.4853140000000  0.4394190000000 1.0
C      1  0.4838630000000  0.5146860000000  0.5605810000000 1.0
C      1  0.5161460000000  0.5147380000000  0.4394350000000 1.0
C      1  0.4938250000000  0.4543040000000  0.5133670000000 1.0
C      1  0.5061460000000  0.4543140000000  0.4865850000000 1.0
C      1  0.4938540000000  0.5456860000000  0.5134150000000 1.0
C      1  0.5061750000000  0.5456960000000  0.4866330000000 1.0
C      1  0.4921780000000  0.5280540000000  0.4416420000000 1.0
C      1  0.5078400000000  0.5279880000000  0.5583870000000 1.0
C      1  0.4921600000000  0.4720120000000  0.4416130000000 1.0
C      1  0.5078220000000  0.4719460000000  0.5583580000000 1.0
C      1  0.4615080000000  0.4669940000000  0.4688580000000 1.0
C      1  0.5384710000000  0.4669380000000  0.5311070000000 1.0
C      1  0.4615290000000  0.5330620000000  0.4688930000000 1.0
C      1  0.5384920000000  0.5330060000000  0.5311420000000 1.0
C      1  0.5734680000000  0.4857090000000  0.5062630000000 1.0
C      1  0.4265230000000  0.4857620000000  0.4937220000000 1.0
C      1  0.5734770000000  0.5142380000000  0.5062780000000 1.0
C      1  0.4265320000000  0.5142910000000  0.4937370000000 1.0
C      1  0.4505000000000  0.4703280000000  0.4943900000000 1.0
C      1  0.5494810000000  0.4702910000000  0.5055790000000 1.0
C      1  0.4505190000000  0.5297090000000  0.4944210000000 1.0
C      1  0.5495000000000  0.5296720000000  0.5056100000000 1.0
C      1  0.4643130000000  0.5149130000000  0.5388670000000 1.0
C      1  0.5356960000000  0.5149300000000  0.4611490000000 1.0
C      1  0.4643040000000  0.4850700000000  0.5388510000000 1.0
C      1  0.5356870000000  0.4850870000000  0.4611330000000 1.0
C      1  0.4882380000000  0.5446300000000  0.4650960000000 1.0
C      1  0.5117910000000  0.5445870000000  0.5349500000000 1.0
C      1  0.4882090000000  0.4554130000000  0.4650500000000 1.0
C      1  0.5117620000000  0.4553700000000  0.5349040000000 1.0
END
