TITL C-50677-4364-6 -0.0846171670076096 125000 -222.348883949423 0 0 35 (Cs) n - 1
REM
REM in /rds/project/t2_vol4/rds-t2-cs072/BORA/CARBON/from-Arr/AIRSS/Generating-Clusters/GAP-ML-2020/Higher-Symm/SD-CG/HFTN-CG
REM
REM
REM
REM
REM
REM ./C.cell (b20cbc046b6831c77cfcea5457e17084)
REM AIRSS Version 0.9.1 bugfix July 2018 build 013d7b7c2542+ Fri, 06 Jul 2018 19:26:36 +0100
REM compiler GCC version 9.3.0
REM options -cpp -mtune=generic -march=x86-64 -g -O0
REM seed 948229633 1079721621 -29878600 -980919775 640409919 -2604082 -1414711346 -1960844796 -564697988 -1921929053 928472222 565845345 -584622007 666827388 -372107120 223995306 530355766 -1002761600 802020176 -286441175 1293907232 1180164249 -2130762135 -539924800 -397538425 119352619 1048207134 -2038451824 5301597 -44812307 51594258 -103903082 -1076183704
REM
CELL 1.54180   50.00000   50.00000   50.00000   90.00000   90.00000   90.00000
LATT -1
SFAC C  
C      1  0.4877030000000  0.5366770000000  0.5469230000000 1.0
C      1  0.5126650000000  0.5369540000000  0.4550600000000 1.0
C      1  0.5125290000000  0.5366790000000  0.5469250000000 1.0
C      1  0.4875800000000  0.5369530000000  0.4550580000000 1.0
C      1  0.5316560000000  0.5279550000000  0.4761100000000 1.0
C      1  0.4682800000000  0.5292730000000  0.5266780000000 1.0
C      1  0.4685870000000  0.5279510000000  0.4761060000000 1.0
C      1  0.5319560000000  0.5292770000000  0.5266820000000 1.0
C      1  0.4767100000000  0.4616610000000  0.5319280000000 1.0
C      1  0.5211010000000  0.4686600000000  0.4751580000000 1.0
C      1  0.5235350000000  0.4616640000000  0.5319310000000 1.0
C      1  0.4791510000000  0.4686570000000  0.4751550000000 1.0
C      1  0.4494830000000  0.5057480000000  0.5316840000000 1.0
C      1  0.5522880000000  0.5042990000000  0.4723030000000 1.0
C      1  0.5507550000000  0.5057550000000  0.5316910000000 1.0
C      1  0.4479590000000  0.5042920000000  0.4722950000000 1.0
C      1  0.4432460000000  0.5451010000000  0.5157360000000 1.0
C      1  0.5569450000000  0.5438500000000  0.4878240000000 1.0
C      1  0.5569890000000  0.5451090000000  0.5157440000000 1.0
C      1  0.4432940000000  0.5438420000000  0.4878160000000 1.0
C      1  0.5724050000000  0.5182990000000  0.4880000000000 1.0
C      1  0.4282430000000  0.5177680000000  0.5168610000000 1.0
C      1  0.4278380000000  0.5182890000000  0.4879900000000 1.0
C      1  0.5719950000000  0.5177780000000  0.5168710000000 1.0
C      1  0.5463050000000  0.4778900000000  0.4707880000000 1.0
C      1  0.4603190000000  0.4804020000000  0.5337210000000 1.0
C      1  0.4539450000000  0.4778840000000  0.4707820000000 1.0
C      1  0.5399230000000  0.4804070000000  0.5337260000000 1.0
C      1  0.5001270000000  0.4473550000000  0.4815250000000 1.0
C      1  0.5001240000000  0.4480270000000  0.5247050000000 1.0
C      1  0.4845110000000  0.5261300000000  0.5012690000000 1.0
C      1  0.5157290000000  0.5261320000000  0.5012710000000 1.0
C      1  0.5001180000000  0.5511970000000  0.5015270000000 1.0
C      1  0.5001270000000  0.4289070000000  0.5019830000000 1.0
C      1  0.5001240000000  0.4870850000000  0.4771780000000 1.0
END
