TITL C-50684-4170-3 -9.36021276232488 125000 -665.020380667625 0 0 92 (C3) n - 1
REM
REM in /rds/project/t2_vol4/rds-t2-cs072/BORA/CARBON/from-Arr/AIRSS/Generating-Clusters/GAP-ML-2020/Higher-Symm/SD-CG/HFTN-CG
REM
REM
REM
REM
REM
REM ./C.cell (b20cbc046b6831c77cfcea5457e17084)
REM AIRSS Version 0.9.1 bugfix July 2018 build 013d7b7c2542+ Fri, 06 Jul 2018 19:26:36 +0100
REM compiler GCC version 9.3.0
REM options -cpp -mtune=generic -march=x86-64 -g -O0
REM seed -1456864659 -2129676361 664293122 2094773093 -956084663 1719300795 -343909330 -809236624 -704799405 1104005472 -1763049822 1593707713 821429852 2114063485 799754496 -669732674 -317433345 -1822756277 -1160440624 2094402680 -502670798 373387508 -1361295140 -466167556 428344734 1733628272 -2088230650 1681859674 -2003335458 -538354429 1819912925 -1896322355 -1318512452
REM
CELL 1.54180   50.00000   50.00000   50.00000   90.00000   90.00000   90.00000
LATT -1
SFAC C  
C      1  0.4605910000000  0.4237310000000  0.4933060000000 1.0
C      1  0.5247470000000  0.4246100000000  0.4664220000000 1.0
C      1  0.5159610000000  0.4232530000000  0.5354180000000 1.0
C      1  0.5068850000000  0.4362930000000  0.4467160000000 1.0
C      1  0.5420480000000  0.4349140000000  0.5301880000000 1.0
C      1  0.4521690000000  0.4346100000000  0.5188910000000 1.0
C      1  0.4530300000000  0.5550920000000  0.4468720000000 1.0
C      1  0.5697600000000  0.5549950000000  0.4874550000000 1.0
C      1  0.4762550000000  0.5529270000000  0.5682340000000 1.0
C      1  0.5585480000000  0.4593750000000  0.4588820000000 1.0
C      1  0.5058620000000  0.4569740000000  0.5696060000000 1.0
C      1  0.4362940000000  0.4584860000000  0.4686130000000 1.0
C      1  0.4957960000000  0.4363430000000  0.5523440000000 1.0
C      1  0.4561160000000  0.4377150000000  0.4678330000000 1.0
C      1  0.5491530000000  0.4381010000000  0.4757380000000 1.0
C      1  0.4905540000000  0.5532720000000  0.4311480000000 1.0
C      1  0.5646030000000  0.5518680000000  0.5277320000000 1.0
C      1  0.4439280000000  0.5508740000000  0.5435490000000 1.0
C      1  0.5271360000000  0.5200570000000  0.4956630000000 1.0
C      1  0.4901840000000  0.5192690000000  0.5260690000000 1.0
C      1  0.4823200000000  0.5201180000000  0.4788670000000 1.0
C      1  0.4315050000000  0.4700040000000  0.5409860000000 1.0
C      1  0.4983560000000  0.4727000000000  0.4189740000000 1.0
C      1  0.5706200000000  0.4708640000000  0.5378760000000 1.0
C      1  0.5070830000000  0.5027520000000  0.5743030000000 1.0
C      1  0.4319720000000  0.5043170000000  0.4688530000000 1.0
C      1  0.5608570000000  0.5052920000000  0.4565510000000 1.0
C      1  0.4411130000000  0.5502630000000  0.4714130000000 1.0
C      1  0.5544280000000  0.5510420000000  0.4647200000000 1.0
C      1  0.5035780000000  0.5488270000000  0.5661850000000 1.0
C      1  0.4702340000000  0.5090910000000  0.4222620000000 1.0
C      1  0.5821150000000  0.5080140000000  0.5131040000000 1.0
C      1  0.4475000000000  0.5062640000000  0.5645500000000 1.0
C      1  0.5297770000000  0.5618290000000  0.4562440000000 1.0
C      1  0.5233270000000  0.5600270000000  0.5494380000000 1.0
C      1  0.4458300000000  0.5605690000000  0.4972470000000 1.0
C      1  0.5213840000000  0.5162350000000  0.4274260000000 1.0
C      1  0.5521250000000  0.5139940000000  0.5550430000000 1.0
C      1  0.4262200000000  0.5139740000000  0.5178400000000 1.0
C      1  0.4871800000000  0.5787560000000  0.4753150000000 1.0
C      1  0.5282390000000  0.5784560000000  0.5036020000000 1.0
C      1  0.4832120000000  0.5777910000000  0.5250080000000 1.0
C      1  0.4226570000000  0.4965800000000  0.4944610000000 1.0
C      1  0.5432780000000  0.4983930000000  0.4354390000000 1.0
C      1  0.5341020000000  0.4958020000000  0.5693990000000 1.0
C      1  0.5134860000000  0.4809540000000  0.4792390000000 1.0
C      1  0.5109290000000  0.4801460000000  0.5211490000000 1.0
C      1  0.4759060000000  0.4803830000000  0.4979760000000 1.0
C      1  0.5164770000000  0.5443170000000  0.4361330000000 1.0
C      1  0.5472560000000  0.5423870000000  0.5473840000000 1.0
C      1  0.4355070000000  0.5422920000000  0.5183990000000 1.0
C      1  0.5482080000000  0.5248570000000  0.4728910000000 1.0
C      1  0.4994080000000  0.5230040000000  0.5558440000000 1.0
C      1  0.4519520000000  0.5243180000000  0.4721050000000 1.0
C      1  0.5124340000000  0.5758490000000  0.5275790000000 1.0
C      1  0.4703280000000  0.5761430000000  0.4992630000000 1.0
C      1  0.5159030000000  0.5768280000000  0.4769650000000 1.0
C      1  0.4982980000000  0.5011540000000  0.4182520000000 1.0
C      1  0.5714950000000  0.4992850000000  0.5391370000000 1.0
C      1  0.4301970000000  0.4984160000000  0.5420630000000 1.0
C      1  0.4627450000000  0.4819700000000  0.5724010000000 1.0
C      1  0.4556240000000  0.4846130000000  0.4307260000000 1.0
C      1  0.5818980000000  0.4841150000000  0.4954120000000 1.0
C      1  0.4771400000000  0.4409230000000  0.4471480000000 1.0
C      1  0.5565800000000  0.4402960000000  0.5043770000000 1.0
C      1  0.4672980000000  0.4390210000000  0.5445430000000 1.0
C      1  0.4526720000000  0.4600430000000  0.5574270000000 1.0
C      1  0.4734580000000  0.4626000000000  0.4287540000000 1.0
C      1  0.5745190000000  0.4616220000000  0.5111000000000 1.0
C      1  0.4880310000000  0.4937070000000  0.4745910000000 1.0
C      1  0.5277790000000  0.4934190000000  0.5018610000000 1.0
C      1  0.4842890000000  0.4927750000000  0.5226410000000 1.0
C      1  0.5185660000000  0.4563070000000  0.4297030000000 1.0
C      1  0.5510960000000  0.4542250000000  0.5494660000000 1.0
C      1  0.4311000000000  0.4541360000000  0.5177400000000 1.0
C      1  0.5059030000000  0.4090260000000  0.5133230000000 1.0
C      1  0.4846430000000  0.4092480000000  0.4951590000000 1.0
C      1  0.5110040000000  0.4095760000000  0.4858340000000 1.0
C      1  0.5331830000000  0.4669440000000  0.5668290000000 1.0
C      1  0.4251180000000  0.4677020000000  0.4939850000000 1.0
C      1  0.5422350000000  0.4694590000000  0.4368420000000 1.0
C      1  0.4669980000000  0.5686220000000  0.5460560000000 1.0
C      1  0.4769870000000  0.5704900000000  0.4504600000000 1.0
C      1  0.5547950000000  0.5698690000000  0.5069160000000 1.0
C      1  0.4669560000000  0.5366740000000  0.4267510000000 1.0
C      1  0.5800800000000  0.5357680000000  0.5089450000000 1.0
C      1  0.4523350000000  0.5339550000000  0.5657930000000 1.0
C      1  0.5730270000000  0.4820410000000  0.4685720000000 1.0
C      1  0.4904070000000  0.4794910000000  0.5780580000000 1.0
C      1  0.4368760000000  0.4815760000000  0.4517650000000 1.0
C      1  0.4998280000000  0.5288390000000  0.5003710000000 1.0
C      1  0.5002070000000  0.4630340000000  0.4991240000000 1.0
END
