TITL C-50688-9834-10 1.9609288729858 125000 -656.412623562 0 0 93 (C1) n - 1
REM
REM in /rds/project/t2_vol4/rds-t2-cs072/BORA/CARBON/from-Arr/AIRSS/Generating-Clusters/GAP-ML-2020/Higher-Symm/SD-CG/HFTN-CG
REM
REM
REM
REM
REM
REM ./C.cell (b20cbc046b6831c77cfcea5457e17084)
REM AIRSS Version 0.9.1 bugfix July 2018 build 013d7b7c2542+ Fri, 06 Jul 2018 19:26:36 +0100
REM compiler GCC version 9.3.0
REM options -cpp -mtune=generic -march=x86-64 -g -O0
REM seed -1017150772 -1282090975 1138933 1257860276 216331950 579983991 -1729714438 -1731387065 1499264235 -79886885 339655624 -1868467811 112163230 360640658 1473148339 474595234 -197972449 -2006577743 -1266499202 759553030 487672519 -1355828048 -990367108 -2081225898 -1508519034 -949878561 -785151578 97464542 1184689240 950942525 -1221909737 911218477 -2136081856
REM
CELL 1.54180   50.00000   50.00000   50.00000   90.00000   90.00000   90.00000
LATT -1
SFAC C  
C      1  0.5072660000000  0.4436040000000  0.5643710000000 1.0
C      1  0.4816490000000  0.4894190000000  0.4159920000000 1.0
C      1  0.5040080000000  0.4485090000000  0.4308600000000 1.0
C      1  0.5197800000000  0.5278750000000  0.5783160000000 1.0
C      1  0.5028960000000  0.5286970000000  0.4708750000000 1.0
C      1  0.4638990000000  0.4410710000000  0.5196680000000 1.0
C      1  0.5545680000000  0.5540030000000  0.5279770000000 1.0
C      1  0.5438290000000  0.5258260000000  0.4298630000000 1.0
C      1  0.5281860000000  0.4834220000000  0.4136810000000 1.0
C      1  0.4871510000000  0.4505730000000  0.5025990000000 1.0
C      1  0.4691950000000  0.5717530000000  0.4768750000000 1.0
C      1  0.5307330000000  0.4485780000000  0.4419970000000 1.0
C      1  0.4986730000000  0.4048520000000  0.5120820000000 1.0
C      1  0.5165880000000  0.5836630000000  0.5106140000000 1.0
C      1  0.5671210000000  0.5292070000000  0.5265470000000 1.0
C      1  0.4653350000000  0.4585340000000  0.5442060000000 1.0
C      1  0.4842260000000  0.4438410000000  0.4503580000000 1.0
C      1  0.4976540000000  0.4203010000000  0.5505260000000 1.0
C      1  0.5024750000000  0.4704140000000  0.4136050000000 1.0
C      1  0.4958470000000  0.5722370000000  0.4662860000000 1.0
C      1  0.4250340000000  0.5003750000000  0.4599850000000 1.0
C      1  0.4298500000000  0.4761130000000  0.5197400000000 1.0
C      1  0.5150400000000  0.4817940000000  0.5073230000000 1.0
C      1  0.5360750000000  0.4461350000000  0.5590510000000 1.0
C      1  0.4762930000000  0.5261340000000  0.4855670000000 1.0
C      1  0.5097920000000  0.4552480000000  0.5216230000000 1.0
C      1  0.4942260000000  0.4647430000000  0.5488240000000 1.0
C      1  0.5746960000000  0.5151370000000  0.5009240000000 1.0
C      1  0.5420120000000  0.4873540000000  0.5841800000000 1.0
C      1  0.4996180000000  0.4076440000000  0.4859770000000 1.0
C      1  0.4680270000000  0.5167060000000  0.5743220000000 1.0
C      1  0.5696100000000  0.4716600000000  0.4769340000000 1.0
C      1  0.4590860000000  0.4835200000000  0.4324820000000 1.0
C      1  0.4765880000000  0.4972080000000  0.4795340000000 1.0
C      1  0.5221230000000  0.5421900000000  0.4894830000000 1.0
C      1  0.4944420000000  0.5156170000000  0.4155740000000 1.0
C      1  0.5357160000000  0.4366080000000  0.5306880000000 1.0
C      1  0.4838450000000  0.5266170000000  0.5134770000000 1.0
C      1  0.4833630000000  0.4826300000000  0.5032250000000 1.0
C      1  0.5202440000000  0.5027600000000  0.5261390000000 1.0
C      1  0.5443230000000  0.5121640000000  0.5728990000000 1.0
C      1  0.5332380000000  0.5711760000000  0.5319910000000 1.0
C      1  0.4235990000000  0.5249430000000  0.5277110000000 1.0
C      1  0.4774380000000  0.5014550000000  0.5258070000000 1.0
C      1  0.4778330000000  0.4164820000000  0.5301180000000 1.0
C      1  0.4300330000000  0.5413880000000  0.4851620000000 1.0
C      1  0.5468020000000  0.4689760000000  0.4298930000000 1.0
C      1  0.4440840000000  0.4765280000000  0.5462900000000 1.0
C      1  0.4599630000000  0.4588030000000  0.4505920000000 1.0
C      1  0.4482820000000  0.5674160000000  0.5224420000000 1.0
C      1  0.4872410000000  0.5775930000000  0.5459450000000 1.0
C      1  0.5678610000000  0.4819730000000  0.5468220000000 1.0
C      1  0.4536560000000  0.5409520000000  0.5638710000000 1.0
C      1  0.4542020000000  0.5470610000000  0.4692920000000 1.0
C      1  0.5328880000000  0.5460590000000  0.4455250000000 1.0
C      1  0.4958560000000  0.5111270000000  0.5724780000000 1.0
C      1  0.4664330000000  0.5797530000000  0.5038400000000 1.0
C      1  0.5186790000000  0.4117850000000  0.5324060000000 1.0
C      1  0.5278260000000  0.4491580000000  0.4707390000000 1.0
C      1  0.4299140000000  0.5485700000000  0.5125990000000 1.0
C      1  0.5518220000000  0.4677450000000  0.5666010000000 1.0
C      1  0.5726850000000  0.4692060000000  0.5223850000000 1.0
C      1  0.5224450000000  0.4818640000000  0.4782410000000 1.0
C      1  0.4825970000000  0.5371950000000  0.4295420000000 1.0
C      1  0.4329790000000  0.5233550000000  0.5535910000000 1.0
C      1  0.5658670000000  0.5128170000000  0.4442390000000 1.0
C      1  0.4462250000000  0.4992940000000  0.5632530000000 1.0
C      1  0.5578780000000  0.4458650000000  0.5133520000000 1.0
C      1  0.4211580000000  0.5019480000000  0.5102440000000 1.0
C      1  0.5783630000000  0.4862840000000  0.5002600000000 1.0
C      1  0.5639200000000  0.5102390000000  0.5494820000000 1.0
C      1  0.5494710000000  0.4923450000000  0.4727550000000 1.0
C      1  0.5634790000000  0.5218120000000  0.4738670000000 1.0
C      1  0.4213570000000  0.5143060000000  0.4839710000000 1.0
C      1  0.4403760000000  0.4539100000000  0.5039350000000 1.0
C      1  0.5143290000000  0.5713650000000  0.5560580000000 1.0
C      1  0.4988510000000  0.4358720000000  0.4766370000000 1.0
C      1  0.4611420000000  0.5642600000000  0.5485120000000 1.0
C      1  0.5546130000000  0.4483280000000  0.4854390000000 1.0
C      1  0.5029590000000  0.5502230000000  0.4477280000000 1.0
C      1  0.5025160000000  0.4986440000000  0.4663000000000 1.0
C      1  0.4571440000000  0.5334380000000  0.4421710000000 1.0
C      1  0.4447330000000  0.5073140000000  0.4405790000000 1.0
C      1  0.4897360000000  0.5872940000000  0.5193320000000 1.0
C      1  0.5644880000000  0.4835310000000  0.4470210000000 1.0
C      1  0.5125150000000  0.5287810000000  0.5154960000000 1.0
C      1  0.4414590000000  0.4555670000000  0.4741400000000 1.0
C      1  0.4244790000000  0.4748790000000  0.4680250000000 1.0
C      1  0.5163020000000  0.5713850000000  0.4859840000000 1.0
C      1  0.5451670000000  0.5440510000000  0.4715450000000 1.0
C      1  0.4990400000000  0.4944110000000  0.5478930000000 1.0
C      1  0.5236170000000  0.5113450000000  0.4152350000000 1.0
C      1  0.5193840000000  0.5551960000000  0.5774170000000 1.0
END
