TITL C-50693-4198-10 -0.00216154683664739 125000 -19.1308425933953 0 0 5 (Td) n - 1
REM
REM in /rds/project/t2_vol4/rds-t2-cs072/BORA/CARBON/from-Arr/AIRSS/Generating-Clusters/GAP-ML-2020/Higher-Symm/SD-CG/HFTN-CG
REM
REM
REM
REM
REM
REM ./C.cell (b20cbc046b6831c77cfcea5457e17084)
REM AIRSS Version 0.9.1 bugfix July 2018 build 013d7b7c2542+ Fri, 06 Jul 2018 19:26:36 +0100
REM compiler GCC version 9.3.0
REM options -cpp -mtune=generic -march=x86-64 -g -O0
REM seed -1945518734 1564567385 103242844 304457255 251040458 -386244968 743898423 -1784454036 -797881488 -121500691 1165052201 -1216593882 -507706852 -1333652575 -769630782 -743313587 -48192127 -86283207 -390762412 -44018283 -1974689174 1526039111 -928762639 -1884920498 -1681790161 -1187953768 701140538 1875491629 -1069146106 1899235442 -1719163544 -429718717 -1953388938
REM
CELL 1.54180   50.00000   50.00000   50.00000   90.00000   90.00000   90.00000
LATT -1
SFAC C  
C      1  0.5129270000000  0.4835140000000  0.4836250000000 1.0
C      1  0.4799100000000  0.4835140000000  0.5166420000000 1.0
C      1  0.4799100000000  0.5165320000000  0.4836250000000 1.0
C      1  0.5129270000000  0.5165320000000  0.5166420000000 1.0
C      1  0.4964180000000  0.5000230000000  0.5001340000000 1.0
END
