TITL C-50698-4123-3 -47.9636851103791 125000 -80.9192126121533 0 0 12 (D6h) n - 1
REM
REM in /rds/project/t2_vol4/rds-t2-cs072/BORA/CARBON/from-Arr/AIRSS/Generating-Clusters/GAP-ML-2020/Higher-Symm/SD-CG/HFTN-CG
REM
REM
REM
REM
REM
REM ./C.cell (b20cbc046b6831c77cfcea5457e17084)
REM AIRSS Version 0.9.1 bugfix July 2018 build 013d7b7c2542+ Fri, 06 Jul 2018 19:26:36 +0100
REM compiler GCC version 9.3.0
REM options -cpp -mtune=generic -march=x86-64 -g -O0
REM seed -736565453 1283225713 -985135709 -157054461 -1273124485 1159117381 689971762 777923075 -1349920998 -2000168155 -169868212 1246761695 1737623362 1592374299 1771197328 -877802654 185106290 1455211754 -1090298722 -430278959 -476897712 1161296471 978670816 417531257 -922250614 -575116068 -522269600 -760380494 -104490006 -1804785410 -961960285 -534394536 441474641
REM
CELL 1.54180   50.00000   50.00000   50.00000   90.00000   90.00000   90.00000
LATT -1
SFAC C  
C      1  0.5143110000000  0.5283890000000  0.4985610000000 1.0
C      1  0.5143110000000  0.5154410000000  0.5238660000000 1.0
C      1  0.5143110000000  0.4870510000000  0.5253050000000 1.0
C      1  0.5143110000000  0.4716110000000  0.5014390000000 1.0
C      1  0.5143110000000  0.4845590000000  0.4761340000000 1.0
C      1  0.5143110000000  0.5129490000000  0.4746950000000 1.0
C      1  0.4856890000000  0.5283890000000  0.4985610000000 1.0
C      1  0.4856890000000  0.5154410000000  0.5238660000000 1.0
C      1  0.4856890000000  0.4870510000000  0.5253050000000 1.0
C      1  0.4856890000000  0.4716110000000  0.5014390000000 1.0
C      1  0.4856890000000  0.4845590000000  0.4761340000000 1.0
C      1  0.4856890000000  0.5129490000000  0.4746950000000 1.0
END
