TITL C-50687-4144-5 -117.687762447197 125000 -914.198067575558 0 0 135 (C1) n - 1
REM
REM in /rds/project/t2_vol4/rds-t2-cs072/BORA/CARBON/from-Arr/AIRSS/Generating-Clusters/GAP-ML-2020/Higher-Symm/SD-CG/HFTN-CG
REM
REM
REM
REM
REM
REM ./C.cell (b20cbc046b6831c77cfcea5457e17084)
REM AIRSS Version 0.9.1 bugfix July 2018 build 013d7b7c2542+ Fri, 06 Jul 2018 19:26:36 +0100
REM compiler GCC version 9.3.0
REM options -cpp -mtune=generic -march=x86-64 -g -O0
REM seed 184166011 1240192719 -327081498 569058515 -1099123178 766835939 -1585170943 600984707 -1031194678 -1718255870 2052995362 1448106487 1347076439 -256637932 -106452319 -1646375272 -407176319 -1281482894 -1856574419 420779081 -723887179 799968975 -121959532 -358787907 -501476565 1526282317 -839422314 1799087844 1805754743 271958902 8562705 -1258542253 577961027
REM
CELL 1.54180   50.00000   50.00000   50.00000   90.00000   90.00000   90.00000
LATT -1
SFAC C  
C      1  0.5312670000000  0.3917160000000  0.4753910000000 1.0
C      1  0.4851470000000  0.3916850000000  0.4623690000000 1.0
C      1  0.4600620000000  0.3916990000000  0.5016220000000 1.0
C      1  0.4906250000000  0.3921240000000  0.5391620000000 1.0
C      1  0.5340810000000  0.3930210000000  0.5230560000000 1.0
C      1  0.5332720000000  0.6089240000000  0.5255130000000 1.0
C      1  0.4858520000000  0.6088140000000  0.5371510000000 1.0
C      1  0.4747110000000  0.6105340000000  0.5116810000000 1.0
C      1  0.5056910000000  0.6106030000000  0.4726500000000 1.0
C      1  0.5331480000000  0.6086930000000  0.4773250000000 1.0
C      1  0.4324620000000  0.4616000000000  0.4569250000000 1.0
C      1  0.4411450000000  0.4592480000000  0.5468410000000 1.0
C      1  0.5284420000000  0.4632820000000  0.5736370000000 1.0
C      1  0.5743860000000  0.4610450000000  0.4966220000000 1.0
C      1  0.5198170000000  0.4590180000000  0.4274720000000 1.0
C      1  0.4327930000000  0.5361300000000  0.5437530000000 1.0
C      1  0.4407480000000  0.5379720000000  0.4530440000000 1.0
C      1  0.5286390000000  0.5363930000000  0.4250290000000 1.0
C      1  0.5793110000000  0.5375850000000  0.5032050000000 1.0
C      1  0.5201920000000  0.5402920000000  0.5722020000000 1.0
C      1  0.4709310000000  0.5483380000000  0.5776080000000 1.0
C      1  0.5631580000000  0.5488070000000  0.5500720000000 1.0
C      1  0.5689570000000  0.5479160000000  0.4547880000000 1.0
C      1  0.4795750000000  0.5483390000000  0.4207840000000 1.0
C      1  0.4193920000000  0.5474760000000  0.4969770000000 1.0
C      1  0.4701050000000  0.4499140000000  0.4234100000000 1.0
C      1  0.5630860000000  0.4507480000000  0.4484790000000 1.0
C      1  0.5677590000000  0.4523900000000  0.5436480000000 1.0
C      1  0.4791680000000  0.4508230000000  0.5790100000000 1.0
C      1  0.4191810000000  0.4504320000000  0.5048410000000 1.0
C      1  0.4398970000000  0.4986630000000  0.4847760000000 1.0
C      1  0.4662840000000  0.5000030000000  0.5506640000000 1.0
C      1  0.5374730000000  0.5015570000000  0.5459950000000 1.0
C      1  0.5560590000000  0.5002070000000  0.4777940000000 1.0
C      1  0.4965880000000  0.4988840000000  0.4381880000000 1.0
C      1  0.4404900000000  0.4991150000000  0.5150140000000 1.0
C      1  0.4661430000000  0.4989730000000  0.4472600000000 1.0
C      1  0.5377580000000  0.5000230000000  0.4527740000000 1.0
C      1  0.5552570000000  0.5014690000000  0.5216500000000 1.0
C      1  0.4962290000000  0.5014700000000  0.5603390000000 1.0
C      1  0.4555730000000  0.4978600000000  0.5785340000000 1.0
C      1  0.5586200000000  0.4973590000000  0.5675960000000 1.0
C      1  0.5815500000000  0.4972450000000  0.4631450000000 1.0
C      1  0.4897540000000  0.4965830000000  0.4092220000000 1.0
C      1  0.4101700000000  0.4947580000000  0.4802040000000 1.0
C      1  0.4558820000000  0.5013270000000  0.4195060000000 1.0
C      1  0.5597680000000  0.5029930000000  0.4310420000000 1.0
C      1  0.5827970000000  0.5044630000000  0.5347210000000 1.0
C      1  0.4896130000000  0.5019350000000  0.5894970000000 1.0
C      1  0.4107900000000  0.5026010000000  0.5209570000000 1.0
C      1  0.4428000000000  0.5765740000000  0.5397510000000 1.0
C      1  0.5177870000000  0.5790860000000  0.5644190000000 1.0
C      1  0.5671140000000  0.5775630000000  0.5021970000000 1.0
C      1  0.5259850000000  0.5769810000000  0.4347830000000 1.0
C      1  0.4512570000000  0.5724160000000  0.4610750000000 1.0
C      1  0.4434280000000  0.4217340000000  0.4632420000000 1.0
C      1  0.5171910000000  0.4200960000000  0.4354970000000 1.0
C      1  0.5669080000000  0.4215910000000  0.4968230000000 1.0
C      1  0.5243220000000  0.4229830000000  0.5632930000000 1.0
C      1  0.4485700000000  0.4201620000000  0.5421350000000 1.0
C      1  0.4821840000000  0.6027250000000  0.4857860000000 1.0
C      1  0.4588930000000  0.5999520000000  0.5325620000000 1.0
C      1  0.5138130000000  0.6014220000000  0.5446820000000 1.0
C      1  0.5475000000000  0.6009800000000  0.5026450000000 1.0
C      1  0.5224050000000  0.6002920000000  0.4521700000000 1.0
C      1  0.4655300000000  0.3974940000000  0.5284820000000 1.0
C      1  0.4607390000000  0.3977790000000  0.4744500000000 1.0
C      1  0.5116440000000  0.3973320000000  0.4562490000000 1.0
C      1  0.5457070000000  0.3982970000000  0.4982370000000 1.0
C      1  0.5172480000000  0.3988530000000  0.5443430000000 1.0
C      1  0.4772630000000  0.4407030000000  0.5086970000000 1.0
C      1  0.5011200000000  0.4413200000000  0.5240280000000 1.0
C      1  0.5231950000000  0.4413740000000  0.5062180000000 1.0
C      1  0.5130370000000  0.4408470000000  0.4796980000000 1.0
C      1  0.4847060000000  0.4403690000000  0.4813140000000 1.0
C      1  0.4743520000000  0.5744590000000  0.4799890000000 1.0
C      1  0.4985540000000  0.5592010000000  0.4736690000000 1.0
C      1  0.5179130000000  0.5623940000000  0.4944830000000 1.0
C      1  0.5006410000000  0.5624740000000  0.5175540000000 1.0
C      1  0.4747050000000  0.5590830000000  0.5054670000000 1.0
C      1  0.5527630000000  0.4809380000000  0.4999260000000 1.0
C      1  0.5163050000000  0.4795940000000  0.4483520000000 1.0
C      1  0.4555350000000  0.4793250000000  0.4673880000000 1.0
C      1  0.4561250000000  0.4798140000000  0.5317900000000 1.0
C      1  0.5156590000000  0.4814070000000  0.5505080000000 1.0
C      1  0.5523270000000  0.5212180000000  0.4990280000000 1.0
C      1  0.5151470000000  0.5216470000000  0.5501090000000 1.0
C      1  0.4558420000000  0.5197830000000  0.5306410000000 1.0
C      1  0.4558810000000  0.5174320000000  0.4674900000000 1.0
C      1  0.5156600000000  0.5196960000000  0.4482040000000 1.0
C      1  0.4079160000000  0.5206620000000  0.4971530000000 1.0
C      1  0.4692230000000  0.5221590000000  0.5884270000000 1.0
C      1  0.5720580000000  0.5223580000000  0.5561700000000 1.0
C      1  0.5766150000000  0.5212240000000  0.4476960000000 1.0
C      1  0.4740210000000  0.5217680000000  0.4104460000000 1.0
C      1  0.4074550000000  0.4771220000000  0.5044290000000 1.0
C      1  0.4694610000000  0.4762030000000  0.4112430000000 1.0
C      1  0.5725280000000  0.4774890000000  0.4435170000000 1.0
C      1  0.5755270000000  0.4792860000000  0.5503480000000 1.0
C      1  0.4735290000000  0.4772930000000  0.5882330000000 1.0
C      1  0.5694530000000  0.4419860000000  0.4755360000000 1.0
C      1  0.4977470000000  0.4403890000000  0.4262060000000 1.0
C      1  0.4282740000000  0.4412980000000  0.4787670000000 1.0
C      1  0.4583190000000  0.4407790000000  0.5609760000000 1.0
C      1  0.5451860000000  0.4430750000000  0.5593670000000 1.0
C      1  0.5712820000000  0.5580200000000  0.5236030000000 1.0
C      1  0.4984950000000  0.5590800000000  0.5753430000000 1.0
C      1  0.4267880000000  0.5572870000000  0.5236440000000 1.0
C      1  0.4578730000000  0.5560790000000  0.4377680000000 1.0
C      1  0.5466960000000  0.5564630000000  0.4382160000000 1.0
C      1  0.5079050000000  0.5579120000000  0.4207010000000 1.0
C      1  0.4292990000000  0.5567310000000  0.4718140000000 1.0
C      1  0.4486140000000  0.5564420000000  0.5603060000000 1.0
C      1  0.5398640000000  0.5596350000000  0.5641900000000 1.0
C      1  0.5760890000000  0.5583840000000  0.4815010000000 1.0
C      1  0.5073390000000  0.4417950000000  0.5779000000000 1.0
C      1  0.4297680000000  0.4391660000000  0.5296600000000 1.0
C      1  0.4479670000000  0.4404000000000  0.4411880000000 1.0
C      1  0.5395020000000  0.4393970000000  0.4345650000000 1.0
C      1  0.5742050000000  0.4411240000000  0.5175100000000 1.0
C      1  0.4778210000000  0.4712040000000  0.5129890000000 1.0
C      1  0.5054510000000  0.4717400000000  0.5242110000000 1.0
C      1  0.5242580000000  0.4719840000000  0.5013030000000 1.0
C      1  0.5085620000000  0.4711750000000  0.4760740000000 1.0
C      1  0.4794440000000  0.4704950000000  0.4830830000000 1.0
C      1  0.4793670000000  0.5231410000000  0.4848410000000 1.0
C      1  0.5050090000000  0.5304660000000  0.4742390000000 1.0
C      1  0.5242700000000  0.5323960000000  0.4983440000000 1.0
C      1  0.5063970000000  0.5324030000000  0.5227820000000 1.0
C      1  0.4774150000000  0.5304070000000  0.5122680000000 1.0
C      1  0.5424500000000  0.5140110000000  0.4122760000000 1.0
C      1  0.5423460000000  0.4852380000000  0.5867520000000 1.0
C      1  0.4135740000000  0.5142690000000  0.5460880000000 1.0
C      1  0.4115020000000  0.4823300000000  0.4552800000000 1.0
C      1  0.5955840000000  0.5155540000000  0.5125260000000 1.0
END
