TITL C-51539-389-6 -538.420399275734 125000 -1059.54379193696 0 0 150 (C1) n - 1
REM
REM in /rds/project/t2_vol4/rds-t2-cs072/BORA/CARBON/from-Arr/AIRSS/Generating-Clusters/GAP-ML-2020/Higher-Symm/SD-CG/HFTN-CG
REM
REM
REM
REM
REM
REM ./C.cell (b20cbc046b6831c77cfcea5457e17084)
REM AIRSS Version 0.9.1 bugfix July 2018 build 013d7b7c2542+ Fri, 06 Jul 2018 19:26:36 +0100
REM compiler GCC version 9.3.0
REM options -cpp -mtune=generic -march=x86-64 -g -O0
REM seed -1486769650 -389407000 1464091176 -1795419815 927720644 1516543666 -1540347188 -1176052270 -911703369 -786816890 -112271171 -451794878 -1771864687 834367112 1054202551 881007582 -903330805 878399056 1987034960 438760050 -2092606958 1987219773 -919229182 681596741 1513986054 -1037743653 816712008 -989833685 1467488236 -2061473562 1782407749 1424037003 -1731262517
REM
CELL 1.54180   50.00000   50.00000   50.00000   90.00000   90.00000   90.00000
LATT -1
SFAC C  
C      1  0.4813750000000  0.4679750000000  0.5202360000000 1.0
C      1  0.4816630000000  0.4613560000000  0.4915680000000 1.0
C      1  0.4826940000000  0.4820220000000  0.4693870000000 1.0
C      1  0.4828360000000  0.5130120000000  0.4694200000000 1.0
C      1  0.4810220000000  0.5351500000000  0.4910100000000 1.0
C      1  0.4787880000000  0.5352220000000  0.5214430000000 1.0
C      1  0.4792140000000  0.5107880000000  0.5376100000000 1.0
C      1  0.5554140000000  0.4607260000000  0.4919210000000 1.0
C      1  0.5545800000000  0.4823510000000  0.4699890000000 1.0
C      1  0.5537420000000  0.5140550000000  0.4703810000000 1.0
C      1  0.5531920000000  0.5373370000000  0.4923310000000 1.0
C      1  0.5524890000000  0.5392440000000  0.5234110000000 1.0
C      1  0.5526730000000  0.5149930000000  0.5407090000000 1.0
C      1  0.5547440000000  0.4672690000000  0.5206140000000 1.0
C      1  0.4226240000000  0.5539820000000  0.4442440000000 1.0
C      1  0.4211810000000  0.5760120000000  0.5081430000000 1.0
C      1  0.4213690000000  0.5396970000000  0.5645490000000 1.0
C      1  0.4227280000000  0.4724660000000  0.5717810000000 1.0
C      1  0.4233310000000  0.4247070000000  0.5238380000000 1.0
C      1  0.4237700000000  0.4325060000000  0.4568000000000 1.0
C      1  0.4235860000000  0.4901060000000  0.4212780000000 1.0
C      1  0.5213550000000  0.4834000000000  0.4054380000000 1.0
C      1  0.5194760000000  0.5638440000000  0.4278110000000 1.0
C      1  0.5186020000000  0.5982860000000  0.5039790000000 1.0
C      1  0.5193230000000  0.5617330000000  0.5773700000000 1.0
C      1  0.5198780000000  0.4787930000000  0.5908250000000 1.0
C      1  0.5225100000000  0.4094530000000  0.5382310000000 1.0
C      1  0.5229740000000  0.4135170000000  0.4538310000000 1.0
C      1  0.4217330000000  0.5744320000000  0.4809940000000 1.0
C      1  0.4206090000000  0.5604740000000  0.5470180000000 1.0
C      1  0.4219550000000  0.4993470000000  0.5762700000000 1.0
C      1  0.4233640000000  0.4379940000000  0.5476680000000 1.0
C      1  0.4236780000000  0.4218850000000  0.4818950000000 1.0
C      1  0.4240800000000  0.4639140000000  0.4288700000000 1.0
C      1  0.4233130000000  0.5316890000000  0.4285810000000 1.0
C      1  0.4958920000000  0.4229560000000  0.5411630000000 1.0
C      1  0.4968450000000  0.4188150000000  0.4673880000000 1.0
C      1  0.4970680000000  0.4755860000000  0.4206020000000 1.0
C      1  0.4961100000000  0.5461710000000  0.4322950000000 1.0
C      1  0.4941730000000  0.5842780000000  0.4941930000000 1.0
C      1  0.4932450000000  0.5620330000000  0.5624360000000 1.0
C      1  0.4945750000000  0.4918150000000  0.5829600000000 1.0
C      1  0.5242590000000  0.4613640000000  0.5218650000000 1.0
C      1  0.5236550000000  0.4580620000000  0.4915680000000 1.0
C      1  0.5238230000000  0.4810300000000  0.4689270000000 1.0
C      1  0.5235110000000  0.5144030000000  0.4695900000000 1.0
C      1  0.5222380000000  0.5382890000000  0.4928500000000 1.0
C      1  0.5211670000000  0.5394940000000  0.5252270000000 1.0
C      1  0.5224330000000  0.5157370000000  0.5453960000000 1.0
C      1  0.3981680000000  0.4748950000000  0.4726120000000 1.0
C      1  0.3979950000000  0.5037490000000  0.4643430000000 1.0
C      1  0.3973890000000  0.5283210000000  0.4816130000000 1.0
C      1  0.3970570000000  0.5301190000000  0.5115070000000 1.0
C      1  0.3972230000000  0.5077400000000  0.5314140000000 1.0
C      1  0.3979040000000  0.4781970000000  0.5264420000000 1.0
C      1  0.3981490000000  0.4634680000000  0.5003210000000 1.0
C      1  0.4478580000000  0.5372330000000  0.5761310000000 1.0
C      1  0.4496370000000  0.4619600000000  0.5766020000000 1.0
C      1  0.4497620000000  0.4138730000000  0.5184520000000 1.0
C      1  0.4505690000000  0.4305590000000  0.4454120000000 1.0
C      1  0.4503890000000  0.4983100000000  0.4132880000000 1.0
C      1  0.4491790000000  0.5658570000000  0.4457970000000 1.0
C      1  0.4473280000000  0.5835260000000  0.5183190000000 1.0
C      1  0.4072390000000  0.5157830000000  0.5581560000000 1.0
C      1  0.4084080000000  0.4623570000000  0.5492860000000 1.0
C      1  0.4088140000000  0.4357690000000  0.5020620000000 1.0
C      1  0.4091120000000  0.4564560000000  0.4520890000000 1.0
C      1  0.4087200000000  0.5085410000000  0.4371240000000 1.0
C      1  0.4075550000000  0.5528720000000  0.4683600000000 1.0
C      1  0.4065210000000  0.5562680000000  0.5224050000000 1.0
C      1  0.4684350000000  0.4744320000000  0.4157550000000 1.0
C      1  0.4675180000000  0.5490380000000  0.4288000000000 1.0
C      1  0.4654080000000  0.5875740000000  0.4946490000000 1.0
C      1  0.4643220000000  0.5601870000000  0.5658750000000 1.0
C      1  0.4662170000000  0.4858020000000  0.5848050000000 1.0
C      1  0.4669880000000  0.4205520000000  0.5422150000000 1.0
C      1  0.4677610000000  0.4160810000000  0.4652590000000 1.0
C      1  0.5670840000000  0.4861720000000  0.5764110000000 1.0
C      1  0.5703630000000  0.4277960000000  0.5352080000000 1.0
C      1  0.5713060000000  0.4271200000000  0.4642280000000 1.0
C      1  0.5683360000000  0.4834870000000  0.4229940000000 1.0
C      1  0.5664380000000  0.5507930000000  0.4389940000000 1.0
C      1  0.5668200000000  0.5833330000000  0.5003260000000 1.0
C      1  0.5687990000000  0.5555020000000  0.5644640000000 1.0
C      1  0.5290570000000  0.3983020000000  0.5144360000000 1.0
C      1  0.5280660000000  0.4242830000000  0.4293410000000 1.0
C      1  0.5263130000000  0.5089160000000  0.3966980000000 1.0
C      1  0.5244760000000  0.5866210000000  0.4421870000000 1.0
C      1  0.5249360000000  0.5986960000000  0.5304520000000 1.0
C      1  0.5256920000000  0.5402820000000  0.5927980000000 1.0
C      1  0.5253780000000  0.4522110000000  0.5864470000000 1.0
C      1  0.4518890000000  0.4763290000000  0.5198100000000 1.0
C      1  0.4503490000000  0.4675530000000  0.4930880000000 1.0
C      1  0.4518750000000  0.4841400000000  0.4708650000000 1.0
C      1  0.4518000000000  0.5117590000000  0.4694920000000 1.0
C      1  0.4502360000000  0.5308310000000  0.4894680000000 1.0
C      1  0.4474840000000  0.5271400000000  0.5169040000000 1.0
C      1  0.4507460000000  0.5023370000000  0.5301590000000 1.0
C      1  0.5770640000000  0.5084470000000  0.5598500000000 1.0
C      1  0.5774460000000  0.4570680000000  0.5391250000000 1.0
C      1  0.5797130000000  0.4408050000000  0.4893800000000 1.0
C      1  0.5767120000000  0.4725380000000  0.4488730000000 1.0
C      1  0.5748790000000  0.5239400000000  0.4472120000000 1.0
C      1  0.5749400000000  0.5598090000000  0.4843880000000 1.0
C      1  0.5785180000000  0.5552000000000  0.5360570000000 1.0
C      1  0.4486830000000  0.5803360000000  0.4712720000000 1.0
C      1  0.4467320000000  0.5731870000000  0.5458170000000 1.0
C      1  0.4482240000000  0.5090650000000  0.5842290000000 1.0
C      1  0.4499930000000  0.4377370000000  0.5596410000000 1.0
C      1  0.4503160000000  0.4123440000000  0.4890270000000 1.0
C      1  0.4511500000000  0.4528670000000  0.4263700000000 1.0
C      1  0.4504630000000  0.5270980000000  0.4185850000000 1.0
C      1  0.5703020000000  0.4445520000000  0.4431440000000 1.0
C      1  0.5681740000000  0.5107790000000  0.4221250000000 1.0
C      1  0.5674130000000  0.5701240000000  0.4583420000000 1.0
C      1  0.5702600000000  0.5820810000000  0.5276630000000 1.0
C      1  0.5705120000000  0.5313810000000  0.5779000000000 1.0
C      1  0.5680720000000  0.4603790000000  0.5665600000000 1.0
C      1  0.5719050000000  0.4200740000000  0.5088040000000 1.0
C      1  0.5467880000000  0.5892870000000  0.5432290000000 1.0
C      1  0.5469650000000  0.5236050000000  0.5929680000000 1.0
C      1  0.5459490000000  0.4421160000000  0.5711890000000 1.0
C      1  0.5496740000000  0.4053850000000  0.4976650000000 1.0
C      1  0.5476880000000  0.4433670000000  0.4251180000000 1.0
C      1  0.5458530000000  0.5239420000000  0.4089970000000 1.0
C      1  0.5444910000000  0.5876820000000  0.4608900000000 1.0
C      1  0.5943650000000  0.4853540000000  0.4711370000000 1.0
C      1  0.5934130000000  0.5152770000000  0.4698430000000 1.0
C      1  0.5931840000000  0.5358180000000  0.4918480000000 1.0
C      1  0.5946160000000  0.5320230000000  0.5209480000000 1.0
C      1  0.5950460000000  0.5056870000000  0.5350980000000 1.0
C      1  0.5951650000000  0.4769340000000  0.5233750000000 1.0
C      1  0.5956400000000  0.4680720000000  0.4947720000000 1.0
C      1  0.5439400000000  0.5491790000000  0.4216200000000 1.0
C      1  0.5431910000000  0.5945210000000  0.4884780000000 1.0
C      1  0.5448860000000  0.5717630000000  0.5657210000000 1.0
C      1  0.5441110000000  0.4953270000000  0.5907150000000 1.0
C      1  0.5465400000000  0.4219780000000  0.5506630000000 1.0
C      1  0.5478740000000  0.4112220000000  0.4698420000000 1.0
C      1  0.5457050000000  0.4691020000000  0.4132700000000 1.0
C      1  0.4978630000000  0.5123970000000  0.5628180000000 1.0
C      1  0.5004250000000  0.4497660000000  0.5349490000000 1.0
C      1  0.5014060000000  0.4395910000000  0.4861250000000 1.0
C      1  0.5026590000000  0.4737130000000  0.4493450000000 1.0
C      1  0.5027220000000  0.5228120000000  0.4500650000000 1.0
C      1  0.5005850000000  0.5567080000000  0.4853260000000 1.0
C      1  0.4979810000000  0.5550400000000  0.5345300000000 1.0
C      1  0.5203580000000  0.4906170000000  0.5284340000000 1.0
C      1  0.5480770000000  0.4951450000000  0.5205010000000 1.0
C      1  0.4938520000000  0.4929580000000  0.5218830000000 1.0
END
