TITL C-51542-342-2 -101.240480929735 125000 -933.183900451923 0 0 133 (C2) n - 1
REM
REM in /rds/project/t2_vol4/rds-t2-cs072/BORA/CARBON/from-Arr/AIRSS/Generating-Clusters/GAP-ML-2020/Higher-Symm/SD-CG/HFTN-CG
REM
REM
REM
REM
REM
REM ./C.cell (b20cbc046b6831c77cfcea5457e17084)
REM AIRSS Version 0.9.1 bugfix July 2018 build 013d7b7c2542+ Fri, 06 Jul 2018 19:26:36 +0100
REM compiler GCC version 9.3.0
REM options -cpp -mtune=generic -march=x86-64 -g -O0
REM seed 1095217694 508470104 497720146 -1269249845 1206690419 1068200161 507618424 -1432783852 278672874 -1833511429 92539887 1977838066 428503570 -2005597573 791927848 1984807467 1794812970 -377159983 1019485368 -1231712482 492789552 1474165798 1832124252 -2101718028 1680084787 -1992323024 -207923622 485979838 508127696 496423101 -1648913928 -158010749 809791516
REM
CELL 1.54180   50.00000   50.00000   50.00000   90.00000   90.00000   90.00000
LATT -1
SFAC C  
C      1  0.4705030000000  0.5826450000000  0.5246560000000 1.0
C      1  0.4415230000000  0.4324170000000  0.5251610000000 1.0
C      1  0.5864680000000  0.4844090000000  0.5250430000000 1.0
C      1  0.5295150000000  0.5830710000000  0.4755420000000 1.0
C      1  0.5566020000000  0.4335230000000  0.4759160000000 1.0
C      1  0.4120130000000  0.4835430000000  0.4753850000000 1.0
C      1  0.4715010000000  0.5803380000000  0.4723470000000 1.0
C      1  0.4427610000000  0.4345950000000  0.4720360000000 1.0
C      1  0.5851430000000  0.4838750000000  0.4719390000000 1.0
C      1  0.5283780000000  0.5821830000000  0.5286460000000 1.0
C      1  0.5550920000000  0.4355340000000  0.5282240000000 1.0
C      1  0.4145070000000  0.4835200000000  0.5285100000000 1.0
C      1  0.4742410000000  0.5602620000000  0.4270440000000 1.0
C      1  0.4596150000000  0.4475540000000  0.4267940000000 1.0
C      1  0.5653510000000  0.4919570000000  0.4265590000000 1.0
C      1  0.5254700000000  0.5609970000000  0.5740220000000 1.0
C      1  0.5390660000000  0.4479400000000  0.5735250000000 1.0
C      1  0.4341460000000  0.4916310000000  0.5737580000000 1.0
C      1  0.5268180000000  0.5092270000000  0.5915190000000 1.0
C      1  0.4787020000000  0.5185170000000  0.5908880000000 1.0
C      1  0.4940470000000  0.4722230000000  0.5913270000000 1.0
C      1  0.4727640000000  0.5091350000000  0.4092360000000 1.0
C      1  0.5211960000000  0.5190120000000  0.4090560000000 1.0
C      1  0.5051810000000  0.4726980000000  0.4096770000000 1.0
C      1  0.5160670000000  0.5068440000000  0.5641020000000 1.0
C      1  0.4868090000000  0.5094580000000  0.5636530000000 1.0
C      1  0.4987980000000  0.4830120000000  0.5638680000000 1.0
C      1  0.4844770000000  0.5078510000000  0.4366970000000 1.0
C      1  0.5137510000000  0.5108900000000  0.4364700000000 1.0
C      1  0.5013850000000  0.4842450000000  0.4369130000000 1.0
C      1  0.5328430000000  0.4994850000000  0.5185990000000 1.0
C      1  0.4891710000000  0.5268390000000  0.5185320000000 1.0
C      1  0.4791300000000  0.4699760000000  0.5212770000000 1.0
C      1  0.4633440000000  0.4973310000000  0.4792830000000 1.0
C      1  0.5157550000000  0.5290920000000  0.4819760000000 1.0
C      1  0.5176070000000  0.4775930000000  0.4820370000000 1.0
C      1  0.5271360000000  0.4909180000000  0.3992700000000 1.0
C      1  0.4940280000000  0.5285470000000  0.3989350000000 1.0
C      1  0.4777660000000  0.4808800000000  0.3994350000000 1.0
C      1  0.4720770000000  0.4906820000000  0.6011260000000 1.0
C      1  0.5054560000000  0.5284180000000  0.6013030000000 1.0
C      1  0.5214880000000  0.4809300000000  0.6016350000000 1.0
C      1  0.5284320000000  0.5180190000000  0.5401000000000 1.0
C      1  0.4734670000000  0.5138010000000  0.5383370000000 1.0
C      1  0.5008000000000  0.4687590000000  0.5387050000000 1.0
C      1  0.4731290000000  0.5167090000000  0.4618590000000 1.0
C      1  0.5296050000000  0.5160070000000  0.4604770000000 1.0
C      1  0.4984690000000  0.4705150000000  0.4622260000000 1.0
C      1  0.4423500000000  0.5750250000000  0.5221180000000 1.0
C      1  0.4623620000000  0.4118560000000  0.5228490000000 1.0
C      1  0.5942790000000  0.5126380000000  0.5226670000000 1.0
C      1  0.5578660000000  0.5757190000000  0.4779230000000 1.0
C      1  0.5359260000000  0.4129530000000  0.4784460000000 1.0
C      1  0.4046270000000  0.5118720000000  0.4776990000000 1.0
C      1  0.5540160000000  0.4976010000000  0.4978450000000 1.0
C      1  0.4773030000000  0.5454650000000  0.4988740000000 1.0
C      1  0.4709840000000  0.4556620000000  0.4985390000000 1.0
C      1  0.4468690000000  0.4974310000000  0.5020170000000 1.0
C      1  0.5247060000000  0.5483670000000  0.5027350000000 1.0
C      1  0.5277990000000  0.4580000000000  0.5016950000000 1.0
C      1  0.5705860000000  0.5070800000000  0.5625760000000 1.0
C      1  0.4590980000000  0.5575030000000  0.5618910000000 1.0
C      1  0.4694480000000  0.4350120000000  0.5629190000000 1.0
C      1  0.4282320000000  0.5064340000000  0.4376330000000 1.0
C      1  0.5412160000000  0.5579850000000  0.4380090000000 1.0
C      1  0.5291350000000  0.4362230000000  0.4386750000000 1.0
C      1  0.4267490000000  0.4796590000000  0.4512680000000 1.0
C      1  0.5529740000000  0.4480080000000  0.4517070000000 1.0
C      1  0.5188040000000  0.5721150000000  0.4516320000000 1.0
C      1  0.5716200000000  0.4806080000000  0.5489500000000 1.0
C      1  0.4455210000000  0.4471170000000  0.5492810000000 1.0
C      1  0.4812270000000  0.5722570000000  0.5488660000000 1.0
C      1  0.5636890000000  0.5572010000000  0.4557990000000 1.0
C      1  0.4174370000000  0.5262920000000  0.4552870000000 1.0
C      1  0.5171890000000  0.4169660000000  0.4562760000000 1.0
C      1  0.4364520000000  0.5567890000000  0.5442840000000 1.0
C      1  0.5811480000000  0.5269370000000  0.5447900000000 1.0
C      1  0.4812510000000  0.4157360000000  0.5452660000000 1.0
C      1  0.4360190000000  0.4760970000000  0.5480990000000 1.0
C      1  0.5508860000000  0.4582500000000  0.5476380000000 1.0
C      1  0.5111520000000  0.5665560000000  0.5479390000000 1.0
C      1  0.5630000000000  0.4767740000000  0.4526400000000 1.0
C      1  0.4470940000000  0.4569400000000  0.4524510000000 1.0
C      1  0.4890740000000  0.5653390000000  0.4529360000000 1.0
C      1  0.5273700000000  0.4707390000000  0.5279830000000 1.0
C      1  0.5139220000000  0.5406650000000  0.5291890000000 1.0
C      1  0.4593910000000  0.4908480000000  0.5280150000000 1.0
C      1  0.4715500000000  0.4698010000000  0.4725430000000 1.0
C      1  0.4881260000000  0.5387270000000  0.4725870000000 1.0
C      1  0.5419590000000  0.4921160000000  0.4713870000000 1.0
C      1  0.4876810000000  0.4166650000000  0.4529270000000 1.0
C      1  0.5784610000000  0.5316570000000  0.4524430000000 1.0
C      1  0.4324380000000  0.5519500000000  0.4522710000000 1.0
C      1  0.5109720000000  0.4158970000000  0.5482880000000 1.0
C      1  0.4214360000000  0.5313850000000  0.5476270000000 1.0
C      1  0.5664130000000  0.5525020000000  0.5481470000000 1.0
C      1  0.5660510000000  0.5782640000000  0.5037530000000 1.0
C      1  0.3990630000000  0.5180600000000  0.5034920000000 1.0
C      1  0.5335580000000  0.4037770000000  0.5038590000000 1.0
C      1  0.4332250000000  0.5775660000000  0.4967040000000 1.0
C      1  0.6005810000000  0.5184570000000  0.4968400000000 1.0
C      1  0.4649450000000  0.4039460000000  0.4970550000000 1.0
C      1  0.4594980000000  0.4615890000000  0.4035140000000 1.0
C      1  0.5529610000000  0.4845280000000  0.4037000000000 1.0
C      1  0.4862780000000  0.5539630000000  0.4035710000000 1.0
C      1  0.5396240000000  0.4615110000000  0.5970000000000 1.0
C      1  0.4462370000000  0.4845080000000  0.5970400000000 1.0
C      1  0.5128370000000  0.5539780000000  0.5968770000000 1.0
C      1  0.4850510000000  0.5776420000000  0.4998460000000 1.0
C      1  0.4386520000000  0.4475070000000  0.4997770000000 1.0
C      1  0.5753040000000  0.4743320000000  0.4997320000000 1.0
C      1  0.5152000000000  0.5784380000000  0.5008500000000 1.0
C      1  0.5595390000000  0.4486210000000  0.5007280000000 1.0
C      1  0.4236400000000  0.4735090000000  0.5007700000000 1.0
C      1  0.4648650000000  0.4147540000000  0.4720540000000 1.0
C      1  0.5913540000000  0.5128170000000  0.4718270000000 1.0
C      1  0.4432790000000  0.5717830000000  0.4720050000000 1.0
C      1  0.5335720000000  0.4153710000000  0.5285590000000 1.0
C      1  0.4083770000000  0.5125830000000  0.5284950000000 1.0
C      1  0.5565480000000  0.5730900000000  0.5287630000000 1.0
C      1  0.4839080000000  0.4328710000000  0.4301010000000 1.0
C      1  0.5668330000000  0.5205090000000  0.4290370000000 1.0
C      1  0.4488240000000  0.5472350000000  0.4296650000000 1.0
C      1  0.5150760000000  0.4324420000000  0.5708970000000 1.0
C      1  0.4335790000000  0.5200110000000  0.5704540000000 1.0
C      1  0.5509380000000  0.5480030000000  0.5715480000000 1.0
C      1  0.5445270000000  0.5363300000000  0.4189890000000 1.0
C      1  0.4460650000000  0.5201100000000  0.4193980000000 1.0
C      1  0.5086450000000  0.4443210000000  0.4200340000000 1.0
C      1  0.4558620000000  0.5357070000000  0.5805290000000 1.0
C      1  0.5534830000000  0.5207740000000  0.5815930000000 1.0
C      1  0.4902040000000  0.4436150000000  0.5811600000000 1.0
C      1  0.5103370000000  0.5062280000000  0.5002850000000 1.0
END
