TITL C-51518-269-7 -73.4006587823098 125000 -484.835535938376 0 0 70 (C2) n - 1
REM
REM in /rds/project/t2_vol4/rds-t2-cs072/BORA/CARBON/from-Arr/AIRSS/Generating-Clusters/GAP-ML-2020/Higher-Symm/SD-CG/HFTN-CG
REM
REM
REM
REM
REM
REM ./C.cell (b20cbc046b6831c77cfcea5457e17084)
REM AIRSS Version 0.9.1 bugfix July 2018 build 013d7b7c2542+ Fri, 06 Jul 2018 19:26:36 +0100
REM compiler GCC version 9.3.0
REM options -cpp -mtune=generic -march=x86-64 -g -O0
REM seed -233703454 825116231 -1592902279 -1395635500 -1369161248 -1540035734 -1971120918 1302034603 -155494104 -181025894 1747160752 1048398241 -670610236 -929682663 179404068 1136796739 -523280413 -970704817 -292456803 1794071908 -2068258600 1813011978 2017355145 1912547619 915154631 476564415 -1581328195 -1277752224 1060953108 485871451 -1880474244 1717186194 850111387
REM
CELL 1.54180   50.00000   50.00000   50.00000   90.00000   90.00000   90.00000
LATT -1
SFAC C  
C      1  0.4827340000000  0.4955420000000  0.5194490000000 1.0
C      1  0.5253840000000  0.4962070000000  0.5128030000000 1.0
C      1  0.4746150000000  0.4962120000000  0.4892630000000 1.0
C      1  0.5172650000000  0.4955340000000  0.4826180000000 1.0
C      1  0.5035190000000  0.4750750000000  0.5157520000000 1.0
C      1  0.5032660000000  0.5175510000000  0.5152200000000 1.0
C      1  0.4964740000000  0.4750730000000  0.4863190000000 1.0
C      1  0.4967390000000  0.5175490000000  0.4868430000000 1.0
C      1  0.4344800000000  0.4637840000000  0.5043350000000 1.0
C      1  0.5626020000000  0.5399460000000  0.5030850000000 1.0
C      1  0.4374100000000  0.5399640000000  0.4989740000000 1.0
C      1  0.5655100000000  0.4637640000000  0.4977370000000 1.0
C      1  0.4623940000000  0.4322810000000  0.5043370000000 1.0
C      1  0.5344910000000  0.5701280000000  0.5083200000000 1.0
C      1  0.5375870000000  0.4322690000000  0.4977420000000 1.0
C      1  0.4655290000000  0.5701360000000  0.4937330000000 1.0
C      1  0.4840150000000  0.4466340000000  0.5550260000000 1.0
C      1  0.5142830000000  0.5549730000000  0.5566210000000 1.0
C      1  0.4857330000000  0.5549660000000  0.4454350000000 1.0
C      1  0.5159690000000  0.4466200000000  0.4470500000000 1.0
C      1  0.4503810000000  0.4854550000000  0.5555880000000 1.0
C      1  0.5429120000000  0.5152810000000  0.5531540000000 1.0
C      1  0.5496150000000  0.4854300000000  0.4464800000000 1.0
C      1  0.4570920000000  0.5152830000000  0.4489090000000 1.0
C      1  0.4957870000000  0.4311340000000  0.5356200000000 1.0
C      1  0.4963770000000  0.5671580000000  0.5379490000000 1.0
C      1  0.5036420000000  0.5671500000000  0.4641050000000 1.0
C      1  0.5041930000000  0.4311260000000  0.4664590000000 1.0
C      1  0.4288120000000  0.4922110000000  0.5400960000000 1.0
C      1  0.5517550000000  0.5029370000000  0.5284740000000 1.0
C      1  0.5711860000000  0.4921840000000  0.4619720000000 1.0
C      1  0.4482460000000  0.5029470000000  0.4735920000000 1.0
C      1  0.4984030000000  0.4635990000000  0.4330570000000 1.0
C      1  0.5018460000000  0.5387780000000  0.4303280000000 1.0
C      1  0.4981650000000  0.5387920000000  0.5717300000000 1.0
C      1  0.5015860000000  0.4636110000000  0.5690160000000 1.0
C      1  0.4738400000000  0.4971230000000  0.4344700000000 1.0
C      1  0.5293860000000  0.5042760000000  0.4352030000000 1.0
C      1  0.5261590000000  0.4971270000000  0.5675970000000 1.0
C      1  0.4706150000000  0.5042970000000  0.5668620000000 1.0
C      1  0.5692270000000  0.5126660000000  0.5077870000000 1.0
C      1  0.4258560000000  0.4906340000000  0.5129430000000 1.0
C      1  0.5741410000000  0.4906100000000  0.4891250000000 1.0
C      1  0.4307760000000  0.5126850000000  0.4942770000000 1.0
C      1  0.5075970000000  0.5760310000000  0.5130820000000 1.0
C      1  0.4889320000000  0.4228110000000  0.5107310000000 1.0
C      1  0.4924250000000  0.5760310000000  0.4889700000000 1.0
C      1  0.5110460000000  0.4228060000000  0.4913490000000 1.0
C      1  0.5414850000000  0.4580960000000  0.4535540000000 1.0
C      1  0.4605540000000  0.5436570000000  0.4522530000000 1.0
C      1  0.4585030000000  0.4581170000000  0.5485200000000 1.0
C      1  0.5394580000000  0.5436550000000  0.5498050000000 1.0
C      1  0.5512770000000  0.4477270000000  0.5197500000000 1.0
C      1  0.4538340000000  0.5570950000000  0.5176800000000 1.0
C      1  0.4487080000000  0.4477380000000  0.4823260000000 1.0
C      1  0.5461830000000  0.5570780000000  0.4843750000000 1.0
C      1  0.5502080000000  0.5540240000000  0.5260210000000 1.0
C      1  0.4498080000000  0.5540340000000  0.4760350000000 1.0
C      1  0.5520140000000  0.4477580000000  0.4777330000000 1.0
C      1  0.4479700000000  0.4477780000000  0.5243430000000 1.0
C      1  0.4732590000000  0.5330830000000  0.5625060000000 1.0
C      1  0.5267500000000  0.5330640000000  0.4395540000000 1.0
C      1  0.5295360000000  0.4677870000000  0.5615520000000 1.0
C      1  0.4704540000000  0.4677840000000  0.4405200000000 1.0
C      1  0.4700920000000  0.5547190000000  0.5411530000000 1.0
C      1  0.5456530000000  0.4520680000000  0.5462840000000 1.0
C      1  0.5299240000000  0.5547030000000  0.4609020000000 1.0
C      1  0.4543330000000  0.4520730000000  0.4557900000000 1.0
C      1  0.4965380000000  0.4918000000000  0.5734640000000 1.0
C      1  0.5034590000000  0.4917860000000  0.4286030000000 1.0
END
