TITL C-51522-411-8 -13.5465724538838 125000 -246.680621104938 0 0 38 (Cs) n - 1
REM
REM in /rds/project/t2_vol4/rds-t2-cs072/BORA/CARBON/from-Arr/AIRSS/Generating-Clusters/GAP-ML-2020/Higher-Symm/SD-CG/HFTN-CG
REM
REM
REM
REM
REM
REM ./C.cell (b20cbc046b6831c77cfcea5457e17084)
REM AIRSS Version 0.9.1 bugfix July 2018 build 013d7b7c2542+ Fri, 06 Jul 2018 19:26:36 +0100
REM compiler GCC version 9.3.0
REM options -cpp -mtune=generic -march=x86-64 -g -O0
REM seed 529405453 -250113426 -35202899 -537877850 -81463810 -430873588 1384126534 -1024214746 466641654 -193054208 2004126860 -579902199 -1870211915 144511532 724659342 -2127788312 -2121209842 -1765685253 1428457439 -1619035622 909070865 -554327552 -662411684 -1891838680 -1827442435 1395178896 458182523 1667586844 -1102569325 -441365218 -654243077 1052991327 1581173316
REM
CELL 1.54180   50.00000   50.00000   50.00000   90.00000   90.00000   90.00000
LATT -1
SFAC C  
C      1  0.4403980000000  0.4739580000000  0.4773740000000 1.0
C      1  0.5604970000000  0.4742090000000  0.4795700000000 1.0
C      1  0.5151880000000  0.5636980000000  0.4857650000000 1.0
C      1  0.4850760000000  0.5636350000000  0.4852150000000 1.0
C      1  0.4458210000000  0.5123050000000  0.5164460000000 1.0
C      1  0.5534900000000  0.5125310000000  0.5184140000000 1.0
C      1  0.4472550000000  0.4967860000000  0.4647530000000 1.0
C      1  0.5540110000000  0.4970090000000  0.4667040000000 1.0
C      1  0.4731950000000  0.5410140000000  0.4950360000000 1.0
C      1  0.5267970000000  0.5411260000000  0.4960160000000 1.0
C      1  0.5146480000000  0.5149210000000  0.4871430000000 1.0
C      1  0.4857700000000  0.5148610000000  0.4866150000000 1.0
C      1  0.5266560000000  0.4988670000000  0.4655390000000 1.0
C      1  0.4746260000000  0.4987590000000  0.4645880000000 1.0
C      1  0.4642000000000  0.4685170000000  0.5406390000000 1.0
C      1  0.5344240000000  0.4686650000000  0.5419240000000 1.0
C      1  0.5357950000000  0.4560830000000  0.4782270000000 1.0
C      1  0.4652080000000  0.4559350000000  0.4769360000000 1.0
C      1  0.5133040000000  0.5190810000000  0.5376000000000 1.0
C      1  0.4852510000000  0.5190220000000  0.5370870000000 1.0
C      1  0.5286690000000  0.4967750000000  0.5086970000000 1.0
C      1  0.4710460000000  0.4966540000000  0.5076440000000 1.0
C      1  0.4869840000000  0.4717830000000  0.4656140000000 1.0
C      1  0.5143810000000  0.4718410000000  0.4661150000000 1.0
C      1  0.4864890000000  0.5916800000000  0.4746580000000 1.0
C      1  0.5140440000000  0.5917370000000  0.4751620000000 1.0
C      1  0.4643030000000  0.5333530000000  0.5217980000000 1.0
C      1  0.5347370000000  0.5335010000000  0.5230850000000 1.0
C      1  0.5396030000000  0.4415390000000  0.5006780000000 1.0
C      1  0.4606430000000  0.4413730000000  0.4992330000000 1.0
C      1  0.4841050000000  0.4881060000000  0.5339510000000 1.0
C      1  0.5146940000000  0.4881700000000  0.5345100000000 1.0
C      1  0.4304730000000  0.4742660000000  0.5043820000000 1.0
C      1  0.5694280000000  0.4745570000000  0.5069220000000 1.0
C      1  0.5497820000000  0.4581400000000  0.5212640000000 1.0
C      1  0.4496510000000  0.4579300000000  0.5194330000000 1.0
C      1  0.5760730000000  0.4989680000000  0.5190280000000 1.0
C      1  0.4232870000000  0.4986480000000  0.5162360000000 1.0
END
