TITL C-51543-330-3 -42.656830077899 125000 -489.492196193693 0 0 72 (C1) n - 1
REM
REM in /rds/project/t2_vol4/rds-t2-cs072/BORA/CARBON/from-Arr/AIRSS/Generating-Clusters/GAP-ML-2020/Higher-Symm/SD-CG/HFTN-CG
REM
REM
REM
REM
REM
REM ./C.cell (b20cbc046b6831c77cfcea5457e17084)
REM AIRSS Version 0.9.1 bugfix July 2018 build 013d7b7c2542+ Fri, 06 Jul 2018 19:26:36 +0100
REM compiler GCC version 9.3.0
REM options -cpp -mtune=generic -march=x86-64 -g -O0
REM seed -1118131925 -2114896699 -1440797922 1465152103 -698840875 1082635655 -1433463221 150743682 371288648 2117062836 -1377251020 -441876305 75257961 -94324976 -1003884683 1875534267 31025915 785365999 -247707983 -550822766 -1819508735 -2100679156 -688324218 -516173188 -417303761 740114329 53455283 -810180486 -248180211 95511037 -686179832 -1804317781 340008864
REM
CELL 1.54180   50.00000   50.00000   50.00000   90.00000   90.00000   90.00000
LATT -1
SFAC C  
C      1  0.5435690000000  0.5214900000000  0.4714400000000 1.0
C      1  0.5208040000000  0.5166490000000  0.5131480000000 1.0
C      1  0.4951530000000  0.5224010000000  0.5262550000000 1.0
C      1  0.4749250000000  0.5197200000000  0.5035700000000 1.0
C      1  0.4900190000000  0.5161450000000  0.4780840000000 1.0
C      1  0.5253430000000  0.4860470000000  0.5169830000000 1.0
C      1  0.4867490000000  0.4962930000000  0.5367520000000 1.0
C      1  0.4685470000000  0.4934580000000  0.5139750000000 1.0
C      1  0.4857980000000  0.4897620000000  0.4650250000000 1.0
C      1  0.5506330000000  0.4949760000000  0.4571780000000 1.0
C      1  0.5347320000000  0.4693770000000  0.5602070000000 1.0
C      1  0.4631890000000  0.4732860000000  0.5634830000000 1.0
C      1  0.4293160000000  0.4722960000000  0.4821340000000 1.0
C      1  0.4915000000000  0.4743380000000  0.4207330000000 1.0
C      1  0.5851400000000  0.4739120000000  0.4836440000000 1.0
C      1  0.5433170000000  0.4647630000000  0.4686640000000 1.0
C      1  0.5373520000000  0.4413730000000  0.5163840000000 1.0
C      1  0.4908810000000  0.4472060000000  0.5367580000000 1.0
C      1  0.4588190000000  0.4463930000000  0.4961000000000 1.0
C      1  0.4934240000000  0.4465960000000  0.4543220000000 1.0
C      1  0.5336460000000  0.5410180000000  0.4524100000000 1.0
C      1  0.5436500000000  0.5333940000000  0.5268510000000 1.0
C      1  0.4902410000000  0.5391540000000  0.5511530000000 1.0
C      1  0.4493920000000  0.5354240000000  0.5090810000000 1.0
C      1  0.4756200000000  0.5357550000000  0.4561930000000 1.0
C      1  0.5332370000000  0.4991490000000  0.4340280000000 1.0
C      1  0.5683460000000  0.4944000000000  0.5269100000000 1.0
C      1  0.5003520000000  0.5007670000000  0.5772480000000 1.0
C      1  0.4405980000000  0.4935830000000  0.5252420000000 1.0
C      1  0.4530170000000  0.4972850000000  0.4470890000000 1.0
C      1  0.4313670000000  0.4462980000000  0.4912050000000 1.0
C      1  0.4833940000000  0.4480910000000  0.4277010000000 1.0
C      1  0.5715750000000  0.4536100000000  0.4681050000000 1.0
C      1  0.5366760000000  0.4466110000000  0.5435630000000 1.0
C      1  0.4871990000000  0.4573680000000  0.5650830000000 1.0
C      1  0.5671590000000  0.5201860000000  0.5155720000000 1.0
C      1  0.5124930000000  0.5238760000000  0.5661490000000 1.0
C      1  0.4444340000000  0.5219020000000  0.5353280000000 1.0
C      1  0.4488350000000  0.5220280000000  0.4601100000000 1.0
C      1  0.5191570000000  0.5250630000000  0.4337630000000 1.0
C      1  0.5419970000000  0.4659100000000  0.5008900000000 1.0
C      1  0.5000990000000  0.4752560000000  0.5253070000000 1.0
C      1  0.4638970000000  0.4482770000000  0.5237570000000 1.0
C      1  0.4738590000000  0.4612170000000  0.4713350000000 1.0
C      1  0.5210700000000  0.4574180000000  0.4511330000000 1.0
C      1  0.4797710000000  0.4964570000000  0.4345540000000 1.0
C      1  0.5785220000000  0.4985200000000  0.4711370000000 1.0
C      1  0.5448630000000  0.4920150000000  0.5455400000000 1.0
C      1  0.4725590000000  0.5002540000000  0.5667100000000 1.0
C      1  0.4287340000000  0.4956240000000  0.4980890000000 1.0
C      1  0.4677820000000  0.5748180000000  0.5305300000000 1.0
C      1  0.4586410000000  0.5738730000000  0.4815910000000 1.0
C      1  0.5030950000000  0.5762480000000  0.4592170000000 1.0
C      1  0.5393980000000  0.5648030000000  0.4919040000000 1.0
C      1  0.5182310000000  0.5746020000000  0.5357720000000 1.0
C      1  0.4782620000000  0.5647430000000  0.4640380000000 1.0
C      1  0.5269370000000  0.5652840000000  0.4670130000000 1.0
C      1  0.5360930000000  0.5619320000000  0.5191000000000 1.0
C      1  0.4920580000000  0.5673150000000  0.5418770000000 1.0
C      1  0.4558130000000  0.5647630000000  0.5077900000000 1.0
C      1  0.5193370000000  0.4753340000000  0.4291000000000 1.0
C      1  0.5705730000000  0.4734440000000  0.5084660000000 1.0
C      1  0.5097260000000  0.4738810000000  0.5732970000000 1.0
C      1  0.4483690000000  0.4680360000000  0.5397190000000 1.0
C      1  0.4476100000000  0.4730620000000  0.4601140000000 1.0
C      1  0.5367350000000  0.5195950000000  0.5524530000000 1.0
C      1  0.4624540000000  0.5257720000000  0.5567800000000 1.0
C      1  0.4375690000000  0.5201180000000  0.4866430000000 1.0
C      1  0.4910400000000  0.5234850000000  0.4339170000000 1.0
C      1  0.5688880000000  0.5207490000000  0.4870440000000 1.0
C      1  0.5154300000000  0.4326580000000  0.5319270000000 1.0
C      1  0.5177080000000  0.5207670000000  0.4856650000000 1.0
END
