TITL C-51522-411-4 -0.157797599098804 125000 -695.771153290658 0 0 101 (C1) n - 1
REM
REM in /rds/project/t2_vol4/rds-t2-cs072/BORA/CARBON/from-Arr/AIRSS/Generating-Clusters/GAP-ML-2020/Higher-Symm/SD-CG/HFTN-CG
REM
REM
REM
REM
REM
REM ./C.cell (b20cbc046b6831c77cfcea5457e17084)
REM AIRSS Version 0.9.1 bugfix July 2018 build 013d7b7c2542+ Fri, 06 Jul 2018 19:26:36 +0100
REM compiler GCC version 9.3.0
REM options -cpp -mtune=generic -march=x86-64 -g -O0
REM seed -858557690 -1155829708 1941103615 553068143 280948546 -38745018 -31205127 -1701679500 -305157358 -1802976865 1073629731 -657827366 -2001409445 1204991140 -1041844869 -1226953645 1103180956 1840464558 853602411 717007673 402714265 1429661402 1749215586 -1259210614 235541026 1524498373 1257190257 1650428094 1148156501 -647225979 -101566320 -484652274 1267278530
REM
CELL 1.54180   50.00000   50.00000   50.00000   90.00000   90.00000   90.00000
LATT -1
SFAC C  
C      1  0.5515810000000  0.4421800000000  0.4654030000000 1.0
C      1  0.4831220000000  0.4421320000000  0.4400100000000 1.0
C      1  0.4380040000000  0.4423700000000  0.4974120000000 1.0
C      1  0.4785930000000  0.4421780000000  0.5581010000000 1.0
C      1  0.5488160000000  0.4421380000000  0.5384690000000 1.0
C      1  0.5712120000000  0.4888060000000  0.5170380000000 1.0
C      1  0.5382490000000  0.4886070000000  0.4373060000000 1.0
C      1  0.4525900000000  0.4892390000000  0.4442990000000 1.0
C      1  0.4320070000000  0.4883290000000  0.5281300000000 1.0
C      1  0.5057400000000  0.4889580000000  0.5727210000000 1.0
C      1  0.4378890000000  0.5139220000000  0.4584660000000 1.0
C      1  0.4407710000000  0.5124960000000  0.5466000000000 1.0
C      1  0.5258740000000  0.5138240000000  0.5699640000000 1.0
C      1  0.5750510000000  0.5130830000000  0.4969550000000 1.0
C      1  0.5203980000000  0.5130990000000  0.4275250000000 1.0
C      1  0.5074030000000  0.4407940000000  0.5617050000000 1.0
C      1  0.5609930000000  0.4407140000000  0.5120890000000 1.0
C      1  0.5303380000000  0.4406590000000  0.4455330000000 1.0
C      1  0.4577710000000  0.4409330000000  0.4541600000000 1.0
C      1  0.4435100000000  0.4405760000000  0.5259610000000 1.0
C      1  0.5747460000000  0.5025430000000  0.5433000000000 1.0
C      1  0.5643780000000  0.5020850000000  0.4419710000000 1.0
C      1  0.4647370000000  0.5026730000000  0.4207670000000 1.0
C      1  0.4139370000000  0.5021210000000  0.5087620000000 1.0
C      1  0.4821190000000  0.5022010000000  0.5848140000000 1.0
C      1  0.5647140000000  0.4884640000000  0.5670540000000 1.0
C      1  0.5839010000000  0.4880390000000  0.4588900000000 1.0
C      1  0.4867060000000  0.4883430000000  0.4074720000000 1.0
C      1  0.4081380000000  0.4883600000000  0.4834530000000 1.0
C      1  0.4564870000000  0.4879780000000  0.5826220000000 1.0
C      1  0.5026510000000  0.4153460000000  0.4757830000000 1.0
C      1  0.4779290000000  0.4154170000000  0.4898660000000 1.0
C      1  0.4837410000000  0.4153530000000  0.5177550000000 1.0
C      1  0.5120330000000  0.4153380000000  0.5209370000000 1.0
C      1  0.5237210000000  0.4152990000000  0.4949760000000 1.0
C      1  0.5084330000000  0.5389700000000  0.5693080000000 1.0
C      1  0.5692330000000  0.5383410000000  0.5131210000000 1.0
C      1  0.5340420000000  0.5382970000000  0.4382280000000 1.0
C      1  0.4523650000000  0.5392050000000  0.4488330000000 1.0
C      1  0.4362530000000  0.5377470000000  0.5300300000000 1.0
C      1  0.5497770000000  0.5271740000000  0.4815280000000 1.0
C      1  0.4979640000000  0.5273120000000  0.4467030000000 1.0
C      1  0.4490240000000  0.5280840000000  0.4855760000000 1.0
C      1  0.4705860000000  0.5263160000000  0.5442630000000 1.0
C      1  0.5327260000000  0.5284980000000  0.5413780000000 1.0
C      1  0.5246880000000  0.4637050000000  0.4302090000000 1.0
C      1  0.4416430000000  0.4641590000000  0.4547790000000 1.0
C      1  0.4389200000000  0.4634520000000  0.5418160000000 1.0
C      1  0.5208700000000  0.4639770000000  0.5706910000000 1.0
C      1  0.5737940000000  0.4637840000000  0.5020520000000 1.0
C      1  0.4826500000000  0.5277570000000  0.5712550000000 1.0
C      1  0.5624160000000  0.5282560000000  0.5384580000000 1.0
C      1  0.5559460000000  0.5276490000000  0.4523610000000 1.0
C      1  0.4722010000000  0.5283050000000  0.4320410000000 1.0
C      1  0.4268040000000  0.5277230000000  0.5055510000000 1.0
C      1  0.5947570000000  0.5051950000000  0.4771240000000 1.0
C      1  0.5074690000000  0.5053730000000  0.4027320000000 1.0
C      1  0.4102300000000  0.5058590000000  0.4625760000000 1.0
C      1  0.4368010000000  0.5049100000000  0.5742970000000 1.0
C      1  0.5507110000000  0.5058760000000  0.5827610000000 1.0
C      1  0.4758660000000  0.5139770000000  0.4940960000000 1.0
C      1  0.4871530000000  0.5134470000000  0.5211240000000 1.0
C      1  0.5162580000000  0.5138220000000  0.5187040000000 1.0
C      1  0.5230020000000  0.5137020000000  0.4903040000000 1.0
C      1  0.4980410000000  0.5135770000000  0.4750520000000 1.0
C      1  0.5206010000000  0.4815980000000  0.4861240000000 1.0
C      1  0.4932370000000  0.4816730000000  0.4760540000000 1.0
C      1  0.4751180000000  0.4819100000000  0.4989330000000 1.0
C      1  0.4913770000000  0.4817430000000  0.5230870000000 1.0
C      1  0.5194990000000  0.4816340000000  0.5152180000000 1.0
C      1  0.4283570000000  0.4660250000000  0.4813610000000 1.0
C      1  0.4604740000000  0.4656930000000  0.5624770000000 1.0
C      1  0.5471650000000  0.4659430000000  0.5567820000000 1.0
C      1  0.5687550000000  0.4657910000000  0.4726570000000 1.0
C      1  0.4951120000000  0.4658740000000  0.4261480000000 1.0
C      1  0.5316690000000  0.6009930000000  0.4936710000000 1.0
C      1  0.5152730000000  0.6008310000000  0.4714290000000 1.0
C      1  0.4753400000000  0.6027580000000  0.4908700000000 1.0
C      1  0.4732630000000  0.5982480000000  0.5191550000000 1.0
C      1  0.5008280000000  0.6025730000000  0.5259740000000 1.0
C      1  0.4574720000000  0.5539820000000  0.4723750000000 1.0
C      1  0.4606920000000  0.5514170000000  0.5321400000000 1.0
C      1  0.5178390000000  0.5540540000000  0.5473100000000 1.0
C      1  0.5508630000000  0.5527250000000  0.4973160000000 1.0
C      1  0.5131820000000  0.5527630000000  0.4506100000000 1.0
C      1  0.4668120000000  0.4277890000000  0.5362430000000 1.0
C      1  0.5243590000000  0.4278120000000  0.5428090000000 1.0
C      1  0.5482710000000  0.4278130000000  0.4900350000000 1.0
C      1  0.5054730000000  0.4277810000000  0.4508440000000 1.0
C      1  0.4551560000000  0.4279960000000  0.4794440000000 1.0
C      1  0.5270020000000  0.5704530000000  0.5000540000000 1.0
C      1  0.5079780000000  0.5704350000000  0.4739610000000 1.0
C      1  0.4787820000000  0.5714090000000  0.4841790000000 1.0
C      1  0.4785510000000  0.5682990000000  0.5156750000000 1.0
C      1  0.5083190000000  0.5714870000000  0.5249670000000 1.0
C      1  0.5444080000000  0.4784820000000  0.5298630000000 1.0
C      1  0.5420900000000  0.4779120000000  0.4667510000000 1.0
C      1  0.4816360000000  0.4784600000000  0.4495850000000 1.0
C      1  0.4463540000000  0.4780470000000  0.5019870000000 1.0
C      1  0.4853270000000  0.4780160000000  0.5513700000000 1.0
C      1  0.5037080000000  0.6118030000000  0.4971960000000 1.0
END
