TITL C-51517-1622-10 0.0137957183897671 125000 -94.4147341608774 0 0 15 (C1) n - 1
REM
REM in /rds/project/t2_vol4/rds-t2-cs072/BORA/CARBON/from-Arr/AIRSS/Generating-Clusters/GAP-ML-2020/Higher-Symm/SD-CG/HFTN-CG
REM
REM
REM
REM
REM
REM ./C.cell (b20cbc046b6831c77cfcea5457e17084)
REM AIRSS Version 0.9.1 bugfix July 2018 build 013d7b7c2542+ Fri, 06 Jul 2018 19:26:36 +0100
REM compiler GCC version 9.3.0
REM options -cpp -mtune=generic -march=x86-64 -g -O0
REM seed 1436620169 512868147 -1349420411 -1822186288 1995257351 1831435398 -645312830 1013989360 -1868328166 37001872 236727548 1318668429 890668402 -2107953634 1741357626 -2128148332 -857272434 -933100600 -1896737240 -416943854 -1153536634 -1088954343 -1388038186 -1499739016 1832999928 -1537378666 -792312166 1797518943 -215132820 -718309015 1833158632 -1421650746 -1642495520
REM
CELL 1.54180   50.00000   50.00000   50.00000   90.00000   90.00000   90.00000
LATT -1
SFAC C  
C      1  0.4694650000000  0.4872550000000  0.5173170000000 1.0
C      1  0.4497110000000  0.5056950000000  0.5168610000000 1.0
C      1  0.4543340000000  0.5147240000000  0.4770200000000 1.0
C      1  0.4561620000000  0.4909350000000  0.4651850000000 1.0
C      1  0.5523170000000  0.4859750000000  0.5036730000000 1.0
C      1  0.5443770000000  0.5065210000000  0.5215120000000 1.0
C      1  0.5361770000000  0.5102280000000  0.4733800000000 1.0
C      1  0.5348370000000  0.4821040000000  0.4806160000000 1.0
C      1  0.5178040000000  0.5102340000000  0.5273820000000 1.0
C      1  0.5085160000000  0.5145770000000  0.4800860000000 1.0
C      1  0.4988830000000  0.4926390000000  0.5144590000000 1.0
C      1  0.5069230000000  0.4863030000000  0.4873160000000 1.0
C      1  0.5552660000000  0.5147440000000  0.4959330000000 1.0
C      1  0.4538110000000  0.4894480000000  0.4932210000000 1.0
C      1  0.5030560000000  0.5220800000000  0.5073270000000 1.0
END
