TITL C-51535-301-6 0.0604904384396555 125000 -342.730311356435 0 0 50 (D5) n - 1
REM
REM in /rds/project/t2_vol4/rds-t2-cs072/BORA/CARBON/from-Arr/AIRSS/Generating-Clusters/GAP-ML-2020/Higher-Symm/SD-CG/HFTN-CG
REM
REM
REM
REM
REM
REM ./C.cell (b20cbc046b6831c77cfcea5457e17084)
REM AIRSS Version 0.9.1 bugfix July 2018 build 013d7b7c2542+ Fri, 06 Jul 2018 19:26:36 +0100
REM compiler GCC version 9.3.0
REM options -cpp -mtune=generic -march=x86-64 -g -O0
REM seed -492096327 -1747243606 2018259956 1731853134 -797853202 2063485257 1908646710 -820818656 -2012473435 1285688634 422605742 -202810803 1490589804 -146455022 -1164101075 -849134636 1451384693 458821058 -481330109 -492746527 -273961829 1620540469 -571071486 -518584292 -405521730 -1910632016 1132495427 644920099 -671002613 140191682 402659295 802658108 1692625347
REM
CELL 1.54180   50.00000   50.00000   50.00000   90.00000   90.00000   90.00000
LATT -1
SFAC C  
C      1  0.5502490000000  0.5568000000000  0.5127860000000 1.0
C      1  0.5695510000000  0.4697340000000  0.5127060000000 1.0
C      1  0.4927100000000  0.4244730000000  0.5125390000000 1.0
C      1  0.4259190000000  0.4835660000000  0.5125150000000 1.0
C      1  0.4614800000000  0.5653490000000  0.5126680000000 1.0
C      1  0.5500370000000  0.4429800000000  0.4873590000000 1.0
C      1  0.5697190000000  0.5299610000000  0.4874960000000 1.0
C      1  0.4930770000000  0.5755580000000  0.4874410000000 1.0
C      1  0.4260280000000  0.5167580000000  0.4872710000000 1.0
C      1  0.4612310000000  0.4348200000000  0.4872210000000 1.0
C      1  0.4362260000000  0.5342020000000  0.4705880000000 1.0
C      1  0.5128160000000  0.5712870000000  0.4707450000000 1.0
C      1  0.5717530000000  0.5099060000000  0.4707550000000 1.0
C      1  0.5315890000000  0.4348850000000  0.4706030000000 1.0
C      1  0.4478290000000  0.4499010000000  0.4705010000000 1.0
C      1  0.4359930000000  0.4660770000000  0.5292270000000 1.0
C      1  0.5124190000000  0.4286580000000  0.5292910000000 1.0
C      1  0.5716240000000  0.4897810000000  0.5294530000000 1.0
C      1  0.5317880000000  0.5649760000000  0.5294880000000 1.0
C      1  0.4479630000000  0.5503260000000  0.5293490000000 1.0
C      1  0.5022690000000  0.5247770000000  0.5372490000000 1.0
C      1  0.5242720000000  0.5054160000000  0.5372570000000 1.0
C      1  0.5126580000000  0.4785060000000  0.5372070000000 1.0
C      1  0.4834760000000  0.4812370000000  0.5371680000000 1.0
C      1  0.4770560000000  0.5098340000000  0.5371940000000 1.0
C      1  0.5022680000000  0.4752130000000  0.4627580000000 1.0
C      1  0.5243560000000  0.4944780000000  0.4628140000000 1.0
C      1  0.5128590000000  0.5214380000000  0.4628300000000 1.0
C      1  0.4836660000000  0.5188350000000  0.4627850000000 1.0
C      1  0.4771210000000  0.4902660000000  0.4627400000000 1.0
C      1  0.5504390000000  0.4482570000000  0.5168400000000 1.0
C      1  0.4663790000000  0.4360030000000  0.5167030000000 1.0
C      1  0.4287480000000  0.5121620000000  0.5167430000000 1.0
C      1  0.4895520000000  0.5714850000000  0.5169040000000 1.0
C      1  0.5647610000000  0.5319890000000  0.5169640000000 1.0
C      1  0.5507130000000  0.5515220000000  0.4833060000000 1.0
C      1  0.4667070000000  0.5641430000000  0.4832000000000 1.0
C      1  0.4287450000000  0.4881490000000  0.4830510000000 1.0
C      1  0.4892880000000  0.4285610000000  0.4830650000000 1.0
C      1  0.5646690000000  0.4677280000000  0.4832230000000 1.0
C      1  0.4507950000000  0.5225720000000  0.5316880000000 1.0
C      1  0.5062670000000  0.5537010000000  0.5318070000000 1.0
C      1  0.5530150000000  0.5105630000000  0.5318210000000 1.0
C      1  0.5264340000000  0.4527730000000  0.5317110000000 1.0
C      1  0.4632590000000  0.4601950000000  0.5316280000000 1.0
C      1  0.4507880000000  0.4776430000000  0.4681700000000 1.0
C      1  0.5061240000000  0.4462720000000  0.4682110000000 1.0
C      1  0.5530600000000  0.4892050000000  0.4683330000000 1.0
C      1  0.5267320000000  0.5471110000000  0.4683660000000 1.0
C      1  0.4635250000000  0.5399650000000  0.4682660000000 1.0
END
