TITL C-51533-284-8 0.0801238646575249 125000 -417.593573408396 0 0 62 (C2) n - 1
REM
REM in /rds/project/t2_vol4/rds-t2-cs072/BORA/CARBON/from-Arr/AIRSS/Generating-Clusters/GAP-ML-2020/Higher-Symm/SD-CG/HFTN-CG
REM
REM
REM
REM
REM
REM ./C.cell (b20cbc046b6831c77cfcea5457e17084)
REM AIRSS Version 0.9.1 bugfix July 2018 build 013d7b7c2542+ Fri, 06 Jul 2018 19:26:36 +0100
REM compiler GCC version 9.3.0
REM options -cpp -mtune=generic -march=x86-64 -g -O0
REM seed -982517045 1829184385 2136236633 1613506611 406860551 1524327172 900470493 -1258173815 -297369549 1218725986 433234638 -1736056852 -174726610 -1487123700 1374235984 -1867645628 1115201457 1856496933 1512780378 -308495430 149263928 1415432097 1789498997 -663265668 -181995628 1297736209 -1624103908 260336084 995399416 -1511577290 761240232 790533451 -728296897
REM
CELL 1.54180   50.00000   50.00000   50.00000   90.00000   90.00000   90.00000
LATT -1
SFAC C  
C      1  0.5549890000000  0.5472430000000  0.5173370000000 1.0
C      1  0.5552850000000  0.4531190000000  0.4826250000000 1.0
C      1  0.5225160000000  0.4504270000000  0.5419240000000 1.0
C      1  0.5221610000000  0.5497190000000  0.4580610000000 1.0
C      1  0.4338870000000  0.5208780000000  0.5321080000000 1.0
C      1  0.4340030000000  0.4786880000000  0.4679370000000 1.0
C      1  0.5593100000000  0.5576150000000  0.4916870000000 1.0
C      1  0.5596930000000  0.4427750000000  0.5082720000000 1.0
C      1  0.5776320000000  0.5004510000000  0.5137150000000 1.0
C      1  0.5776240000000  0.5000580000000  0.4862320000000 1.0
C      1  0.5566350000000  0.5155580000000  0.4710870000000 1.0
C      1  0.5567560000000  0.4848140000000  0.5288740000000 1.0
C      1  0.4245370000000  0.5154310000000  0.5041320000000 1.0
C      1  0.4246370000000  0.4840740000000  0.4959200000000 1.0
C      1  0.4622490000000  0.5091860000000  0.4881480000000 1.0
C      1  0.4623180000000  0.4905660000000  0.5118780000000 1.0
C      1  0.4578080000000  0.5383910000000  0.5332910000000 1.0
C      1  0.4580380000000  0.4613330000000  0.4667380000000 1.0
C      1  0.4964500000000  0.4413090000000  0.5290150000000 1.0
C      1  0.4960450000000  0.5586660000000  0.4709870000000 1.0
C      1  0.4426770000000  0.4655650000000  0.5103810000000 1.0
C      1  0.4424450000000  0.5340580000000  0.4896590000000 1.0
C      1  0.5163470000000  0.5249010000000  0.4459710000000 1.0
C      1  0.5165470000000  0.4752070000000  0.5540180000000 1.0
C      1  0.4976530000000  0.5100830000000  0.4317460000000 1.0
C      1  0.4977660000000  0.4899020000000  0.5682560000000 1.0
C      1  0.5296520000000  0.4744420000000  0.4477490000000 1.0
C      1  0.5295200000000  0.5257520000000  0.5522310000000 1.0
C      1  0.5691690000000  0.5247110000000  0.5271350000000 1.0
C      1  0.5693100000000  0.4757440000000  0.4728170000000 1.0
C      1  0.5100480000000  0.5111510000000  0.4749770000000 1.0
C      1  0.5101390000000  0.4889160000000  0.5250160000000 1.0
C      1  0.5017120000000  0.5519030000000  0.5257830000000 1.0
C      1  0.5020350000000  0.4481090000000  0.4742150000000 1.0
C      1  0.5020060000000  0.4816980000000  0.4407550000000 1.0
C      1  0.5019270000000  0.5183150000000  0.5592440000000 1.0
C      1  0.5294380000000  0.5473660000000  0.5332780000000 1.0
C      1  0.5297250000000  0.4528280000000  0.4667020000000 1.0
C      1  0.4874360000000  0.4776300000000  0.5137620000000 1.0
C      1  0.4872800000000  0.5222870000000  0.4862460000000 1.0
C      1  0.5484370000000  0.5459140000000  0.4694200000000 1.0
C      1  0.5487580000000  0.4544050000000  0.5305470000000 1.0
C      1  0.4592850000000  0.4486460000000  0.4916140000000 1.0
C      1  0.4589540000000  0.5510860000000  0.5084140000000 1.0
C      1  0.4505140000000  0.4788410000000  0.5565380000000 1.0
C      1  0.4503380000000  0.5208340000000  0.4434960000000 1.0
C      1  0.4874490000000  0.5522480000000  0.4997940000000 1.0
C      1  0.4877920000000  0.4476710000000  0.5002150000000 1.0
C      1  0.4854830000000  0.4622090000000  0.4554430000000 1.0
C      1  0.4852660000000  0.5376950000000  0.5445670000000 1.0
C      1  0.4482460000000  0.5429470000000  0.4618710000000 1.0
C      1  0.4485550000000  0.4567150000000  0.5381650000000 1.0
C      1  0.4772410000000  0.4713150000000  0.5652370000000 1.0
C      1  0.4770090000000  0.5285350000000  0.4347790000000 1.0
C      1  0.4741900000000  0.5523710000000  0.4538670000000 1.0
C      1  0.4745660000000  0.4474610000000  0.5461510000000 1.0
C      1  0.5530600000000  0.4901170000000  0.4534500000000 1.0
C      1  0.5530260000000  0.5102320000000  0.5465130000000 1.0
C      1  0.5331000000000  0.4915820000000  0.5106990000000 1.0
C      1  0.5330370000000  0.5086350000000  0.4892780000000 1.0
C      1  0.4501580000000  0.5002390000000  0.5386770000000 1.0
C      1  0.4501340000000  0.4994340000000  0.4613570000000 1.0
END
