TITL C-51545-330-5 0.134972525653944 125000 -602.399437519959 0 0 82 (C1) n - 1
REM
REM in /rds/project/t2_vol4/rds-t2-cs072/BORA/CARBON/from-Arr/AIRSS/Generating-Clusters/GAP-ML-2020/Higher-Symm/SD-CG/HFTN-CG
REM
REM
REM
REM
REM
REM ./C.cell (b20cbc046b6831c77cfcea5457e17084)
REM AIRSS Version 0.9.1 bugfix July 2018 build 013d7b7c2542+ Fri, 06 Jul 2018 19:26:36 +0100
REM compiler GCC version 9.3.0
REM options -cpp -mtune=generic -march=x86-64 -g -O0
REM seed 1661329695 -2138874128 807029046 -1089669948 737597319 -1566745096 -138681012 1666545285 -585311984 941424391 -1487926414 619077007 1380902286 1715650205 1137199280 -557864861 923542684 1624230419 1009763593 678580403 -760589950 419093133 -1230214328 2078480804 419980954 -155898359 1040328299 -199304717 -416641913 1290949414 -1646749650 -1707641092 242761543
REM
CELL 1.54180   50.00000   50.00000   50.00000   90.00000   90.00000   90.00000
LATT -1
SFAC C  
C      1  0.5032310000000  0.5232920000000  0.5812190000000 1.0
C      1  0.4798710000000  0.5027330000000  0.5814830000000 1.0
C      1  0.5233010000000  0.4739550000000  0.5852290000000 1.0
C      1  0.5456300000000  0.5373170000000  0.4556690000000 1.0
C      1  0.4424270000000  0.5216830000000  0.4577230000000 1.0
C      1  0.5088530000000  0.4388590000000  0.4569350000000 1.0
C      1  0.5726410000000  0.4976720000000  0.4880970000000 1.0
C      1  0.4639590000000  0.5661670000000  0.4890590000000 1.0
C      1  0.4614320000000  0.4364740000000  0.4922400000000 1.0
C      1  0.5636380000000  0.4901680000000  0.4625490000000 1.0
C      1  0.4745440000000  0.5607680000000  0.4634680000000 1.0
C      1  0.4601000000000  0.4485510000000  0.4667040000000 1.0
C      1  0.5658810000000  0.5302810000000  0.5243660000000 1.0
C      1  0.4390980000000  0.5447970000000  0.5257480000000 1.0
C      1  0.4949110000000  0.4264250000000  0.5267340000000 1.0
C      1  0.4530150000000  0.4521000000000  0.5378990000000 1.0
C      1  0.5682030000000  0.4808060000000  0.5334550000000 1.0
C      1  0.4826720000000  0.5695530000000  0.5340000000000 1.0
C      1  0.5528070000000  0.5103680000000  0.4456690000000 1.0
C      1  0.4618400000000  0.5413620000000  0.4468560000000 1.0
C      1  0.4817760000000  0.4465840000000  0.4481930000000 1.0
C      1  0.5376060000000  0.4990990000000  0.4248280000000 1.0
C      1  0.4780940000000  0.5330230000000  0.4256150000000 1.0
C      1  0.4787250000000  0.4641270000000  0.4262970000000 1.0
C      1  0.4630670000000  0.5439300000000  0.5672280000000 1.0
C      1  0.4880270000000  0.4510010000000  0.5682440000000 1.0
C      1  0.5514760000000  0.5099020000000  0.5668220000000 1.0
C      1  0.5117450000000  0.5695230000000  0.4914690000000 1.0
C      1  0.4401810000000  0.4789460000000  0.4963790000000 1.0
C      1  0.5539990000000  0.4537250000000  0.4911370000000 1.0
C      1  0.4576560000000  0.5571620000000  0.5429000000000 1.0
C      1  0.4770670000000  0.4379430000000  0.5457570000000 1.0
C      1  0.5666430000000  0.5087460000000  0.5424780000000 1.0
C      1  0.5038730000000  0.5637190000000  0.4645100000000 1.0
C      1  0.4434660000000  0.4725400000000  0.4681760000000 1.0
C      1  0.5527820000000  0.4626800000000  0.4639460000000 1.0
C      1  0.5021110000000  0.4722120000000  0.4118900000000 1.0
C      1  0.5183120000000  0.5153570000000  0.4114130000000 1.0
C      1  0.4729420000000  0.5081970000000  0.4119690000000 1.0
C      1  0.5539750000000  0.5437020000000  0.4817640000000 1.0
C      1  0.4323630000000  0.5267300000000  0.4837210000000 1.0
C      1  0.5108120000000  0.4287790000000  0.4831450000000 1.0
C      1  0.4864390000000  0.5731970000000  0.5062740000000 1.0
C      1  0.4460190000000  0.4522580000000  0.5106490000000 1.0
C      1  0.5685710000000  0.4750140000000  0.5056620000000 1.0
C      1  0.5309620000000  0.5287130000000  0.5703010000000 1.0
C      1  0.4565700000000  0.5172630000000  0.5714180000000 1.0
C      1  0.5154490000000  0.4504330000000  0.5723270000000 1.0
C      1  0.4902030000000  0.5474900000000  0.5739850000000 1.0
C      1  0.4732840000000  0.4753870000000  0.5734710000000 1.0
C      1  0.5465000000000  0.4828820000000  0.5741070000000 1.0
C      1  0.5207050000000  0.5495410000000  0.4464240000000 1.0
C      1  0.4450750000000  0.4937480000000  0.4491690000000 1.0
C      1  0.5317550000000  0.4541840000000  0.4466660000000 1.0
C      1  0.5379130000000  0.5597570000000  0.5005180000000 1.0
C      1  0.4273900000000  0.5056200000000  0.5033140000000 1.0
C      1  0.5333700000000  0.4350010000000  0.5005260000000 1.0
C      1  0.5234210000000  0.4319520000000  0.5276460000000 1.0
C      1  0.5462160000000  0.5514130000000  0.5275260000000 1.0
C      1  0.4309760000000  0.5170550000000  0.5295410000000 1.0
C      1  0.4994960000000  0.5123470000000  0.4798260000000 1.0
C      1  0.5077230000000  0.4858330000000  0.4825290000000 1.0
C      1  0.5226040000000  0.5069670000000  0.4968520000000 1.0
C      1  0.4412120000000  0.5506280000000  0.4979370000000 1.0
C      1  0.4867340000000  0.4243480000000  0.4995610000000 1.0
C      1  0.5696540000000  0.5246910000000  0.4966940000000 1.0
C      1  0.5032540000000  0.5624440000000  0.5536770000000 1.0
C      1  0.4509430000000  0.4755680000000  0.5552570000000 1.0
C      1  0.5544950000000  0.4647410000000  0.5531930000000 1.0
C      1  0.4686900000000  0.4898270000000  0.5040530000000 1.0
C      1  0.5055930000000  0.4788640000000  0.5280520000000 1.0
C      1  0.4894560000000  0.5210690000000  0.5243480000000 1.0
C      1  0.4600920000000  0.4868690000000  0.4260240000000 1.0
C      1  0.5275050000000  0.4717540000000  0.4251940000000 1.0
C      1  0.5067220000000  0.5376190000000  0.4250970000000 1.0
C      1  0.5340750000000  0.4440420000000  0.5511610000000 1.0
C      1  0.5300930000000  0.5515190000000  0.5515080000000 1.0
C      1  0.4403170000000  0.5025990000000  0.5528720000000 1.0
C      1  0.4776620000000  0.5166430000000  0.4994910000000 1.0
C      1  0.4916240000000  0.4728640000000  0.5037050000000 1.0
C      1  0.5131900000000  0.5054260000000  0.5252810000000 1.0
C      1  0.4976460000000  0.4984300000000  0.4020820000000 1.0
END
