TITL C-51523-364-6 1532.49587650438 125000 -543.368368071962 0 0 76 (C1) n - 1
REM
REM in /rds/project/t2_vol4/rds-t2-cs072/BORA/CARBON/from-Arr/AIRSS/Generating-Clusters/GAP-ML-2020/Higher-Symm/SD-CG/HFTN-CG
REM
REM
REM
REM
REM
REM ./C.cell (b20cbc046b6831c77cfcea5457e17084)
REM AIRSS Version 0.9.1 bugfix July 2018 build 013d7b7c2542+ Fri, 06 Jul 2018 19:26:36 +0100
REM compiler GCC version 9.3.0
REM options -cpp -mtune=generic -march=x86-64 -g -O0
REM seed 1017294736 2019612332 656843473 -1829057388 -894573757 248723542 -1018243528 1041131865 -108445788 1407775323 242864385 -1054813801 -297771711 -903140781 1519140805 -528348827 1059031826 -1009216811 1059727865 -1071174521 -698664525 -1726351829 2141726061 245836881 -1467334725 -262177255 270342214 -1046187964 -775908127 1562936815 -354618975 540927843 -2079800555
REM
CELL 1.54180   50.00000   50.00000   50.00000   90.00000   90.00000   90.00000
LATT -1
SFAC C  
C      1  0.4325660000000  0.4899100000000  0.4735000000000 1.0
C      1  0.5112570000000  0.4319450000000  0.4753700000000 1.0
C      1  0.5683190000000  0.5108000000000  0.4771000000000 1.0
C      1  0.4912280000000  0.5681880000000  0.4750430000000 1.0
C      1  0.4317330000000  0.4916090000000  0.5211620000000 1.0
C      1  0.5080250000000  0.4322380000000  0.5229270000000 1.0
C      1  0.5675370000000  0.5094520000000  0.5241040000000 1.0
C      1  0.4924100000000  0.5681890000000  0.5223900000000 1.0
C      1  0.4736460000000  0.4546230000000  0.4527060000000 1.0
C      1  0.5474400000000  0.4723460000000  0.4542890000000 1.0
C      1  0.5297320000000  0.5463170000000  0.4535460000000 1.0
C      1  0.4557260000000  0.5283110000000  0.4520010000000 1.0
C      1  0.4710710000000  0.4583640000000  0.5440320000000 1.0
C      1  0.5393150000000  0.4735590000000  0.5432180000000 1.0
C      1  0.5295440000000  0.5461340000000  0.5485640000000 1.0
C      1  0.4591660000000  0.5274630000000  0.5418350000000 1.0
C      1  0.5349970000000  0.4351340000000  0.5147060000000 1.0
C      1  0.5648400000000  0.5363120000000  0.5155860000000 1.0
C      1  0.4658610000000  0.5648080000000  0.5131540000000 1.0
C      1  0.4349710000000  0.4649920000000  0.5122970000000 1.0
C      1  0.5372670000000  0.4363310000000  0.4860090000000 1.0
C      1  0.5641840000000  0.5373440000000  0.4868610000000 1.0
C      1  0.4647090000000  0.5637070000000  0.4844810000000 1.0
C      1  0.4363540000000  0.4636180000000  0.4834230000000 1.0
C      1  0.4812270000000  0.5384660000000  0.5589040000000 1.0
C      1  0.4602090000000  0.4813050000000  0.5601040000000 1.0
C      1  0.5175080000000  0.4620870000000  0.5605790000000 1.0
C      1  0.5367130000000  0.5203580000000  0.5601060000000 1.0
C      1  0.4810400000000  0.5366890000000  0.4402090000000 1.0
C      1  0.4657880000000  0.4795960000000  0.4400920000000 1.0
C      1  0.5228080000000  0.4640430000000  0.4411980000000 1.0
C      1  0.5382380000000  0.5213940000000  0.4413180000000 1.0
C      1  0.5071270000000  0.5105260000000  0.4894650000000 1.0
C      1  0.4778680000000  0.5064180000000  0.4934060000000 1.0
C      1  0.4822620000000  0.4765850000000  0.4973760000000 1.0
C      1  0.5116600000000  0.4816280000000  0.4934370000000 1.0
C      1  0.5101960000000  0.5148800000000  0.5183850000000 1.0
C      1  0.4803580000000  0.5111020000000  0.5228060000000 1.0
C      1  0.4852050000000  0.4809660000000  0.5268610000000 1.0
C      1  0.5154460000000  0.4853860000000  0.5231250000000 1.0
C      1  0.5531160000000  0.5003650000000  0.5466970000000 1.0
C      1  0.5017280000000  0.5549950000000  0.5462140000000 1.0
C      1  0.4440880000000  0.5009890000000  0.5453190000000 1.0
C      1  0.4981510000000  0.4448990000000  0.5467300000000 1.0
C      1  0.5549840000000  0.5010770000000  0.4539920000000 1.0
C      1  0.5012130000000  0.5538670000000  0.4526780000000 1.0
C      1  0.4479890000000  0.4995990000000  0.4516550000000 1.0
C      1  0.5022830000000  0.4468000000000  0.4529390000000 1.0
C      1  0.5127430000000  0.4827720000000  0.4236310000000 1.0
C      1  0.5200880000000  0.5107530000000  0.4235770000000 1.0
C      1  0.4920830000000  0.5181320000000  0.4230690000000 1.0
C      1  0.4847460000000  0.4901620000000  0.4229090000000 1.0
C      1  0.5068460000000  0.4818290000000  0.5766600000000 1.0
C      1  0.5173410000000  0.5091810000000  0.5767580000000 1.0
C      1  0.4899470000000  0.5192670000000  0.5768800000000 1.0
C      1  0.4796380000000  0.4919310000000  0.5768180000000 1.0
C      1  0.4504100000000  0.4205410000000  0.5165510000000 1.0
C      1  0.5796770000000  0.4515120000000  0.5203270000000 1.0
C      1  0.5499120000000  0.5810590000000  0.5181680000000 1.0
C      1  0.4209650000000  0.5493170000000  0.5160830000000 1.0
C      1  0.4660450000000  0.4284840000000  0.4949230000000 1.0
C      1  0.5721160000000  0.4664240000000  0.4976400000000 1.0
C      1  0.5348290000000  0.5728700000000  0.4960420000000 1.0
C      1  0.4286790000000  0.5343000000000  0.4937930000000 1.0
C      1  0.5537590000000  0.4519690000000  0.5293470000000 1.0
C      1  0.5488520000000  0.5558860000000  0.5296720000000 1.0
C      1  0.4461640000000  0.5487780000000  0.5267590000000 1.0
C      1  0.4507520000000  0.4456980000000  0.5269570000000 1.0
C      1  0.5553750000000  0.4560270000000  0.4759750000000 1.0
C      1  0.5452360000000  0.5550450000000  0.4754200000000 1.0
C      1  0.4467320000000  0.5445820000000  0.4732500000000 1.0
C      1  0.4561450000000  0.4456100000000  0.4732410000000 1.0
C      1  0.4271810000000  0.5062180000000  0.4962290000000 1.0
C      1  0.4941460000000  0.4267920000000  0.4977650000000 1.0
C      1  0.5068390000000  0.5745430000000  0.4979450000000 1.0
C      1  0.5736510000000  0.4946040000000  0.4998020000000 1.0
END
