TITL C-51531-311-4 -0.0140807334383316 125000 -333.086306477937 0 0 50 (C2) n - 1
REM
REM in /rds/project/t2_vol4/rds-t2-cs072/BORA/CARBON/from-Arr/AIRSS/Generating-Clusters/GAP-ML-2020/Higher-Symm/SD-CG/HFTN-CG
REM
REM
REM
REM
REM
REM ./C.cell (b20cbc046b6831c77cfcea5457e17084)
REM AIRSS Version 0.9.1 bugfix July 2018 build 013d7b7c2542+ Fri, 06 Jul 2018 19:26:36 +0100
REM compiler GCC version 9.3.0
REM options -cpp -mtune=generic -march=x86-64 -g -O0
REM seed 792224928 1160471057 -1045403934 568184235 -1407338395 153213771 821311245 -141733760 -1161534993 -1401520059 1061196148 658281590 571105109 -1104474548 1362563908 1670192718 1249481894 392214177 -1163695608 -244288328 848443880 713638116 1613018572 896586080 -685350962 -38710912 -1196713059 1708666392 -1075054838 -1650907095 -742968551 -484544447 747882316
REM
CELL 1.54180   50.00000   50.00000   50.00000   90.00000   90.00000   90.00000
LATT -1
SFAC C  
C      1  0.4369810000000  0.5280680000000  0.4999070000000 1.0
C      1  0.4369630000000  0.4719730000000  0.5001330000000 1.0
C      1  0.5646600000000  0.5277110000000  0.5062750000000 1.0
C      1  0.5646380000000  0.4722460000000  0.4936850000000 1.0
C      1  0.4832750000000  0.4308990000000  0.4688000000000 1.0
C      1  0.4833400000000  0.5691120000000  0.5312110000000 1.0
C      1  0.5062320000000  0.4421610000000  0.4674830000000 1.0
C      1  0.5062900000000  0.5578350000000  0.5325130000000 1.0
C      1  0.4403310000000  0.5126330000000  0.5248790000000 1.0
C      1  0.4403070000000  0.4874060000000  0.4751580000000 1.0
C      1  0.5604740000000  0.5075730000000  0.5270030000000 1.0
C      1  0.5604520000000  0.4923870000000  0.4729590000000 1.0
C      1  0.4896960000000  0.5125650000000  0.5178480000000 1.0
C      1  0.4896770000000  0.4874410000000  0.4821590000000 1.0
C      1  0.5190490000000  0.5108550000000  0.5173090000000 1.0
C      1  0.5190310000000  0.4891330000000  0.4826790000000 1.0
C      1  0.5225110000000  0.4995930000000  0.4385940000000 1.0
C      1  0.5225500000000  0.5003930000000  0.5613920000000 1.0
C      1  0.4802630000000  0.4806120000000  0.4538330000000 1.0
C      1  0.4803050000000  0.5194010000000  0.5461800000000 1.0
C      1  0.4885500000000  0.5178120000000  0.4878830000000 1.0
C      1  0.4885460000000  0.4821960000000  0.5121250000000 1.0
C      1  0.5181100000000  0.5187520000000  0.4878740000000 1.0
C      1  0.5181050000000  0.4812370000000  0.5121150000000 1.0
C      1  0.4458260000000  0.5159080000000  0.4752210000000 1.0
C      1  0.4458300000000  0.4841270000000  0.5248120000000 1.0
C      1  0.5596940000000  0.5199330000000  0.4788910000000 1.0
C      1  0.5596940000000  0.4800280000000  0.5210720000000 1.0
C      1  0.4584710000000  0.5558210000000  0.5285850000000 1.0
C      1  0.4584170000000  0.4442060000000  0.4714410000000 1.0
C      1  0.5322250000000  0.5478020000000  0.5346790000000 1.0
C      1  0.5321720000000  0.4521770000000  0.4653010000000 1.0
C      1  0.4898620000000  0.5266550000000  0.4441630000000 1.0
C      1  0.4898800000000  0.4733520000000  0.5558430000000 1.0
C      1  0.5208590000000  0.5281790000000  0.4450920000000 1.0
C      1  0.5208750000000  0.4718080000000  0.5548950000000 1.0
C      1  0.5350180000000  0.5321980000000  0.4685550000000 1.0
C      1  0.5350160000000  0.4677790000000  0.5314230000000 1.0
C      1  0.4717820000000  0.5279510000000  0.4665630000000 1.0
C      1  0.4717850000000  0.4720680000000  0.5334550000000 1.0
C      1  0.5530790000000  0.5509150000000  0.5166020000000 1.0
C      1  0.5530350000000  0.4490500000000  0.4833650000000 1.0
C      1  0.4420510000000  0.5548750000000  0.5065180000000 1.0
C      1  0.4420110000000  0.4451630000000  0.4935180000000 1.0
C      1  0.4549960000000  0.4698770000000  0.4575090000000 1.0
C      1  0.4550430000000  0.5301530000000  0.5425190000000 1.0
C      1  0.5360430000000  0.4826350000000  0.4581080000000 1.0
C      1  0.5360800000000  0.5173410000000  0.5418690000000 1.0
C      1  0.4936980000000  0.5013890000000  0.5631130000000 1.0
C      1  0.4936570000000  0.4986150000000  0.4368910000000 1.0
END
