TITL C-51533-284-7 0.0986893057041794 125000 -139.965724612532 0 0 21 (C7v) n - 1
REM
REM in /rds/project/t2_vol4/rds-t2-cs072/BORA/CARBON/from-Arr/AIRSS/Generating-Clusters/GAP-ML-2020/Higher-Symm/SD-CG/HFTN-CG
REM
REM
REM
REM
REM
REM ./C.cell (b20cbc046b6831c77cfcea5457e17084)
REM AIRSS Version 0.9.1 bugfix July 2018 build 013d7b7c2542+ Fri, 06 Jul 2018 19:26:36 +0100
REM compiler GCC version 9.3.0
REM options -cpp -mtune=generic -march=x86-64 -g -O0
REM seed -1721108888 1579303572 760799513 -106850998 -1869499977 281925432 -2123592027 99018488 -1606896427 618900737 -1777212168 -1922765427 1923722204 -1832793032 238639831 -568419090 1281536194 -993654555 880224582 -2121320426 277864028 -1967028456 240736611 616768917 1613363789 -656687733 1811176751 -446487853 2005517937 340293615 245060533 -845347176 1766041619
REM
CELL 1.54180   50.00000   50.00000   50.00000   90.00000   90.00000   90.00000
LATT -1
SFAC C  
C      1  0.4964210000000  0.4505540000000  0.5137850000000 1.0
C      1  0.4964220000000  0.4583930000000  0.4699370000000 1.0
C      1  0.4964220000000  0.4975630000000  0.4487260000000 1.0
C      1  0.4964210000000  0.5385680000000  0.4661260000000 1.0
C      1  0.4964200000000  0.5505300000000  0.5090340000000 1.0
C      1  0.4964190000000  0.5244420000000  0.5451380000000 1.0
C      1  0.4964200000000  0.4799490000000  0.5472530000000 1.0
C      1  0.4852990000000  0.4422450000000  0.4896740000000 1.0
C      1  0.4853000000000  0.4720630000000  0.4484080000000 1.0
C      1  0.4852990000000  0.5229180000000  0.4459910000000 1.0
C      1  0.4852980000000  0.5565150000000  0.4842440000000 1.0
C      1  0.4852970000000  0.5475550000000  0.5343610000000 1.0
C      1  0.4852970000000  0.5027850000000  0.5586040000000 1.0
C      1  0.4852980000000  0.4559180000000  0.5387160000000 1.0
C      1  0.5182800000000  0.5150940000000  0.5278740000000 1.0
C      1  0.5182810000000  0.4876180000000  0.5291800000000 1.0
C      1  0.5182810000000  0.4694670000000  0.5085130000000 1.0
C      1  0.5182820000000  0.4743080000000  0.4814360000000 1.0
C      1  0.5182820000000  0.4984950000000  0.4683390000000 1.0
C      1  0.5182820000000  0.5238160000000  0.4790830000000 1.0
C      1  0.5182810000000  0.5312030000000  0.5055790000000 1.0
END
