TITL C-51529-278-8 0.0955941470769741 125000 -661.582410010021 0 0 96 (C1) n - 1
REM
REM in /rds/project/t2_vol4/rds-t2-cs072/BORA/CARBON/from-Arr/AIRSS/Generating-Clusters/GAP-ML-2020/Higher-Symm/SD-CG/HFTN-CG
REM
REM
REM
REM
REM
REM ./C.cell (b20cbc046b6831c77cfcea5457e17084)
REM AIRSS Version 0.9.1 bugfix July 2018 build 013d7b7c2542+ Fri, 06 Jul 2018 19:26:36 +0100
REM compiler GCC version 9.3.0
REM options -cpp -mtune=generic -march=x86-64 -g -O0
REM seed 1310501622 -462798894 354964277 544410525 25668816 -867435082 913942811 -1109113955 -1702456253 65245276 -1884910579 1205740870 978525774 -1061240818 -2003215435 30345577 -1606877531 1113801737 -1959658258 -1507533945 -2146128286 -254979630 -881749667 499981319 -36594583 918119881 -1462007510 -357715812 -1640177754 1857560659 1664134087 1385426109 -40828998
REM
CELL 1.54180   50.00000   50.00000   50.00000   90.00000   90.00000   90.00000
LATT -1
SFAC C  
C      1  0.4847330000000  0.4678820000000  0.4774230000000 1.0
C      1  0.4601890000000  0.4843920000000  0.4890480000000 1.0
C      1  0.4880640000000  0.4835470000000  0.4513850000000 1.0
C      1  0.5135520000000  0.5376980000000  0.4888410000000 1.0
C      1  0.4855420000000  0.5481220000000  0.5248280000000 1.0
C      1  0.5130120000000  0.4540350000000  0.5180040000000 1.0
C      1  0.5330930000000  0.5153010000000  0.4771010000000 1.0
C      1  0.4535500000000  0.5151540000000  0.5194800000000 1.0
C      1  0.5463590000000  0.4872640000000  0.5177170000000 1.0
C      1  0.5193430000000  0.5128930000000  0.4496280000000 1.0
C      1  0.4739920000000  0.5257380000000  0.5371370000000 1.0
C      1  0.5254340000000  0.4749810000000  0.5341030000000 1.0
C      1  0.4854910000000  0.4518680000000  0.5247350000000 1.0
C      1  0.4537990000000  0.4849250000000  0.5193840000000 1.0
C      1  0.4742910000000  0.4745940000000  0.5369130000000 1.0
C      1  0.5133340000000  0.5451730000000  0.5187790000000 1.0
C      1  0.4837880000000  0.5323160000000  0.4779490000000 1.0
C      1  0.5144820000000  0.4625030000000  0.4885210000000 1.0
C      1  0.5486600000000  0.5147630000000  0.5241900000000 1.0
C      1  0.4597250000000  0.5155920000000  0.4891450000000 1.0
C      1  0.5378130000000  0.4855570000000  0.4882210000000 1.0
C      1  0.5258940000000  0.5255520000000  0.5364740000000 1.0
C      1  0.4887080000000  0.5157260000000  0.4527230000000 1.0
C      1  0.5156450000000  0.4852900000000  0.4425790000000 1.0
C      1  0.5261330000000  0.4374010000000  0.4735820000000 1.0
C      1  0.4287940000000  0.4716890000000  0.5292050000000 1.0
C      1  0.4741910000000  0.5269070000000  0.4293730000000 1.0
C      1  0.4723750000000  0.5609510000000  0.4713070000000 1.0
C      1  0.5274960000000  0.5705860000000  0.5288860000000 1.0
C      1  0.4714770000000  0.4278560000000  0.5309870000000 1.0
C      1  0.5726120000000  0.5286430000000  0.5307730000000 1.0
C      1  0.4344470000000  0.5266380000000  0.4745630000000 1.0
C      1  0.5628240000000  0.4734770000000  0.4732010000000 1.0
C      1  0.5292460000000  0.4714710000000  0.4232440000000 1.0
C      1  0.4698160000000  0.4709070000000  0.5646220000000 1.0
C      1  0.5293510000000  0.5296150000000  0.5642190000000 1.0
C      1  0.5272890000000  0.4294010000000  0.5285490000000 1.0
C      1  0.4349660000000  0.4733260000000  0.4743980000000 1.0
C      1  0.4695910000000  0.5296810000000  0.5647490000000 1.0
C      1  0.4716300000000  0.5722080000000  0.5307100000000 1.0
C      1  0.5248450000000  0.5638410000000  0.4745100000000 1.0
C      1  0.4730610000000  0.4385860000000  0.4718180000000 1.0
C      1  0.5622980000000  0.5267390000000  0.4718140000000 1.0
C      1  0.4286550000000  0.5284300000000  0.5292300000000 1.0
C      1  0.5707580000000  0.4726830000000  0.5283120000000 1.0
C      1  0.5287220000000  0.4716060000000  0.5617920000000 1.0
C      1  0.4727430000000  0.4716980000000  0.4288650000000 1.0
C      1  0.5307760000000  0.5283000000000  0.4272320000000 1.0
C      1  0.5142640000000  0.5520810000000  0.5740980000000 1.0
C      1  0.5519260000000  0.5735210000000  0.5160050000000 1.0
C      1  0.5766260000000  0.5144650000000  0.5546880000000 1.0
C      1  0.4856990000000  0.4481780000000  0.5741710000000 1.0
C      1  0.5153310000000  0.4468010000000  0.4238460000000 1.0
C      1  0.4867870000000  0.5517660000000  0.4242420000000 1.0
C      1  0.4482860000000  0.4257900000000  0.5158670000000 1.0
C      1  0.5505450000000  0.4286800000000  0.4865510000000 1.0
C      1  0.4500870000000  0.5701900000000  0.4866570000000 1.0
C      1  0.4235490000000  0.4855430000000  0.5536400000000 1.0
C      1  0.5701160000000  0.4850790000000  0.4486940000000 1.0
C      1  0.4295850000000  0.5148480000000  0.4497280000000 1.0
C      1  0.5165120000000  0.5521700000000  0.4245090000000 1.0
C      1  0.5496710000000  0.5704350000000  0.4871620000000 1.0
C      1  0.5719430000000  0.5143200000000  0.4481140000000 1.0
C      1  0.4857950000000  0.4468940000000  0.4239840000000 1.0
C      1  0.5142720000000  0.4490080000000  0.5723290000000 1.0
C      1  0.4853760000000  0.5523820000000  0.5744430000000 1.0
C      1  0.4504150000000  0.4300170000000  0.4869360000000 1.0
C      1  0.5516720000000  0.4262230000000  0.5156740000000 1.0
C      1  0.4483920000000  0.5743550000000  0.5156320000000 1.0
C      1  0.4296380000000  0.4854020000000  0.4497310000000 1.0
C      1  0.5758710000000  0.4852420000000  0.5535590000000 1.0
C      1  0.4234470000000  0.5146390000000  0.5536950000000 1.0
C      1  0.4854240000000  0.5699780000000  0.4477940000000 1.0
C      1  0.5713300000000  0.4491490000000  0.4863640000000 1.0
C      1  0.4468200000000  0.4857060000000  0.5737820000000 1.0
C      1  0.5148120000000  0.4304430000000  0.4488860000000 1.0
C      1  0.4855550000000  0.4238470000000  0.5550480000000 1.0
C      1  0.5146150000000  0.5756450000000  0.5540680000000 1.0
C      1  0.4276090000000  0.5512170000000  0.4872130000000 1.0
C      1  0.5744060000000  0.5519380000000  0.5157390000000 1.0
C      1  0.4254140000000  0.4472020000000  0.5162040000000 1.0
C      1  0.5524030000000  0.5142460000000  0.5737630000000 1.0
C      1  0.4489720000000  0.5147850000000  0.4267350000000 1.0
C      1  0.5545070000000  0.4848090000000  0.4232270000000 1.0
C      1  0.4855560000000  0.5761770000000  0.5548440000000 1.0
C      1  0.5738080000000  0.4482070000000  0.5155300000000 1.0
C      1  0.4483710000000  0.4850440000000  0.4262990000000 1.0
C      1  0.5147270000000  0.4245600000000  0.5539090000000 1.0
C      1  0.4853950000000  0.4290070000000  0.4481700000000 1.0
C      1  0.5145280000000  0.5700510000000  0.4493370000000 1.0
C      1  0.4254740000000  0.5529570000000  0.5161880000000 1.0
C      1  0.5703720000000  0.5496290000000  0.4866060000000 1.0
C      1  0.4278800000000  0.4489150000000  0.4871330000000 1.0
C      1  0.5553080000000  0.5146070000000  0.4228570000000 1.0
C      1  0.4466540000000  0.5146640000000  0.5738530000000 1.0
C      1  0.5516640000000  0.4856880000000  0.5722470000000 1.0
END
