TITL C-51518-269-3 0.0100473476257847 125000 -139.682491629976 0 0 22 (C1) n - 1
REM
REM in /rds/project/t2_vol4/rds-t2-cs072/BORA/CARBON/from-Arr/AIRSS/Generating-Clusters/GAP-ML-2020/Higher-Symm/SD-CG/HFTN-CG
REM
REM
REM
REM
REM
REM ./C.cell (b20cbc046b6831c77cfcea5457e17084)
REM AIRSS Version 0.9.1 bugfix July 2018 build 013d7b7c2542+ Fri, 06 Jul 2018 19:26:36 +0100
REM compiler GCC version 9.3.0
REM options -cpp -mtune=generic -march=x86-64 -g -O0
REM seed -1727647331 -960496840 -909421093 1138794762 -924003995 1651014817 1970472157 1261898023 -1299139388 908320106 1819465291 409536579 -1167921251 1748479414 1799932628 130962666 56326347 -544695979 -1692044312 52195716 1948432655 50567809 -1105388913 537415164 -1483190051 -358455501 -574528491 1455264260 5146113 1190262168 -786176180 2072506832 -1055949097
REM
CELL 1.54180   50.00000   50.00000   50.00000   90.00000   90.00000   90.00000
LATT -1
SFAC C  
C      1  0.4925010000000  0.5201680000000  0.5459800000000 1.0
C      1  0.4883580000000  0.5235720000000  0.4745330000000 1.0
C      1  0.4723670000000  0.4530610000000  0.4903270000000 1.0
C      1  0.5198750000000  0.5175590000000  0.5417550000000 1.0
C      1  0.5158830000000  0.5216390000000  0.4699280000000 1.0
C      1  0.5225820000000  0.4602130000000  0.4831190000000 1.0
C      1  0.5410530000000  0.5321930000000  0.5314150000000 1.0
C      1  0.5426800000000  0.5191280000000  0.4793570000000 1.0
C      1  0.5421360000000  0.4782000000000  0.4871560000000 1.0
C      1  0.4793460000000  0.5048600000000  0.5268890000000 1.0
C      1  0.4641930000000  0.5122020000000  0.4826080000000 1.0
C      1  0.4519720000000  0.4708210000000  0.4894510000000 1.0
C      1  0.5535410000000  0.4955250000000  0.4693540000000 1.0
C      1  0.5481010000000  0.4896020000000  0.5143760000000 1.0
C      1  0.5493550000000  0.5177010000000  0.5086900000000 1.0
C      1  0.4488010000000  0.4930120000000  0.4706080000000 1.0
C      1  0.4389840000000  0.4861380000000  0.5087360000000 1.0
C      1  0.4557220000000  0.5085380000000  0.5114020000000 1.0
C      1  0.5237630000000  0.4913650000000  0.5276380000000 1.0
C      1  0.4970930000000  0.4655580000000  0.4937890000000 1.0
C      1  0.5037880000000  0.5138460000000  0.4947810000000 1.0
C      1  0.4996550000000  0.4897850000000  0.5109600000000 1.0
END
