TITL C-51526-320-7 -20.8315686282366 125000 -162.719317537015 0 0 24 (Oh) n - 1
REM
REM in /rds/project/t2_vol4/rds-t2-cs072/BORA/CARBON/from-Arr/AIRSS/Generating-Clusters/GAP-ML-2020/Higher-Symm/SD-CG/HFTN-CG
REM
REM
REM
REM
REM
REM ./C.cell (b20cbc046b6831c77cfcea5457e17084)
REM AIRSS Version 0.9.1 bugfix July 2018 build 013d7b7c2542+ Fri, 06 Jul 2018 19:26:36 +0100
REM compiler GCC version 9.3.0
REM options -cpp -mtune=generic -march=x86-64 -g -O0
REM seed -1580501521 1180097301 1035004126 2109517649 864069657 -2062752719 269354550 723000638 -1365774974 51716779 1980228092 572165563 802194061 1246246352 1697309404 -1836710438 -1037280244 1960881207 -2081495658 -185764134 810637212 -1462265602 308101322 684037117 951053919 1685386040 1248054083 -353325429 -445703634 1078863900 1951316060 1348741658 510540237
REM
CELL 1.54180   50.00000   50.00000   50.00000   90.00000   90.00000   90.00000
LATT -1
SFAC C  
C      1  0.5000000000000  0.4597070000000  0.5210410000000 1.0
C      1  0.4597070000000  0.5210410000000  0.5000000000000 1.0
C      1  0.5210410000000  0.5000000000000  0.4597070000000 1.0
C      1  0.5000000000000  0.4597070000000  0.4789590000000 1.0
C      1  0.5000000000000  0.5402930000000  0.5210410000000 1.0
C      1  0.5000000000000  0.5402930000000  0.4789590000000 1.0
C      1  0.5402930000000  0.5210410000000  0.5000000000000 1.0
C      1  0.5402930000000  0.4789590000000  0.5000000000000 1.0
C      1  0.4597070000000  0.4789590000000  0.5000000000000 1.0
C      1  0.4789590000000  0.5000000000000  0.5402930000000 1.0
C      1  0.4789590000000  0.5000000000000  0.4597070000000 1.0
C      1  0.5210410000000  0.5000000000000  0.5402930000000 1.0
C      1  0.5210410000000  0.4597070000000  0.5000000000000 1.0
C      1  0.5000000000000  0.5210410000000  0.4597070000000 1.0
C      1  0.4597070000000  0.5000000000000  0.5210410000000 1.0
C      1  0.4789590000000  0.4597070000000  0.5000000000000 1.0
C      1  0.5210410000000  0.5402930000000  0.5000000000000 1.0
C      1  0.4789590000000  0.5402930000000  0.5000000000000 1.0
C      1  0.5000000000000  0.5210410000000  0.5402930000000 1.0
C      1  0.5000000000000  0.4789590000000  0.5402930000000 1.0
C      1  0.5000000000000  0.4789590000000  0.4597070000000 1.0
C      1  0.5402930000000  0.5000000000000  0.4789590000000 1.0
C      1  0.4597070000000  0.5000000000000  0.4789590000000 1.0
C      1  0.5402930000000  0.5000000000000  0.5210410000000 1.0
END
