TITL C-51525-278-1 0.0848932892268516 125000 -452.071806131063 0 0 64 (C1) n - 1
REM
REM in /rds/project/t2_vol4/rds-t2-cs072/BORA/CARBON/from-Arr/AIRSS/Generating-Clusters/GAP-ML-2020/Higher-Symm/SD-CG/HFTN-CG
REM
REM
REM
REM
REM
REM ./C.cell (b20cbc046b6831c77cfcea5457e17084)
REM AIRSS Version 0.9.1 bugfix July 2018 build 013d7b7c2542+ Fri, 06 Jul 2018 19:26:36 +0100
REM compiler GCC version 9.3.0
REM options -cpp -mtune=generic -march=x86-64 -g -O0
REM seed -1351335067 398398680 -1110753983 1945531547 -691640834 -1927835328 -1997307419 -627140400 -606825962 -458310430 -1932461506 2104736459 -2030105646 779024833 2006564216 1285130070 811785697 285686991 -923268417 1422025793 1234219070 -219012436 -635189615 449880 1438131625 1532862085 -2910139 1669382353 692374444 1256668192 -1249839597 1729461433 952147931
REM
CELL 1.54180   50.00000   50.00000   50.00000   90.00000   90.00000   90.00000
LATT -1
SFAC C  
C      1  0.4449400000000  0.4560860000000  0.5279180000000 1.0
C      1  0.4957930000000  0.4589140000000  0.5591520000000 1.0
C      1  0.5243000000000  0.4594090000000  0.5513790000000 1.0
C      1  0.5590600000000  0.4573940000000  0.5033860000000 1.0
C      1  0.5540130000000  0.4567150000000  0.4737040000000 1.0
C      1  0.5025010000000  0.4579470000000  0.4414850000000 1.0
C      1  0.4725000000000  0.4569280000000  0.4452790000000 1.0
C      1  0.4415020000000  0.4600020000000  0.4975520000000 1.0
C      1  0.5394510000000  0.5596620000000  0.5091730000000 1.0
C      1  0.5330840000000  0.5602640000000  0.4804810000000 1.0
C      1  0.5083570000000  0.5612150000000  0.4646290000000 1.0
C      1  0.4795070000000  0.5619590000000  0.4704910000000 1.0
C      1  0.4637820000000  0.5613720000000  0.4952150000000 1.0
C      1  0.4702300000000  0.5605270000000  0.5239790000000 1.0
C      1  0.4946790000000  0.5598380000000  0.5399660000000 1.0
C      1  0.5234340000000  0.5594740000000  0.5336190000000 1.0
C      1  0.5352020000000  0.5393640000000  0.5505490000000 1.0
C      1  0.5604320000000  0.5400600000000  0.5128680000000 1.0
C      1  0.5503810000000  0.5403730000000  0.4683100000000 1.0
C      1  0.5118970000000  0.5416600000000  0.4436100000000 1.0
C      1  0.4669090000000  0.5423410000000  0.4527520000000 1.0
C      1  0.4428920000000  0.5418210000000  0.4909350000000 1.0
C      1  0.4529350000000  0.5405780000000  0.5360890000000 1.0
C      1  0.4902790000000  0.5404000000000  0.5610110000000 1.0
C      1  0.4776940000000  0.4362780000000  0.4668550000000 1.0
C      1  0.4641880000000  0.4404660000000  0.4924790000000 1.0
C      1  0.4663450000000  0.4361420000000  0.5230880000000 1.0
C      1  0.4902530000000  0.4392010000000  0.5375880000000 1.0
C      1  0.5194450000000  0.4401220000000  0.5300830000000 1.0
C      1  0.5369330000000  0.4385020000000  0.5071900000000 1.0
C      1  0.5318720000000  0.4369840000000  0.4777780000000 1.0
C      1  0.5073000000000  0.4376770000000  0.4620930000000 1.0
C      1  0.4810550000000  0.4868340000000  0.4732110000000 1.0
C      1  0.4701080000000  0.4710700000000  0.4944300000000 1.0
C      1  0.4778800000000  0.4819470000000  0.5192420000000 1.0
C      1  0.4953050000000  0.5033350000000  0.5154330000000 1.0
C      1  0.4915300000000  0.5100710000000  0.4891790000000 1.0
C      1  0.5165720000000  0.5041220000000  0.4989580000000 1.0
C      1  0.5263940000000  0.4836220000000  0.4823030000000 1.0
C      1  0.5062530000000  0.4771710000000  0.4635370000000 1.0
C      1  0.4644960000000  0.4979090000000  0.5598700000000 1.0
C      1  0.5147560000000  0.4996520000000  0.5680290000000 1.0
C      1  0.5565140000000  0.4966650000000  0.5370830000000 1.0
C      1  0.5688550000000  0.4996090000000  0.4876350000000 1.0
C      1  0.5384200000000  0.4995350000000  0.4429980000000 1.0
C      1  0.4859530000000  0.5023110000000  0.4316680000000 1.0
C      1  0.4424980000000  0.5002060000000  0.4642120000000 1.0
C      1  0.4349730000000  0.5008490000000  0.5158940000000 1.0
C      1  0.4894240000000  0.4854750000000  0.5672390000000 1.0
C      1  0.5361960000000  0.4850530000000  0.5547390000000 1.0
C      1  0.5654840000000  0.4841110000000  0.5121450000000 1.0
C      1  0.5528770000000  0.4851790000000  0.4667060000000 1.0
C      1  0.5115690000000  0.4881410000000  0.4356730000000 1.0
C      1  0.4648280000000  0.4862470000000  0.4479820000000 1.0
C      1  0.4352220000000  0.4874780000000  0.4903590000000 1.0
C      1  0.4512080000000  0.4840780000000  0.5362580000000 1.0
C      1  0.5368630000000  0.5271640000000  0.4468000000000 1.0
C      1  0.4866050000000  0.5294380000000  0.4368670000000 1.0
C      1  0.4454830000000  0.5282880000000  0.4655630000000 1.0
C      1  0.4372990000000  0.5284540000000  0.5157460000000 1.0
C      1  0.4656540000000  0.5261170000000  0.5575190000000 1.0
C      1  0.5149780000000  0.5275880000000  0.5669100000000 1.0
C      1  0.5560880000000  0.5252810000000  0.5369690000000 1.0
C      1  0.5665730000000  0.5273240000000  0.4881560000000 1.0
END
