TITL C-51535-301-5 -0.00393435861281541 125000 -55.87529607371 0 0 9 (Cs) n - 1
REM
REM in /rds/project/t2_vol4/rds-t2-cs072/BORA/CARBON/from-Arr/AIRSS/Generating-Clusters/GAP-ML-2020/Higher-Symm/SD-CG/HFTN-CG
REM
REM
REM
REM
REM
REM ./C.cell (b20cbc046b6831c77cfcea5457e17084)
REM AIRSS Version 0.9.1 bugfix July 2018 build 013d7b7c2542+ Fri, 06 Jul 2018 19:26:36 +0100
REM compiler GCC version 9.3.0
REM options -cpp -mtune=generic -march=x86-64 -g -O0
REM seed -233262557 939081242 1770843494 977756468 2031422833 -1433150351 -2079267788 1370342732 790538392 480274392 -630942236 -1677121086 506125976 -1864648193 -1683782398 -1252604894 510177655 -2006744556 -314228649 38218430 402783534 -146692532 307409205 83812532 -1161694055 -854631341 1365571718 1634176328 1235728154 1084526875 -651026459 -1090019192 -1564829609
REM
CELL 1.54180   50.00000   50.00000   50.00000   90.00000   90.00000   90.00000
LATT -1
SFAC C  
C      1  0.4751730000000  0.5223780000000  0.5000000000000 1.0
C      1  0.4614520000000  0.4998160000000  0.5000000000000 1.0
C      1  0.4758900000000  0.4778630000000  0.5000000000000 1.0
C      1  0.4926280000000  0.4581150000000  0.5000000000000 1.0
C      1  0.5185280000000  0.4656480000000  0.5000000000000 1.0
C      1  0.5301470000000  0.4885520000000  0.5000000000000 1.0
C      1  0.5366120000000  0.5140640000000  0.5000000000000 1.0
C      1  0.5169350000000  0.5314270000000  0.5000000000000 1.0
C      1  0.4926360000000  0.5421360000000  0.5000000000000 1.0
END
