TITL C-55563-7281-10 332.328248194935 125000 -399.585521187168 0 0 59 (C1) n - 1
REM
REM in /rds/project/t2_vol4/rds-t2-cs072/BORA/CARBON/from-Arr/AIRSS/Generating-Clusters/GAP-ML-2020/Higher-Symm/SD-CG/HFTN-CG
REM
REM
REM
REM
REM
REM ./C.cell (b20cbc046b6831c77cfcea5457e17084)
REM AIRSS Version 0.9.1 bugfix July 2018 build 013d7b7c2542+ Fri, 06 Jul 2018 19:26:36 +0100
REM compiler GCC version 9.3.0
REM options -cpp -mtune=generic -march=x86-64 -g -O0
REM seed 1215534680 -2125500853 -1004011717 -1411602688 -283487121 1772987584 -455893491 -1146583469 -1606753335 -1704666760 -1922686512 670701887 1392368374 -951611580 1483855366 1802549681 597949174 -627463648 1225388167 -1077164589 -1192078623 2115486241 480719744 1214595718 -1872400547 -1198268999 1848782554 1697463874 1991893950 5104350 1641847128 133154051 -1606448150
REM
CELL 1.54180   50.00000   50.00000   50.00000   90.00000   90.00000   90.00000
LATT -1
SFAC C  
C      1  0.4359250000000  0.4853280000000  0.4742520000000 1.0
C      1  0.5212010000000  0.4364500000000  0.5291570000000 1.0
C      1  0.5510340000000  0.4596100000000  0.5022070000000 1.0
C      1  0.5069550000000  0.4822680000000  0.5176340000000 1.0
C      1  0.4768440000000  0.4496570000000  0.5338900000000 1.0
C      1  0.4412940000000  0.4677050000000  0.4961290000000 1.0
C      1  0.5094450000000  0.5281870000000  0.4271610000000 1.0
C      1  0.5617210000000  0.5293360000000  0.4783030000000 1.0
C      1  0.4653760000000  0.4528220000000  0.4591710000000 1.0
C      1  0.5174540000000  0.5614010000000  0.4628000000000 1.0
C      1  0.5447020000000  0.4532280000000  0.5293220000000 1.0
C      1  0.5369230000000  0.5466810000000  0.5145340000000 1.0
C      1  0.5168570000000  0.4654960000000  0.5624690000000 1.0
C      1  0.5016620000000  0.5608670000000  0.5304070000000 1.0
C      1  0.4943310000000  0.4874330000000  0.4315270000000 1.0
C      1  0.5093960000000  0.4364340000000  0.5034430000000 1.0
C      1  0.5021360000000  0.4452700000000  0.5479890000000 1.0
C      1  0.4514750000000  0.5410340000000  0.5132470000000 1.0
C      1  0.5190630000000  0.5239780000000  0.5019090000000 1.0
C      1  0.5280580000000  0.4508370000000  0.4869230000000 1.0
C      1  0.4445680000000  0.4836680000000  0.5196840000000 1.0
C      1  0.4967980000000  0.5035790000000  0.5362620000000 1.0
C      1  0.5154450000000  0.4712710000000  0.4690590000000 1.0
C      1  0.4967010000000  0.4772630000000  0.5744240000000 1.0
C      1  0.5299130000000  0.4982920000000  0.5104630000000 1.0
C      1  0.5645120000000  0.5078030000000  0.5205280000000 1.0
C      1  0.5623140000000  0.5329550000000  0.5066630000000 1.0
C      1  0.5582930000000  0.5008140000000  0.4720140000000 1.0
C      1  0.5587390000000  0.4872460000000  0.4977820000000 1.0
C      1  0.4824680000000  0.4404960000000  0.4411100000000 1.0
C      1  0.5314890000000  0.4959280000000  0.4588870000000 1.0
C      1  0.4664420000000  0.5167100000000  0.5706770000000 1.0
C      1  0.5148630000000  0.5804590000000  0.4826740000000 1.0
C      1  0.5186150000000  0.5026320000000  0.4312340000000 1.0
C      1  0.5178550000000  0.5704470000000  0.5080040000000 1.0
C      1  0.4712350000000  0.5376870000000  0.5575490000000 1.0
C      1  0.5413000000000  0.5434560000000  0.4636400000000 1.0
C      1  0.4711350000000  0.4992630000000  0.4436200000000 1.0
C      1  0.4447370000000  0.5527390000000  0.4893040000000 1.0
C      1  0.4403000000000  0.5121990000000  0.5107380000000 1.0
C      1  0.5411390000000  0.4735140000000  0.5488250000000 1.0
C      1  0.4469800000000  0.5339110000000  0.4694930000000 1.0
C      1  0.4333510000000  0.5114740000000  0.4831060000000 1.0
C      1  0.5435910000000  0.5011480000000  0.5398110000000 1.0
C      1  0.4762060000000  0.5460850000000  0.5301680000000 1.0
C      1  0.4911140000000  0.5228260000000  0.5140180000000 1.0
C      1  0.4803040000000  0.4400080000000  0.5068330000000 1.0
C      1  0.5234660000000  0.5443500000000  0.5408590000000 1.0
C      1  0.4616010000000  0.4732360000000  0.5395850000000 1.0
C      1  0.4534130000000  0.4789780000000  0.4532960000000 1.0
C      1  0.4811280000000  0.5082750000000  0.4903890000000 1.0
C      1  0.5215270000000  0.5226690000000  0.4716500000000 1.0
C      1  0.4771470000000  0.4917730000000  0.5583050000000 1.0
C      1  0.5208940000000  0.5179950000000  0.5485710000000 1.0
C      1  0.4998180000000  0.4619410000000  0.4448430000000 1.0
C      1  0.4989380000000  0.5381830000000  0.4526790000000 1.0
C      1  0.4608050000000  0.4480770000000  0.4878210000000 1.0
C      1  0.4951770000000  0.4836910000000  0.4910970000000 1.0
C      1  0.4738280000000  0.5229400000000  0.4618630000000 1.0
END
