TITL C-55540-7337-1 -0.0933905377081097 125000 -644.064659785272 0 0 92 (C1) n - 1
REM
REM in /rds/project/t2_vol4/rds-t2-cs072/BORA/CARBON/from-Arr/AIRSS/Generating-Clusters/GAP-ML-2020/Higher-Symm/SD-CG/HFTN-CG
REM
REM
REM
REM
REM
REM ./C.cell (b20cbc046b6831c77cfcea5457e17084)
REM AIRSS Version 0.9.1 bugfix July 2018 build 013d7b7c2542+ Fri, 06 Jul 2018 19:26:36 +0100
REM compiler GCC version 9.3.0
REM options -cpp -mtune=generic -march=x86-64 -g -O0
REM seed -1594245306 1907396004 -1250477426 82814378 -1261401953 -2103923168 -995794819 1689974501 298102251 251917503 -1359008999 940896519 -1521848737 851351466 -659890805 2054659739 -1692102132 1254142018 -1257794037 2076436774 -1253663927 -389202205 -147118018 -426344028 921634215 872582719 -232577684 302937150 192304167 -388887847 482287616 -1778883441 -899397313
REM
CELL 1.54180   50.00000   50.00000   50.00000   90.00000   90.00000   90.00000
LATT -1
SFAC C  
C      1  0.4856420000000  0.5014300000000  0.5738890000000 1.0
C      1  0.5740090000000  0.4987010000000  0.5123650000000 1.0
C      1  0.5125020000000  0.5008770000000  0.4266200000000 1.0
C      1  0.4264050000000  0.4992390000000  0.4871440000000 1.0
C      1  0.5700770000000  0.4522190000000  0.5168750000000 1.0
C      1  0.5177880000000  0.5470150000000  0.4310830000000 1.0
C      1  0.4314190000000  0.4532430000000  0.4819490000000 1.0
C      1  0.4812790000000  0.5473210000000  0.5694190000000 1.0
C      1  0.4855490000000  0.5134690000000  0.4274790000000 1.0
C      1  0.4272320000000  0.4868580000000  0.5141690000000 1.0
C      1  0.5127330000000  0.5131360000000  0.5726050000000 1.0
C      1  0.5731630000000  0.4865350000000  0.4850480000000 1.0
C      1  0.4654630000000  0.5516200000000  0.4490470000000 1.0
C      1  0.4490640000000  0.4487710000000  0.5342290000000 1.0
C      1  0.5338280000000  0.5509150000000  0.5509700000000 1.0
C      1  0.5512600000000  0.4484920000000  0.4650680000000 1.0
C      1  0.4461840000000  0.5516810000000  0.5117660000000 1.0
C      1  0.5125050000000  0.4477350000000  0.5533850000000 1.0
C      1  0.5536450000000  0.5514490000000  0.4883920000000 1.0
C      1  0.4893620000000  0.4492150000000  0.4469530000000 1.0
C      1  0.4682630000000  0.5922490000000  0.5179570000000 1.0
C      1  0.5183760000000  0.4071500000000  0.5309820000000 1.0
C      1  0.5315150000000  0.5921180000000  0.4820480000000 1.0
C      1  0.4826020000000  0.4080810000000  0.4679270000000 1.0
C      1  0.4364960000000  0.4955240000000  0.5409300000000 1.0
C      1  0.5354000000000  0.5022550000000  0.5552350000000 1.0
C      1  0.5628560000000  0.4952730000000  0.4586370000000 1.0
C      1  0.4589340000000  0.5050310000000  0.4370960000000 1.0
C      1  0.4980470000000  0.5159420000000  0.5261780000000 1.0
C      1  0.5255850000000  0.4850460000000  0.5043980000000 1.0
C      1  0.5022460000000  0.5153460000000  0.4759940000000 1.0
C      1  0.4759050000000  0.4852430000000  0.4993370000000 1.0
C      1  0.4680910000000  0.4076280000000  0.5139620000000 1.0
C      1  0.5143170000000  0.5923840000000  0.5320130000000 1.0
C      1  0.5326540000000  0.4071930000000  0.4851410000000 1.0
C      1  0.4854130000000  0.5927020000000  0.4676410000000 1.0
C      1  0.5713910000000  0.4774260000000  0.5311230000000 1.0
C      1  0.5316960000000  0.5217220000000  0.4292740000000 1.0
C      1  0.4295010000000  0.4784100000000  0.4680180000000 1.0
C      1  0.4667060000000  0.5222890000000  0.5712660000000 1.0
C      1  0.5461940000000  0.4086890000000  0.5357820000000 1.0
C      1  0.5371150000000  0.5903510000000  0.4544100000000 1.0
C      1  0.4550570000000  0.4101950000000  0.4628060000000 1.0
C      1  0.4626180000000  0.5906250000000  0.5455710000000 1.0
C      1  0.4885180000000  0.5420070000000  0.4320780000000 1.0
C      1  0.4321540000000  0.4583070000000  0.5112090000000 1.0
C      1  0.5106800000000  0.5415710000000  0.5683070000000 1.0
C      1  0.5686950000000  0.4579200000000  0.4877240000000 1.0
C      1  0.4990510000000  0.4242530000000  0.5439450000000 1.0
C      1  0.5442230000000  0.5751180000000  0.5015610000000 1.0
C      1  0.5022010000000  0.4251370000000  0.4553480000000 1.0
C      1  0.4553660000000  0.5753500000000  0.4984550000000 1.0
C      1  0.4609120000000  0.4534040000000  0.4453440000000 1.0
C      1  0.4444380000000  0.5475510000000  0.5400700000000 1.0
C      1  0.5408250000000  0.4516170000000  0.5535740000000 1.0
C      1  0.5546980000000  0.5470560000000  0.4600880000000 1.0
C      1  0.5606860000000  0.5223020000000  0.5206870000000 1.0
C      1  0.5208060000000  0.4776150000000  0.4405000000000 1.0
C      1  0.4402670000000  0.5224560000000  0.4789790000000 1.0
C      1  0.4777390000000  0.4780020000000  0.5606410000000 1.0
C      1  0.4906760000000  0.5377020000000  0.4894280000000 1.0
C      1  0.4897590000000  0.4632710000000  0.5106480000000 1.0
C      1  0.5093760000000  0.5375010000000  0.5109860000000 1.0
C      1  0.5116550000000  0.4631580000000  0.4926490000000 1.0
C      1  0.4517440000000  0.4723040000000  0.5507540000000 1.0
C      1  0.5492480000000  0.5272520000000  0.5461630000000 1.0
C      1  0.5474830000000  0.4721380000000  0.4489030000000 1.0
C      1  0.4492190000000  0.5280310000000  0.4525100000000 1.0
C      1  0.4439880000000  0.5213260000000  0.5527700000000 1.0
C      1  0.5528140000000  0.4776000000000  0.5534200000000 1.0
C      1  0.5547620000000  0.5208930000000  0.4472780000000 1.0
C      1  0.4477710000000  0.4793230000000  0.4451270000000 1.0
C      1  0.4851920000000  0.4927880000000  0.4731960000000 1.0
C      1  0.4725380000000  0.5078060000000  0.5160350000000 1.0
C      1  0.5161070000000  0.4934840000000  0.5319150000000 1.0
C      1  0.5277580000000  0.5070260000000  0.4864570000000 1.0
C      1  0.4463680000000  0.4359450000000  0.4633070000000 1.0
C      1  0.4626500000000  0.5649430000000  0.5547490000000 1.0
C      1  0.5554460000000  0.4342420000000  0.5354180000000 1.0
C      1  0.5364870000000  0.5645000000000  0.4457090000000 1.0
C      1  0.5019220000000  0.4705860000000  0.4619220000000 1.0
C      1  0.4605550000000  0.5299430000000  0.4990120000000 1.0
C      1  0.4986230000000  0.4702880000000  0.5414520000000 1.0
C      1  0.5400210000000  0.5297110000000  0.5013810000000 1.0
C      1  0.4868240000000  0.3998960000000  0.4952950000000 1.0
C      1  0.4956950000000  0.6001840000000  0.5133920000000 1.0
C      1  0.5137720000000  0.3993300000000  0.5035630000000 1.0
C      1  0.5040850000000  0.6001780000000  0.4863870000000 1.0
C      1  0.5341350000000  0.5737500000000  0.5308710000000 1.0
C      1  0.5310790000000  0.4261590000000  0.4654370000000 1.0
C      1  0.4653890000000  0.5741330000000  0.4691590000000 1.0
C      1  0.4695090000000  0.4261530000000  0.5340150000000 1.0
END
