TITL C-55544-7162-7 21.1842311360732 125000 -718.55326255306 0 0 107 (C1) n - 1
REM
REM in /rds/project/t2_vol4/rds-t2-cs072/BORA/CARBON/from-Arr/AIRSS/Generating-Clusters/GAP-ML-2020/Higher-Symm/SD-CG/HFTN-CG
REM
REM
REM
REM
REM
REM ./C.cell (b20cbc046b6831c77cfcea5457e17084)
REM AIRSS Version 0.9.1 bugfix July 2018 build 013d7b7c2542+ Fri, 06 Jul 2018 19:26:36 +0100
REM compiler GCC version 9.3.0
REM options -cpp -mtune=generic -march=x86-64 -g -O0
REM seed -1807828689 1544217237 -810753560 1115334562 -1417366191 2084012236 -445502622 1869086949 949287715 -889651597 1488850670 -181412491 -583623008 1127617884 752169343 -1476709812 -1644232261 -510603991 -2125192325 1298430842 -1621798393 1052958628 1633091352 746381588 -1043107041 -991313436 426026454 -1037147148 -1810380336 -207546701 -1448606597 422702164 -162217726
REM
CELL 1.54180   50.00000   50.00000   50.00000   90.00000   90.00000   90.00000
LATT -1
SFAC C  
C      1  0.5139190000000  0.5967250000000  0.5192990000000 1.0
C      1  0.5973560000000  0.5214820000000  0.5105800000000 1.0
C      1  0.5287610000000  0.5120030000000  0.5907970000000 1.0
C      1  0.4849920000000  0.3982440000000  0.5215710000000 1.0
C      1  0.5156540000000  0.4067650000000  0.4761090000000 1.0
C      1  0.4819230000000  0.5982420000000  0.4765980000000 1.0
C      1  0.4024870000000  0.4720800000000  0.5117640000000 1.0
C      1  0.5900740000000  0.4718320000000  0.4919540000000 1.0
C      1  0.4088510000000  0.5160720000000  0.4840760000000 1.0
C      1  0.4826280000000  0.4798090000000  0.5922520000000 1.0
C      1  0.5293040000000  0.4876010000000  0.4029020000000 1.0
C      1  0.4826640000000  0.5168700000000  0.4019370000000 1.0
C      1  0.5925320000000  0.5646940000000  0.5356830000000 1.0
C      1  0.5683860000000  0.5396540000000  0.5699950000000 1.0
C      1  0.5474200000000  0.5811720000000  0.5541830000000 1.0
C      1  0.4111510000000  0.4325500000000  0.5424060000000 1.0
C      1  0.5689500000000  0.4324310000000  0.4698940000000 1.0
C      1  0.4210590000000  0.5579230000000  0.4571790000000 1.0
C      1  0.4417690000000  0.4631900000000  0.5619060000000 1.0
C      1  0.5690600000000  0.4629970000000  0.4277550000000 1.0
C      1  0.4424860000000  0.5458540000000  0.4145370000000 1.0
C      1  0.4552970000000  0.4140620000000  0.5617510000000 1.0
C      1  0.5311900000000  0.4397040000000  0.4400360000000 1.0
C      1  0.4503660000000  0.5902220000000  0.4374050000000 1.0
C      1  0.5230720000000  0.4206510000000  0.5004130000000 1.0
C      1  0.4167010000000  0.4928680000000  0.5269390000000 1.0
C      1  0.5031210000000  0.5275360000000  0.4188620000000 1.0
C      1  0.4723360000000  0.5808590000000  0.4975120000000 1.0
C      1  0.5238570000000  0.5810310000000  0.4956350000000 1.0
C      1  0.4731320000000  0.4141160000000  0.4999390000000 1.0
C      1  0.5802320000000  0.5050710000000  0.5270760000000 1.0
C      1  0.4250270000000  0.4949060000000  0.4734710000000 1.0
C      1  0.5758050000000  0.4929190000000  0.4763140000000 1.0
C      1  0.5052120000000  0.4740660000000  0.4139980000000 1.0
C      1  0.5050900000000  0.4708140000000  0.5762230000000 1.0
C      1  0.5043470000000  0.5231480000000  0.5785480000000 1.0
C      1  0.5374430000000  0.4713340000000  0.5005690000000 1.0
C      1  0.4588370000000  0.5034810000000  0.5482770000000 1.0
C      1  0.4865930000000  0.5508940000000  0.4584920000000 1.0
C      1  0.4586550000000  0.5310510000000  0.4946130000000 1.0
C      1  0.5497160000000  0.5407870000000  0.5063030000000 1.0
C      1  0.4554860000000  0.4661420000000  0.5115840000000 1.0
C      1  0.5324540000000  0.5065000000000  0.5370940000000 1.0
C      1  0.4663140000000  0.5090040000000  0.4509850000000 1.0
C      1  0.5293440000000  0.4914860000000  0.4553510000000 1.0
C      1  0.4901410000000  0.4520930000000  0.4562570000000 1.0
C      1  0.5000990000000  0.4496480000000  0.5299680000000 1.0
C      1  0.5020200000000  0.5433090000000  0.5278690000000 1.0
C      1  0.4425400000000  0.4814220000000  0.5373080000000 1.0
C      1  0.4920170000000  0.5248940000000  0.4487520000000 1.0
C      1  0.5160190000000  0.4509670000000  0.5021700000000 1.0
C      1  0.5539470000000  0.5185850000000  0.5236920000000 1.0
C      1  0.4561640000000  0.5040010000000  0.4768740000000 1.0
C      1  0.5483850000000  0.4833810000000  0.4749890000000 1.0
C      1  0.5131120000000  0.4637280000000  0.4407020000000 1.0
C      1  0.4966390000000  0.4715510000000  0.5479540000000 1.0
C      1  0.5063770000000  0.5202310000000  0.5469430000000 1.0
C      1  0.4755810000000  0.5532390000000  0.4849910000000 1.0
C      1  0.5260890000000  0.5536750000000  0.5068560000000 1.0
C      1  0.4753770000000  0.4440310000000  0.5094160000000 1.0
C      1  0.4559380000000  0.5059970000000  0.5769260000000 1.0
C      1  0.4985600000000  0.5752200000000  0.4496300000000 1.0
C      1  0.5616940000000  0.4581120000000  0.5145380000000 1.0
C      1  0.5466500000000  0.4944600000000  0.5605540000000 1.0
C      1  0.4583480000000  0.4971900000000  0.4260660000000 1.0
C      1  0.5453190000000  0.5049960000000  0.4329890000000 1.0
C      1  0.4883460000000  0.4235940000000  0.4515130000000 1.0
C      1  0.5040910000000  0.4238620000000  0.5443950000000 1.0
C      1  0.4968260000000  0.5693410000000  0.5412620000000 1.0
C      1  0.4327830000000  0.5391930000000  0.5048870000000 1.0
C      1  0.5729620000000  0.5449640000000  0.4902600000000 1.0
C      1  0.4324500000000  0.4517160000000  0.4984860000000 1.0
C      1  0.5915980000000  0.5494350000000  0.5144740000000 1.0
C      1  0.5534520000000  0.5195060000000  0.5770250000000 1.0
C      1  0.5232600000000  0.5842650000000  0.5445300000000 1.0
C      1  0.4123140000000  0.4463670000000  0.5199410000000 1.0
C      1  0.5762370000000  0.4464430000000  0.4908940000000 1.0
C      1  0.4170560000000  0.5432750000000  0.4781470000000 1.0
C      1  0.4551350000000  0.4766200000000  0.5829060000000 1.0
C      1  0.5544030000000  0.4820110000000  0.4172470000000 1.0
C      1  0.4556330000000  0.5237740000000  0.4109400000000 1.0
C      1  0.4780720000000  0.4101750000000  0.5488320000000 1.0
C      1  0.5172180000000  0.4177410000000  0.4494040000000 1.0
C      1  0.4728250000000  0.5912070000000  0.4503220000000 1.0
C      1  0.4818240000000  0.5099280000000  0.5886730000000 1.0
C      1  0.5091490000000  0.5883560000000  0.4727970000000 1.0
C      1  0.5824940000000  0.4775890000000  0.5191310000000 1.0
C      1  0.5290420000000  0.4841270000000  0.5808560000000 1.0
C      1  0.4813820000000  0.4887000000000  0.4103920000000 1.0
C      1  0.5274420000000  0.5150320000000  0.4134580000000 1.0
C      1  0.4856390000000  0.4087080000000  0.4757230000000 1.0
C      1  0.5124610000000  0.4063990000000  0.5231230000000 1.0
C      1  0.4862760000000  0.5872720000000  0.5216340000000 1.0
C      1  0.4159060000000  0.5171220000000  0.5129580000000 1.0
C      1  0.5844310000000  0.5190260000000  0.4846970000000 1.0
C      1  0.4162350000000  0.4713780000000  0.4856170000000 1.0
C      1  0.4745950000000  0.4851350000000  0.4924960000000 1.0
C      1  0.5099540000000  0.5102290000000  0.4666580000000 1.0
C      1  0.4894170000000  0.4590480000000  0.4852520000000 1.0
C      1  0.5245600000000  0.4960850000000  0.5108730000000 1.0
C      1  0.4865330000000  0.4985080000000  0.5416140000000 1.0
C      1  0.4867200000000  0.5321370000000  0.5047250000000 1.0
C      1  0.4360450000000  0.4347540000000  0.5575950000000 1.0
C      1  0.4374230000000  0.5643370000000  0.4355110000000 1.0
C      1  0.5595000000000  0.4433470000000  0.4455980000000 1.0
C      1  0.5695300000000  0.5631650000000  0.5544860000000 1.0
C      1  0.5006360000000  0.5072800000000  0.4946960000000 1.0
END
