TITL C-55553-8352-7 2.04476345176077 125000 -178.465974179112 0 0 27 (C1) n - 1
REM
REM in /rds/project/t2_vol4/rds-t2-cs072/BORA/CARBON/from-Arr/AIRSS/Generating-Clusters/GAP-ML-2020/Higher-Symm/SD-CG/HFTN-CG
REM
REM
REM
REM
REM
REM ./C.cell (b20cbc046b6831c77cfcea5457e17084)
REM AIRSS Version 0.9.1 bugfix July 2018 build 013d7b7c2542+ Fri, 06 Jul 2018 19:26:36 +0100
REM compiler GCC version 9.3.0
REM options -cpp -mtune=generic -march=x86-64 -g -O0
REM seed 598365567 1337753969 1170733625 2080129437 -2027764053 -1810240220 728783117 -287499390 1950428768 1518536117 -761757814 -1430970770 -1503952514 750114693 -945257187 933352812 -1848793217 -790142909 -1933029240 -647876345 -463712335 1535014655 -1335029985 -283481297 635647188 941546180 1021226640 -776832497 1956491577 513984334 1222994165 -653170681 -988556066
REM
CELL 1.54180   50.00000   50.00000   50.00000   90.00000   90.00000   90.00000
LATT -1
SFAC C  
C      1  0.4725710000000  0.5030830000000  0.4695010000000 1.0
C      1  0.4670260000000  0.5258120000000  0.5135070000000 1.0
C      1  0.4711240000000  0.4759670000000  0.5124150000000 1.0
C      1  0.5287990000000  0.4974550000000  0.4712350000000 1.0
C      1  0.5250750000000  0.5253580000000  0.5142950000000 1.0
C      1  0.5290470000000  0.4754530000000  0.5154180000000 1.0
C      1  0.4679110000000  0.5013080000000  0.5272920000000 1.0
C      1  0.4704970000000  0.5276250000000  0.4853380000000 1.0
C      1  0.4722870000000  0.4765120000000  0.4836940000000 1.0
C      1  0.5246400000000  0.5005350000000  0.5288880000000 1.0
C      1  0.5268240000000  0.5236650000000  0.4840120000000 1.0
C      1  0.5297140000000  0.4741570000000  0.4876480000000 1.0
C      1  0.4891440000000  0.5499470000000  0.4808070000000 1.0
C      1  0.4816560000000  0.5031550000000  0.5524630000000 1.0
C      1  0.4864000000000  0.4557110000000  0.4695830000000 1.0
C      1  0.5128870000000  0.5429810000000  0.4690330000000 1.0
C      1  0.5071730000000  0.4941890000000  0.5517200000000 1.0
C      1  0.5147220000000  0.4522150000000  0.4738450000000 1.0
C      1  0.4813310000000  0.5486800000000  0.5261670000000 1.0
C      1  0.4886080000000  0.5052060000000  0.4463870000000 1.0
C      1  0.4851510000000  0.4560990000000  0.5285080000000 1.0
C      1  0.5100650000000  0.5477760000000  0.5239140000000 1.0
C      1  0.5116750000000  0.4906010000000  0.4484430000000 1.0
C      1  0.5136470000000  0.4541790000000  0.5296960000000 1.0
C      1  0.5049140000000  0.4628130000000  0.4499760000000 1.0
C      1  0.5000140000000  0.4666930000000  0.5504050000000 1.0
C      1  0.4943950000000  0.5628240000000  0.5058110000000 1.0
END
