TITL C-55548-7257-7 0.00938760913219166 125000 -155.304911352985 0 0 24 (C1) n - 1
REM
REM in /rds/project/t2_vol4/rds-t2-cs072/BORA/CARBON/from-Arr/AIRSS/Generating-Clusters/GAP-ML-2020/Higher-Symm/SD-CG/HFTN-CG
REM
REM
REM
REM
REM
REM ./C.cell (b20cbc046b6831c77cfcea5457e17084)
REM AIRSS Version 0.9.1 bugfix July 2018 build 013d7b7c2542+ Fri, 06 Jul 2018 19:26:36 +0100
REM compiler GCC version 9.3.0
REM options -cpp -mtune=generic -march=x86-64 -g -O0
REM seed -1810781125 -978079364 -1409446472 -453384503 449891962 231622476 2138007804 1410744398 920350736 -289879046 1297660584 1920522994 670246053 -1719962005 1339093660 1514937607 1701565079 -1772952428 1109323673 745565558 -1272472097 2298613 -1837896656 -1533391680 1625428012 70111605 917464919 -1501336621 644424759 1480317001 -874342972 472801888 493039327
REM
CELL 1.54180   50.00000   50.00000   50.00000   90.00000   90.00000   90.00000
LATT -1
SFAC C  
C      1  0.5010070000000  0.5411300000000  0.4574370000000 1.0
C      1  0.4932230000000  0.4604750000000  0.5477040000000 1.0
C      1  0.5188920000000  0.5372630000000  0.5006630000000 1.0
C      1  0.4842280000000  0.4601440000000  0.4973660000000 1.0
C      1  0.4978900000000  0.4471490000000  0.5688430000000 1.0
C      1  0.4878290000000  0.5621680000000  0.4585300000000 1.0
C      1  0.5108390000000  0.4944440000000  0.5103890000000 1.0
C      1  0.4921000000000  0.5029440000000  0.4884460000000 1.0
C      1  0.4821590000000  0.4787450000000  0.4757310000000 1.0
C      1  0.5196600000000  0.5193100000000  0.5229980000000 1.0
C      1  0.5056350000000  0.4485070000000  0.4825380000000 1.0
C      1  0.4975400000000  0.5508490000000  0.5131570000000 1.0
C      1  0.4679080000000  0.4996440000000  0.5257220000000 1.0
C      1  0.5325430000000  0.5004120000000  0.4704870000000 1.0
C      1  0.5341500000000  0.4851450000000  0.4951840000000 1.0
C      1  0.4684020000000  0.5135680000000  0.5009360000000 1.0
C      1  0.4742370000000  0.5251280000000  0.5370730000000 1.0
C      1  0.5264830000000  0.4757060000000  0.4577950000000 1.0
C      1  0.4705920000000  0.5403060000000  0.5113480000000 1.0
C      1  0.5326300000000  0.4593760000000  0.4822980000000 1.0
C      1  0.4889860000000  0.4761110000000  0.5241610000000 1.0
C      1  0.5120330000000  0.5217450000000  0.4752960000000 1.0
C      1  0.4998380000000  0.4647140000000  0.4576900000000 1.0
C      1  0.5011960000000  0.5350160000000  0.5382070000000 1.0
END
