TITL C-55549-7288-6 -0.121325544931726 125000 -439.108837426413 0 0 65 (C1) n - 1
REM
REM in /rds/project/t2_vol4/rds-t2-cs072/BORA/CARBON/from-Arr/AIRSS/Generating-Clusters/GAP-ML-2020/Higher-Symm/SD-CG/HFTN-CG
REM
REM
REM
REM
REM
REM ./C.cell (b20cbc046b6831c77cfcea5457e17084)
REM AIRSS Version 0.9.1 bugfix July 2018 build 013d7b7c2542+ Fri, 06 Jul 2018 19:26:36 +0100
REM compiler GCC version 9.3.0
REM options -cpp -mtune=generic -march=x86-64 -g -O0
REM seed 596571438 805531300 147823942 444826388 -755946965 2050779967 -118823676 -1508256648 1797723504 -2108078770 519600939 1607863640 -340870413 -1786647626 -1929394952 1629322772 1428378876 -2010627058 -147421910 -1212981675 -1928587097 -1076825565 -931860892 1439527035 1116010166 1439504744 667131865 261764697 -39999269 -2068599444 548527392 762920805 -397190896
REM
CELL 1.54180   50.00000   50.00000   50.00000   90.00000   90.00000   90.00000
LATT -1
SFAC C  
C      1  0.4475010000000  0.4877400000000  0.5389530000000 1.0
C      1  0.4909480000000  0.4818350000000  0.4366600000000 1.0
C      1  0.5593890000000  0.4803190000000  0.5234720000000 1.0
C      1  0.4507630000000  0.5160590000000  0.5399030000000 1.0
C      1  0.4916590000000  0.5101980000000  0.4348730000000 1.0
C      1  0.5604300000000  0.5086920000000  0.5254520000000 1.0
C      1  0.4945690000000  0.5512620000000  0.5362760000000 1.0
C      1  0.4736490000000  0.5532430000000  0.4799020000000 1.0
C      1  0.5330700000000  0.5510230000000  0.4860510000000 1.0
C      1  0.4933800000000  0.4459620000000  0.5335210000000 1.0
C      1  0.4712020000000  0.4471170000000  0.4749640000000 1.0
C      1  0.5325420000000  0.4448780000000  0.4881670000000 1.0
C      1  0.5305370000000  0.5228160000000  0.4938920000000 1.0
C      1  0.4919460000000  0.5243340000000  0.5229960000000 1.0
C      1  0.4812160000000  0.5248090000000  0.4770590000000 1.0
C      1  0.5250560000000  0.4725940000000  0.4956780000000 1.0
C      1  0.4891070000000  0.4743910000000  0.5279480000000 1.0
C      1  0.4828260000000  0.4744780000000  0.4796010000000 1.0
C      1  0.4941440000000  0.4303730000000  0.4725270000000 1.0
C      1  0.5234550000000  0.4279940000000  0.5089310000000 1.0
C      1  0.4772620000000  0.4312670000000  0.5156510000000 1.0
C      1  0.4965550000000  0.5685100000000  0.4741390000000 1.0
C      1  0.5264570000000  0.5658780000000  0.5093940000000 1.0
C      1  0.4810380000000  0.5692080000000  0.5188070000000 1.0
C      1  0.4673950000000  0.4726380000000  0.4548640000000 1.0
C      1  0.5541230000000  0.4705730000000  0.4948080000000 1.0
C      1  0.4705670000000  0.4761830000000  0.5505140000000 1.0
C      1  0.4706180000000  0.5215640000000  0.4497820000000 1.0
C      1  0.5592860000000  0.5194900000000  0.4993870000000 1.0
C      1  0.4788010000000  0.5251110000000  0.5492900000000 1.0
C      1  0.4456270000000  0.4728700000000  0.5098380000000 1.0
C      1  0.5168680000000  0.4695800000000  0.4484580000000 1.0
C      1  0.5372130000000  0.4684790000000  0.5394670000000 1.0
C      1  0.4472590000000  0.5291200000000  0.5135620000000 1.0
C      1  0.5160880000000  0.5259440000000  0.4463820000000 1.0
C      1  0.5365090000000  0.5246600000000  0.5410360000000 1.0
C      1  0.5178880000000  0.4427030000000  0.4628800000000 1.0
C      1  0.5220560000000  0.4413980000000  0.5335770000000 1.0
C      1  0.4570830000000  0.4456040000000  0.5012350000000 1.0
C      1  0.5174200000000  0.5541730000000  0.4615200000000 1.0
C      1  0.5243270000000  0.5521240000000  0.5346230000000 1.0
C      1  0.4599120000000  0.5567210000000  0.5050460000000 1.0
C      1  0.4957020000000  0.5118340000000  0.5678930000000 1.0
C      1  0.4308380000000  0.5289370000000  0.4710430000000 1.0
C      1  0.5616280000000  0.5249160000000  0.4546330000000 1.0
C      1  0.5085240000000  0.4698200000000  0.5746170000000 1.0
C      1  0.4429470000000  0.4866470000000  0.4614250000000 1.0
C      1  0.5613970000000  0.4830130000000  0.4702270000000 1.0
C      1  0.5166520000000  0.4834150000000  0.5216900000000 1.0
C      1  0.4729700000000  0.4846880000000  0.5045880000000 1.0
C      1  0.5097420000000  0.4841080000000  0.4742430000000 1.0
C      1  0.5181710000000  0.5130510000000  0.5197560000000 1.0
C      1  0.4725660000000  0.5143410000000  0.5032480000000 1.0
C      1  0.5102080000000  0.5136270000000  0.4737590000000 1.0
C      1  0.4329810000000  0.4881140000000  0.4888080000000 1.0
C      1  0.5420720000000  0.4846340000000  0.4484030000000 1.0
C      1  0.5310440000000  0.4812240000000  0.5648800000000 1.0
C      1  0.4281680000000  0.5169260000000  0.4950530000000 1.0
C      1  0.5413790000000  0.5132380000000  0.4410560000000 1.0
C      1  0.5242620000000  0.5100710000000  0.5629730000000 1.0
C      1  0.4433700000000  0.5141040000000  0.4515730000000 1.0
C      1  0.4856520000000  0.4847320000000  0.5732370000000 1.0
C      1  0.5716310000000  0.5099520000000  0.4754570000000 1.0
C      1  0.4975370000000  0.4197510000000  0.4990200000000 1.0
C      1  0.5021120000000  0.5779360000000  0.5008520000000 1.0
END
