TITL C-55560-7236-9 -0.00798547994483667 125000 -186.687704944847 0 0 28 (C1) n - 1
REM
REM in /rds/project/t2_vol4/rds-t2-cs072/BORA/CARBON/from-Arr/AIRSS/Generating-Clusters/GAP-ML-2020/Higher-Symm/SD-CG/HFTN-CG
REM
REM
REM
REM
REM
REM ./C.cell (b20cbc046b6831c77cfcea5457e17084)
REM AIRSS Version 0.9.1 bugfix July 2018 build 013d7b7c2542+ Fri, 06 Jul 2018 19:26:36 +0100
REM compiler GCC version 9.3.0
REM options -cpp -mtune=generic -march=x86-64 -g -O0
REM seed 779804227 570193655 540539873 2104048162 939055427 -560618520 930697725 1827741089 1451860916 -605379763 1381104491 -1397884595 1765024087 534180378 -394155253 -37260568 -1494200642 -362910031 -417105763 -1960853113 599590975 1426799286 1536642462 434485712 2057768082 13201950 969809195 217042934 655595207 -1387869838 -12230201 -548150330 -605979659
REM
CELL 1.54180   50.00000   50.00000   50.00000   90.00000   90.00000   90.00000
LATT -1
SFAC C  
C      1  0.4982450000000  0.5372390000000  0.4603740000000 1.0
C      1  0.4902110000000  0.5175580000000  0.4411380000000 1.0
C      1  0.5021780000000  0.4919140000000  0.4427140000000 1.0
C      1  0.4853880000000  0.4632260000000  0.4743870000000 1.0
C      1  0.4966840000000  0.4391740000000  0.5113740000000 1.0
C      1  0.4978960000000  0.4487740000000  0.5375890000000 1.0
C      1  0.4898010000000  0.4927520000000  0.5491030000000 1.0
C      1  0.4986510000000  0.5411120000000  0.5480820000000 1.0
C      1  0.4862240000000  0.5460690000000  0.5039530000000 1.0
C      1  0.4770550000000  0.4679630000000  0.5414980000000 1.0
C      1  0.4811080000000  0.5196890000000  0.5490920000000 1.0
C      1  0.4766790000000  0.5411540000000  0.5299870000000 1.0
C      1  0.4756350000000  0.5410440000000  0.4780340000000 1.0
C      1  0.4544170000000  0.5248310000000  0.4702210000000 1.0
C      1  0.4639720000000  0.5062320000000  0.4521210000000 1.0
C      1  0.4773890000000  0.4804320000000  0.4535820000000 1.0
C      1  0.4743700000000  0.4507690000000  0.4977510000000 1.0
C      1  0.4609790000000  0.4616990000000  0.5198290000000 1.0
C      1  0.5176500000000  0.4897270000000  0.5430980000000 1.0
C      1  0.5219360000000  0.5342550000000  0.5302090000000 1.0
C      1  0.5142730000000  0.5410440000000  0.5035240000000 1.0
C      1  0.5212890000000  0.5316410000000  0.4771060000000 1.0
C      1  0.5376950000000  0.5100690000000  0.4691000000000 1.0
C      1  0.5237440000000  0.4871420000000  0.4621040000000 1.0
C      1  0.5137820000000  0.4657790000000  0.4787030000000 1.0
C      1  0.5202430000000  0.4542840000000  0.5037320000000 1.0
C      1  0.5215850000000  0.4638450000000  0.5313610000000 1.0
C      1  0.5334780000000  0.5122810000000  0.5402440000000 1.0
END
