TITL C-55563-7281-23 0.00689885522822363 125000 -17.3694777585631 0 0 4 (C3v) n - 1
REM
REM in /rds/project/t2_vol4/rds-t2-cs072/BORA/CARBON/from-Arr/AIRSS/Generating-Clusters/GAP-ML-2020/Higher-Symm/SD-CG/HFTN-CG
REM
REM
REM
REM
REM
REM ./C.cell (b20cbc046b6831c77cfcea5457e17084)
REM AIRSS Version 0.9.1 bugfix July 2018 build 013d7b7c2542+ Fri, 06 Jul 2018 19:26:36 +0100
REM compiler GCC version 9.3.0
REM options -cpp -mtune=generic -march=x86-64 -g -O0
REM seed -1718362340 782486795 -685926316 1625930124 791237274 1276417297 -201638234 814879596 -603957898 -143907233 -1023322473 -1249381401 1687872593 -2055852600 968772438 1535474386 214695552 2044198172 -1811425086 -1244341751 -426850587 -1043345475 -1142610725 87015509 -789684367 -312117300 -2055701187 -1271839019 -2120827578 -685760276 -804544195 -1692708574 -698708683
REM
CELL 1.54180   50.00000   50.00000   50.00000   90.00000   90.00000   90.00000
LATT -1
SFAC C  
C      1  0.5261330000000  0.5048470000000  0.5133090000000 1.0
C      1  0.5046420000000  0.4715010000000  0.5133090000000 1.0
C      1  0.4865090000000  0.5067850000000  0.5133090000000 1.0
C      1  0.5057610000000  0.4943780000000  0.4975190000000 1.0
END
