TITL C-55561-7306-6 335.073250351754 125000 -937.772840898973 0 0 134 (C1) n - 1
REM
REM in /rds/project/t2_vol4/rds-t2-cs072/BORA/CARBON/from-Arr/AIRSS/Generating-Clusters/GAP-ML-2020/Higher-Symm/SD-CG/HFTN-CG
REM
REM
REM
REM
REM
REM ./C.cell (b20cbc046b6831c77cfcea5457e17084)
REM AIRSS Version 0.9.1 bugfix July 2018 build 013d7b7c2542+ Fri, 06 Jul 2018 19:26:36 +0100
REM compiler GCC version 9.3.0
REM options -cpp -mtune=generic -march=x86-64 -g -O0
REM seed 1602696884 212158169 940842384 558564427 1853589780 -681447484 1998853529 1572522430 993898749 1648313168 -2003287156 1335247050 -1186805543 1879303039 2476089 -91407726 -838741797 1380633252 -32991672 -1698455526 165074697 1271270968 1664005087 1991725979 -1780358887 -1622262588 -493695677 -563242152 1854454797 465875261 -2019129281 -1315457088 2057923472
REM
CELL 1.54180   50.00000   50.00000   50.00000   90.00000   90.00000   90.00000
LATT -1
SFAC C  
C      1  0.5820800000000  0.4799200000000  0.4867360000000 1.0
C      1  0.5040460000000  0.4088690000000  0.4860520000000 1.0
C      1  0.4177170000000  0.4656130000000  0.4846240000000 1.0
C      1  0.4424120000000  0.5666070000000  0.4860460000000 1.0
C      1  0.5503260000000  0.5752640000000  0.4851150000000 1.0
C      1  0.5836960000000  0.4800640000000  0.5163120000000 1.0
C      1  0.5033980000000  0.4073690000000  0.5159150000000 1.0
C      1  0.4189890000000  0.4652870000000  0.5144630000000 1.0
C      1  0.4426970000000  0.5664490000000  0.5152430000000 1.0
C      1  0.5505340000000  0.5745860000000  0.5158750000000 1.0
C      1  0.4292750000000  0.4424480000000  0.5296040000000 1.0
C      1  0.4234480000000  0.5510360000000  0.5301290000000 1.0
C      1  0.5275390000000  0.5837560000000  0.5315550000000 1.0
C      1  0.5908990000000  0.5040020000000  0.5313860000000 1.0
C      1  0.5271090000000  0.4134420000000  0.5328390000000 1.0
C      1  0.4272090000000  0.4434590000000  0.4686750000000 1.0
C      1  0.4234740000000  0.5511600000000  0.4705040000000 1.0
C      1  0.5273010000000  0.5857810000000  0.4706890000000 1.0
C      1  0.5874460000000  0.5034050000000  0.4706850000000 1.0
C      1  0.5285020000000  0.4121540000000  0.4713800000000 1.0
C      1  0.4480300000000  0.4811530000000  0.5831230000000 1.0
C      1  0.4597230000000  0.5554010000000  0.5876560000000 1.0
C      1  0.5235850000000  0.5368560000000  0.5869390000000 1.0
C      1  0.5484210000000  0.4865850000000  0.5871300000000 1.0
C      1  0.5092620000000  0.4611050000000  0.5875620000000 1.0
C      1  0.4436970000000  0.4814370000000  0.4129190000000 1.0
C      1  0.4615410000000  0.5540480000000  0.4135760000000 1.0
C      1  0.5358500000000  0.5532640000000  0.4118860000000 1.0
C      1  0.5444190000000  0.4838900000000  0.4145670000000 1.0
C      1  0.5063270000000  0.4554600000000  0.4139820000000 1.0
C      1  0.5744550000000  0.5473570000000  0.5538980000000 1.0
C      1  0.5648130000000  0.4422030000000  0.5518270000000 1.0
C      1  0.4690260000000  0.4193090000000  0.5501070000000 1.0
C      1  0.4175500000000  0.5064680000000  0.5514210000000 1.0
C      1  0.4818930000000  0.5802260000000  0.5506400000000 1.0
C      1  0.5715980000000  0.5448980000000  0.4480870000000 1.0
C      1  0.5638040000000  0.4423540000000  0.4520370000000 1.0
C      1  0.4669470000000  0.4207790000000  0.4467600000000 1.0
C      1  0.4157710000000  0.5072030000000  0.4479310000000 1.0
C      1  0.4813580000000  0.5821370000000  0.4509860000000 1.0
C      1  0.4870950000000  0.5450700000000  0.5135200000000 1.0
C      1  0.5492720000000  0.5220060000000  0.5055600000000 1.0
C      1  0.5362850000000  0.4730350000000  0.5173790000000 1.0
C      1  0.4812790000000  0.4556540000000  0.5100500000000 1.0
C      1  0.4470900000000  0.5021830000000  0.5120490000000 1.0
C      1  0.4832400000000  0.5451390000000  0.4855000000000 1.0
C      1  0.5321130000000  0.5255110000000  0.4879590000000 1.0
C      1  0.5349990000000  0.4697580000000  0.4892250000000 1.0
C      1  0.4789900000000  0.4515860000000  0.4840620000000 1.0
C      1  0.4469650000000  0.5004590000000  0.4845300000000 1.0
C      1  0.4433640000000  0.5348140000000  0.4227880000000 1.0
C      1  0.5132190000000  0.5653770000000  0.4225530000000 1.0
C      1  0.5588430000000  0.5066200000000  0.4234120000000 1.0
C      1  0.5281260000000  0.4410310000000  0.4248300000000 1.0
C      1  0.4547270000000  0.4583060000000  0.4236520000000 1.0
C      1  0.4452320000000  0.5344200000000  0.5763170000000 1.0
C      1  0.5117620000000  0.5619430000000  0.5804830000000 1.0
C      1  0.5624220000000  0.5092250000000  0.5770190000000 1.0
C      1  0.5304430000000  0.4440270000000  0.5796370000000 1.0
C      1  0.4584790000000  0.4579520000000  0.5723570000000 1.0
C      1  0.4185690000000  0.4935250000000  0.5250330000000 1.0
C      1  0.4704840000000  0.5717920000000  0.5254750000000 1.0
C      1  0.5728870000000  0.5613850000000  0.5287460000000 1.0
C      1  0.5649890000000  0.4596480000000  0.5272370000000 1.0
C      1  0.4771150000000  0.4048040000000  0.5273070000000 1.0
C      1  0.4172430000000  0.4936930000000  0.4739220000000 1.0
C      1  0.4698330000000  0.5727950000000  0.4759530000000 1.0
C      1  0.5719050000000  0.5612090000000  0.4714490000000 1.0
C      1  0.5636290000000  0.4585660000000  0.4773000000000 1.0
C      1  0.4785760000000  0.4191480000000  0.4741110000000 1.0
C      1  0.4031960000000  0.5394840000000  0.5143190000000 1.0
C      1  0.5105790000000  0.5998450000000  0.5155670000000 1.0
C      1  0.6018280000000  0.5232760000000  0.5142810000000 1.0
C      1  0.5501960000000  0.4117700000000  0.5164180000000 1.0
C      1  0.4310730000000  0.4195150000000  0.5130810000000 1.0
C      1  0.4029790000000  0.5396930000000  0.4861600000000 1.0
C      1  0.5102200000000  0.6005460000000  0.4876090000000 1.0
C      1  0.6004780000000  0.5229080000000  0.4858410000000 1.0
C      1  0.5510450000000  0.4108130000000  0.4883820000000 1.0
C      1  0.4302560000000  0.4205950000000  0.4846400000000 1.0
C      1  0.4709030000000  0.4990290000000  0.4692800000000 1.0
C      1  0.4879650000000  0.5224390000000  0.4686700000000 1.0
C      1  0.5152040000000  0.5124180000000  0.4710690000000 1.0
C      1  0.5156570000000  0.4834200000000  0.4736390000000 1.0
C      1  0.4881110000000  0.4748570000000  0.4698690000000 1.0
C      1  0.4712410000000  0.5001200000000  0.5261560000000 1.0
C      1  0.4888220000000  0.5225760000000  0.5310700000000 1.0
C      1  0.5099760000000  0.5105070000000  0.5470890000000 1.0
C      1  0.5152510000000  0.4840070000000  0.5328870000000 1.0
C      1  0.4882280000000  0.4769840000000  0.5247830000000 1.0
C      1  0.4857950000000  0.5651910000000  0.5922640000000 1.0
C      1  0.5514200000000  0.5343550000000  0.5874820000000 1.0
C      1  0.5558930000000  0.4591320000000  0.5855430000000 1.0
C      1  0.4846340000000  0.4494040000000  0.5803980000000 1.0
C      1  0.4473330000000  0.5087630000000  0.5870300000000 1.0
C      1  0.4877960000000  0.5639150000000  0.4105100000000 1.0
C      1  0.5516450000000  0.5302720000000  0.4095660000000 1.0
C      1  0.5526190000000  0.4568630000000  0.4172630000000 1.0
C      1  0.4797920000000  0.4452520000000  0.4145100000000 1.0
C      1  0.4416080000000  0.5096970000000  0.4104700000000 1.0
C      1  0.5785450000000  0.5170370000000  0.5545480000000 1.0
C      1  0.5367690000000  0.4291830000000  0.5557360000000 1.0
C      1  0.4481900000000  0.4400980000000  0.5519610000000 1.0
C      1  0.4272540000000  0.5338370000000  0.5532830000000 1.0
C      1  0.5106940000000  0.5764640000000  0.5550050000000 1.0
C      1  0.5744330000000  0.5154430000000  0.4474110000000 1.0
C      1  0.5370510000000  0.4277960000000  0.4487190000000 1.0
C      1  0.4452130000000  0.4416620000000  0.4454310000000 1.0
C      1  0.4264790000000  0.5344350000000  0.4466890000000 1.0
C      1  0.5103940000000  0.5791310000000  0.4478210000000 1.0
C      1  0.5941210000000  0.5513550000000  0.5142070000000 1.0
C      1  0.5704590000000  0.4326720000000  0.5168090000000 1.0
C      1  0.4543150000000  0.4018970000000  0.5124920000000 1.0
C      1  0.3982010000000  0.5110010000000  0.5141870000000 1.0
C      1  0.4818130000000  0.5964930000000  0.5159450000000 1.0
C      1  0.5930310000000  0.5510170000000  0.4857430000000 1.0
C      1  0.5708400000000  0.4320180000000  0.4881740000000 1.0
C      1  0.4549680000000  0.4058010000000  0.4842190000000 1.0
C      1  0.3979140000000  0.5112820000000  0.4858710000000 1.0
C      1  0.4816900000000  0.5966190000000  0.4874800000000 1.0
C      1  0.4214840000000  0.4946350000000  0.4236570000000 1.0
C      1  0.4688630000000  0.5780630000000  0.4259980000000 1.0
C      1  0.5616090000000  0.5532400000000  0.4231810000000 1.0
C      1  0.5762140000000  0.4466740000000  0.4268960000000 1.0
C      1  0.4785570000000  0.4179990000000  0.4217080000000 1.0
C      1  0.4251770000000  0.4937650000000  0.5747910000000 1.0
C      1  0.4684540000000  0.5789690000000  0.5753360000000 1.0
C      1  0.5668990000000  0.5563150000000  0.5793110000000 1.0
C      1  0.5786990000000  0.4468500000000  0.5763840000000 1.0
C      1  0.4894970000000  0.4262650000000  0.5665490000000 1.0
C      1  0.5095450000000  0.5125830000000  0.5778030000000 1.0
C      1  0.4969740000000  0.5037630000000  0.4102830000000 1.0
C      1  0.5198330000000  0.4879060000000  0.5891410000000 1.0
C      1  0.5150450000000  0.4833430000000  0.4109240000000 1.0
END
