TITL C-55569-7157-3 -20.1940932666084 125000 -900.499042245025 0 0 131 (C1) n - 1
REM
REM in /rds/project/t2_vol4/rds-t2-cs072/BORA/CARBON/from-Arr/AIRSS/Generating-Clusters/GAP-ML-2020/Higher-Symm/SD-CG/HFTN-CG
REM
REM
REM
REM
REM
REM ./C.cell (b20cbc046b6831c77cfcea5457e17084)
REM AIRSS Version 0.9.1 bugfix July 2018 build 013d7b7c2542+ Fri, 06 Jul 2018 19:26:36 +0100
REM compiler GCC version 9.3.0
REM options -cpp -mtune=generic -march=x86-64 -g -O0
REM seed -979071806 1789287643 -1408598764 -703653142 23857532 1780849162 318749189 1111107655 -167597731 -1011499618 517347061 -1563045816 1381893933 575898010 -178446162 1433566948 -1851311844 134401055 874200183 1962061384 -2075807471 -456489369 1517368972 -2018043454 930421958 1917448697 -750308142 -1633447047 -337539760 -667991542 -1402908667 1522170981 -334322629
REM
CELL 1.54180   50.00000   50.00000   50.00000   90.00000   90.00000   90.00000
LATT -1
SFAC C  
C      1  0.4134870000000  0.5179190000000  0.4732400000000 1.0
C      1  0.4972580000000  0.4154030000000  0.4667800000000 1.0
C      1  0.5448960000000  0.5948930000000  0.5115000000000 1.0
C      1  0.5002140000000  0.5081480000000  0.5924430000000 1.0
C      1  0.4566860000000  0.4163500000000  0.5301070000000 1.0
C      1  0.4754270000000  0.4394070000000  0.5364170000000 1.0
C      1  0.4297800000000  0.4391770000000  0.4962930000000 1.0
C      1  0.4629100000000  0.5611710000000  0.4441260000000 1.0
C      1  0.5125150000000  0.5196670000000  0.5252140000000 1.0
C      1  0.5454970000000  0.4887850000000  0.5015160000000 1.0
C      1  0.4575360000000  0.4472960000000  0.4862710000000 1.0
C      1  0.4503010000000  0.4750110000000  0.5236700000000 1.0
C      1  0.4853070000000  0.4548580000000  0.4176260000000 1.0
C      1  0.5318510000000  0.4349780000000  0.4900640000000 1.0
C      1  0.5412790000000  0.4684810000000  0.5215500000000 1.0
C      1  0.5439750000000  0.5285770000000  0.4805460000000 1.0
C      1  0.5376710000000  0.5829760000000  0.5372350000000 1.0
C      1  0.5631900000000  0.5069470000000  0.5179820000000 1.0
C      1  0.5035130000000  0.5973240000000  0.4933220000000 1.0
C      1  0.5143910000000  0.4568200000000  0.4193110000000 1.0
C      1  0.4782570000000  0.4396500000000  0.4650080000000 1.0
C      1  0.5049130000000  0.5703030000000  0.5667580000000 1.0
C      1  0.5172210000000  0.5434140000000  0.5679570000000 1.0
C      1  0.4911280000000  0.5010420000000  0.5654880000000 1.0
C      1  0.5037120000000  0.4463070000000  0.5395710000000 1.0
C      1  0.5449030000000  0.5085440000000  0.4609910000000 1.0
C      1  0.5682150000000  0.5558360000000  0.5159900000000 1.0
C      1  0.4371500000000  0.5538580000000  0.4514460000000 1.0
C      1  0.4498050000000  0.4968260000000  0.5462730000000 1.0
C      1  0.5542090000000  0.5593750000000  0.5409710000000 1.0
C      1  0.4925280000000  0.4928720000000  0.4600480000000 1.0
C      1  0.5542080000000  0.4481490000000  0.5698060000000 1.0
C      1  0.4237900000000  0.4709990000000  0.4601910000000 1.0
C      1  0.5494520000000  0.5173240000000  0.4335260000000 1.0
C      1  0.5508970000000  0.4161120000000  0.5336850000000 1.0
C      1  0.5263340000000  0.4578760000000  0.4683030000000 1.0
C      1  0.5603190000000  0.4361140000000  0.4783280000000 1.0
C      1  0.4689600000000  0.5086170000000  0.5050800000000 1.0
C      1  0.4478240000000  0.5081310000000  0.4406500000000 1.0
C      1  0.4675630000000  0.4449320000000  0.4388460000000 1.0
C      1  0.5256540000000  0.4073740000000  0.5382510000000 1.0
C      1  0.5593940000000  0.5137350000000  0.5733190000000 1.0
C      1  0.5097760000000  0.5860730000000  0.5447710000000 1.0
C      1  0.4652720000000  0.4875090000000  0.4532350000000 1.0
C      1  0.5637360000000  0.5773240000000  0.4978820000000 1.0
C      1  0.4489890000000  0.5285310000000  0.4608640000000 1.0
C      1  0.4598180000000  0.4508880000000  0.5591030000000 1.0
C      1  0.4588930000000  0.5902530000000  0.5251640000000 1.0
C      1  0.5541580000000  0.4865810000000  0.4259660000000 1.0
C      1  0.4742350000000  0.5426480000000  0.5395880000000 1.0
C      1  0.5065490000000  0.4614840000000  0.5873040000000 1.0
C      1  0.5262350000000  0.6112640000000  0.4997670000000 1.0
C      1  0.5825650000000  0.5483820000000  0.4610880000000 1.0
C      1  0.4710780000000  0.4565850000000  0.5118330000000 1.0
C      1  0.4224840000000  0.5465190000000  0.4739930000000 1.0
C      1  0.4973450000000  0.5266260000000  0.5497720000000 1.0
C      1  0.4991220000000  0.5366880000000  0.5915490000000 1.0
C      1  0.5196160000000  0.4511640000000  0.5138100000000 1.0
C      1  0.4187030000000  0.5314480000000  0.5461250000000 1.0
C      1  0.4193000000000  0.5061060000000  0.4996730000000 1.0
C      1  0.5155950000000  0.4265240000000  0.5573680000000 1.0
C      1  0.4845620000000  0.5580890000000  0.5152730000000 1.0
C      1  0.5478600000000  0.5668660000000  0.4466430000000 1.0
C      1  0.4971570000000  0.5065290000000  0.3834290000000 1.0
C      1  0.5639590000000  0.4383310000000  0.5427410000000 1.0
C      1  0.4328880000000  0.4309730000000  0.5233840000000 1.0
C      1  0.5080880000000  0.5494910000000  0.4263380000000 1.0
C      1  0.4956490000000  0.5190610000000  0.4715780000000 1.0
C      1  0.4053320000000  0.4803360000000  0.5080050000000 1.0
C      1  0.4331580000000  0.4554570000000  0.5403660000000 1.0
C      1  0.5905700000000  0.5270220000000  0.4788100000000 1.0
C      1  0.5168000000000  0.5328220000000  0.4846880000000 1.0
C      1  0.5463750000000  0.4930900000000  0.5901230000000 1.0
C      1  0.5133310000000  0.4118360000000  0.4905220000000 1.0
C      1  0.4117790000000  0.4775360000000  0.5371510000000 1.0
C      1  0.4704610000000  0.5277200000000  0.4817440000000 1.0
C      1  0.5254220000000  0.5271750000000  0.4182230000000 1.0
C      1  0.5097080000000  0.5434990000000  0.5089190000000 1.0
C      1  0.5323270000000  0.4845440000000  0.5441370000000 1.0
C      1  0.5397630000000  0.5132180000000  0.5371090000000 1.0
C      1  0.4334920000000  0.5557780000000  0.5527010000000 1.0
C      1  0.5717020000000  0.4599060000000  0.5225570000000 1.0
C      1  0.5138270000000  0.4171910000000  0.4451990000000 1.0
C      1  0.5004670000000  0.5827770000000  0.4670640000000 1.0
C      1  0.4353420000000  0.5541740000000  0.5013040000000 1.0
C      1  0.5697260000000  0.4671830000000  0.4418560000000 1.0
C      1  0.5186320000000  0.4871870000000  0.5956850000000 1.0
C      1  0.4667820000000  0.4727760000000  0.4034810000000 1.0
C      1  0.4463430000000  0.4906620000000  0.4991170000000 1.0
C      1  0.5934370000000  0.5009810000000  0.4715400000000 1.0
C      1  0.4960020000000  0.4942210000000  0.5173340000000 1.0
C      1  0.4788920000000  0.4022620000000  0.5262420000000 1.0
C      1  0.5039230000000  0.4796200000000  0.5447020000000 1.0
C      1  0.5447890000000  0.4827120000000  0.4740650000000 1.0
C      1  0.4991910000000  0.4666780000000  0.4725570000000 1.0
C      1  0.5668000000000  0.5708690000000  0.4699500000000 1.0
C      1  0.4385240000000  0.4558530000000  0.4363730000000 1.0
C      1  0.5301280000000  0.4800420000000  0.4126160000000 1.0
C      1  0.4736920000000  0.5012970000000  0.3982080000000 1.0
C      1  0.5762900000000  0.4921350000000  0.5613100000000 1.0
C      1  0.4815360000000  0.5581860000000  0.5828230000000 1.0
C      1  0.5455900000000  0.5356960000000  0.5577890000000 1.0
C      1  0.4205140000000  0.5018260000000  0.5504130000000 1.0
C      1  0.5641520000000  0.4726850000000  0.5790610000000 1.0
C      1  0.4201990000000  0.4994980000000  0.4524170000000 1.0
C      1  0.4401030000000  0.4660740000000  0.4113050000000 1.0
C      1  0.5795550000000  0.4871200000000  0.5342270000000 1.0
C      1  0.4785250000000  0.5455260000000  0.4247030000000 1.0
C      1  0.5816660000000  0.4760240000000  0.4699080000000 1.0
C      1  0.4570760000000  0.5214650000000  0.5287630000000 1.0
C      1  0.5265990000000  0.4419160000000  0.5776760000000 1.0
C      1  0.5286430000000  0.4406820000000  0.4404560000000 1.0
C      1  0.5705470000000  0.5302580000000  0.5017910000000 1.0
C      1  0.5777210000000  0.4538650000000  0.4924030000000 1.0
C      1  0.4285710000000  0.5293400000000  0.5180050000000 1.0
C      1  0.4639660000000  0.5206400000000  0.4174650000000 1.0
C      1  0.4120460000000  0.4597700000000  0.4874510000000 1.0
C      1  0.5055600000000  0.4023520000000  0.5171140000000 1.0
C      1  0.4609880000000  0.5546940000000  0.5633080000000 1.0
C      1  0.4749570000000  0.5719500000000  0.4676020000000 1.0
C      1  0.4663430000000  0.4863850000000  0.5689870000000 1.0
C      1  0.5192350000000  0.5702700000000  0.4446280000000 1.0
C      1  0.4969700000000  0.4684120000000  0.5022010000000 1.0
C      1  0.4763420000000  0.4617390000000  0.5793500000000 1.0
C      1  0.5577710000000  0.4425880000000  0.4488040000000 1.0
C      1  0.4882930000000  0.5878170000000  0.5198910000000 1.0
C      1  0.5176810000000  0.5050220000000  0.4020420000000 1.0
C      1  0.5643310000000  0.5436540000000  0.4386590000000 1.0
C      1  0.4664130000000  0.5555120000000  0.4920970000000 1.0
C      1  0.4495760000000  0.4742290000000  0.4747880000000 1.0
C      1  0.4377650000000  0.5727360000000  0.5262740000000 1.0
END
