TITL C-55569-7157-6 303.929077431384 125000 -172.47028633154 0 0 27 (C3) n - 1
REM
REM in /rds/project/t2_vol4/rds-t2-cs072/BORA/CARBON/from-Arr/AIRSS/Generating-Clusters/GAP-ML-2020/Higher-Symm/SD-CG/HFTN-CG
REM
REM
REM
REM
REM
REM ./C.cell (b20cbc046b6831c77cfcea5457e17084)
REM AIRSS Version 0.9.1 bugfix July 2018 build 013d7b7c2542+ Fri, 06 Jul 2018 19:26:36 +0100
REM compiler GCC version 9.3.0
REM options -cpp -mtune=generic -march=x86-64 -g -O0
REM seed -2070253754 80501234 -333456606 303815519 76607256 385714606 -2107734642 600898737 733151216 -1863304995 438707814 -994520669 1736061564 -1851358910 -31696288 1022298956 -346145618 -580434471 225611912 427851169 -1463151574 -1321099928 1528648087 -811456070 -526604802 263999223 307869992 1402868687 1672334533 1373615103 -1783457773 -1254593353 -1469505165
REM
CELL 1.54180   50.00000   50.00000   50.00000   90.00000   90.00000   90.00000
LATT -1
SFAC C  
C      1  0.5044190000000  0.5135590000000  0.4563170000000 1.0
C      1  0.5044390000000  0.4553920000000  0.5100990000000 1.0
C      1  0.5044230000000  0.5310520000000  0.5335820000000 1.0
C      1  0.5044260000000  0.4864550000000  0.4563140000000 1.0
C      1  0.5044170000000  0.5446070000000  0.5101110000000 1.0
C      1  0.5044380000000  0.4689410000000  0.5335740000000 1.0
C      1  0.5066590000000  0.4479670000000  0.4538800000000 1.0
C      1  0.5066610000000  0.4860780000000  0.5681220000000 1.0
C      1  0.5066320000000  0.5659590000000  0.4779960000000 1.0
C      1  0.5066330000000  0.5520480000000  0.4538940000000 1.0
C      1  0.5066540000000  0.5139070000000  0.5681260000000 1.0
C      1  0.5066650000000  0.4340500000000  0.4779790000000 1.0
C      1  0.4839150000000  0.4667280000000  0.4550200000000 1.0
C      1  0.4839220000000  0.4776740000000  0.5513030000000 1.0
C      1  0.4838970000000  0.5555850000000  0.4936820000000 1.0
C      1  0.4838980000000  0.5332750000000  0.4550290000000 1.0
C      1  0.4839110000000  0.5223040000000  0.5513090000000 1.0
C      1  0.4839250000000  0.4444080000000  0.4936670000000 1.0
C      1  0.5254330000000  0.5150240000000  0.5452880000000 1.0
C      1  0.5254210000000  0.5317200000000  0.4643460000000 1.0
C      1  0.5254430000000  0.4532740000000  0.4903580000000 1.0
C      1  0.5254410000000  0.4849760000000  0.5452840000000 1.0
C      1  0.5254370000000  0.4683020000000  0.4643380000000 1.0
C      1  0.5254190000000  0.5467410000000  0.4903710000000 1.0
C      1  0.4677250000000  0.4592460000000  0.4764720000000 1.0
C      1  0.4677040000000  0.5407430000000  0.4764830000000 1.0
C      1  0.4677220000000  0.4999850000000  0.5470550000000 1.0
END
