TITL C-55545-7217-3 -589.222495028908 125000 -560.456629050856 0 0 81 (C1) n - 1
REM
REM in /rds/project/t2_vol4/rds-t2-cs072/BORA/CARBON/from-Arr/AIRSS/Generating-Clusters/GAP-ML-2020/Higher-Symm/SD-CG/HFTN-CG
REM
REM
REM
REM
REM
REM ./C.cell (b20cbc046b6831c77cfcea5457e17084)
REM AIRSS Version 0.9.1 bugfix July 2018 build 013d7b7c2542+ Fri, 06 Jul 2018 19:26:36 +0100
REM compiler GCC version 9.3.0
REM options -cpp -mtune=generic -march=x86-64 -g -O0
REM seed 1469894984 334764859 135833929 439493633 1058798987 -966008719 968319131 -2141940387 -944299488 1854852585 1055570151 -1309215453 1154213546 -1751787233 -1741519702 161139036 -554142484 -1707605934 420962290 -2116562064 -183463298 -892983425 -1063810504 312241395 -1922568796 -921839154 -1659179106 107077168 183715405 47185119 1347716359 -1517503391 112515671
REM
CELL 1.54180   50.00000   50.00000   50.00000   90.00000   90.00000   90.00000
LATT -1
SFAC C  
C      1  0.4735820000000  0.4184310000000  0.4907290000000 1.0
C      1  0.4181280000000  0.4687620000000  0.4995690000000 1.0
C      1  0.4313790000000  0.5394450000000  0.5048940000000 1.0
C      1  0.4895060000000  0.5820160000000  0.5076140000000 1.0
C      1  0.5598060000000  0.5610030000000  0.5111780000000 1.0
C      1  0.5917490000000  0.4939330000000  0.5230480000000 1.0
C      1  0.5446720000000  0.4376770000000  0.5031070000000 1.0
C      1  0.4966120000000  0.4450390000000  0.5529460000000 1.0
C      1  0.4517250000000  0.4605060000000  0.5565060000000 1.0
C      1  0.4417440000000  0.5085250000000  0.5410600000000 1.0
C      1  0.4720900000000  0.5531180000000  0.5400350000000 1.0
C      1  0.5278970000000  0.5575250000000  0.5456670000000 1.0
C      1  0.5578820000000  0.5173170000000  0.5456790000000 1.0
C      1  0.5445800000000  0.4663790000000  0.5449430000000 1.0
C      1  0.5208620000000  0.5253880000000  0.4844220000000 1.0
C      1  0.5428990000000  0.5176580000000  0.5009640000000 1.0
C      1  0.5530200000000  0.4875300000000  0.4961330000000 1.0
C      1  0.5011400000000  0.4767660000000  0.4840040000000 1.0
C      1  0.4727990000000  0.4722430000000  0.4825640000000 1.0
C      1  0.4595870000000  0.4956310000000  0.4931870000000 1.0
C      1  0.4829290000000  0.5142340000000  0.4978110000000 1.0
C      1  0.4446600000000  0.4877360000000  0.5642440000000 1.0
C      1  0.4567420000000  0.5327340000000  0.5532510000000 1.0
C      1  0.5001070000000  0.5467470000000  0.5485640000000 1.0
C      1  0.5437730000000  0.5388040000000  0.5608250000000 1.0
C      1  0.5535250000000  0.4912590000000  0.5606910000000 1.0
C      1  0.5214480000000  0.4569150000000  0.5617390000000 1.0
C      1  0.4755310000000  0.4531830000000  0.5704490000000 1.0
C      1  0.5639050000000  0.5354370000000  0.4686400000000 1.0
C      1  0.5547010000000  0.4853320000000  0.4657620000000 1.0
C      1  0.5141470000000  0.4559560000000  0.4644130000000 1.0
C      1  0.4608750000000  0.4540650000000  0.4629920000000 1.0
C      1  0.4381690000000  0.5014950000000  0.4711920000000 1.0
C      1  0.4622380000000  0.5482570000000  0.4668510000000 1.0
C      1  0.5150750000000  0.5551400000000  0.4771890000000 1.0
C      1  0.4508940000000  0.5547820000000  0.4936880000000 1.0
C      1  0.5143660000000  0.5735490000000  0.5007620000000 1.0
C      1  0.5672390000000  0.5359940000000  0.5006530000000 1.0
C      1  0.5752150000000  0.4751990000000  0.5121840000000 1.0
C      1  0.5216870000000  0.4368210000000  0.4881560000000 1.0
C      1  0.4519540000000  0.4345410000000  0.4838900000000 1.0
C      1  0.4200110000000  0.4962110000000  0.4949350000000 1.0
C      1  0.4954320000000  0.4298710000000  0.5013840000000 1.0
C      1  0.4379110000000  0.4504660000000  0.5046450000000 1.0
C      1  0.4234960000000  0.5168010000000  0.5172640000000 1.0
C      1  0.4676880000000  0.5669860000000  0.5149500000000 1.0
C      1  0.5357130000000  0.5686690000000  0.5207580000000 1.0
C      1  0.5800740000000  0.5189930000000  0.5255780000000 1.0
C      1  0.5596720000000  0.4516990000000  0.5228150000000 1.0
C      1  0.5322670000000  0.4817410000000  0.5205550000000 1.0
C      1  0.4888180000000  0.4491640000000  0.5242310000000 1.0
C      1  0.4579040000000  0.4591900000000  0.5272540000000 1.0
C      1  0.4599530000000  0.4906770000000  0.5237750000000 1.0
C      1  0.4894240000000  0.4998000000000  0.5234940000000 1.0
C      1  0.5068840000000  0.5175730000000  0.5372940000000 1.0
C      1  0.5335760000000  0.5114340000000  0.5282130000000 1.0
C      1  0.5434690000000  0.5146710000000  0.4319140000000 1.0
C      1  0.5283070000000  0.4901160000000  0.4288970000000 1.0
C      1  0.4834760000000  0.4721050000000  0.4273800000000 1.0
C      1  0.4578940000000  0.4855590000000  0.4306810000000 1.0
C      1  0.4615200000000  0.5137350000000  0.4321430000000 1.0
C      1  0.5012310000000  0.5412890000000  0.4348240000000 1.0
C      1  0.5301070000000  0.5394920000000  0.4357720000000 1.0
C      1  0.5338270000000  0.4975220000000  0.5798270000000 1.0
C      1  0.5144900000000  0.4764270000000  0.5812280000000 1.0
C      1  0.4853890000000  0.4758100000000  0.5851930000000 1.0
C      1  0.4647260000000  0.4966970000000  0.5820310000000 1.0
C      1  0.4723750000000  0.5234280000000  0.5758680000000 1.0
C      1  0.4991530000000  0.5339180000000  0.5752550000000 1.0
C      1  0.5267470000000  0.5251490000000  0.5792020000000 1.0
C      1  0.5402010000000  0.5506940000000  0.4600020000000 1.0
C      1  0.5617700000000  0.5109800000000  0.4538400000000 1.0
C      1  0.5353820000000  0.4714530000000  0.4498030000000 1.0
C      1  0.4878480000000  0.4525590000000  0.4471630000000 1.0
C      1  0.4443310000000  0.4768990000000  0.4529230000000 1.0
C      1  0.4490120000000  0.5254500000000  0.4549650000000 1.0
C      1  0.4900560000000  0.5539150000000  0.4581960000000 1.0
C      1  0.5017200000000  0.4930600000000  0.4201270000000 1.0
C      1  0.5040410000000  0.4753430000000  0.5141290000000 1.0
C      1  0.5017550000000  0.5061610000000  0.4787640000000 1.0
C      1  0.4882870000000  0.5187270000000  0.4237020000000 1.0
END
