TITL C-55566-8485-5 89.1792092352007 125000 -760.048630115492 0 0 109 (S4) n - 1
REM
REM in /rds/project/t2_vol4/rds-t2-cs072/BORA/CARBON/from-Arr/AIRSS/Generating-Clusters/GAP-ML-2020/Higher-Symm/SD-CG/HFTN-CG
REM
REM
REM
REM
REM
REM ./C.cell (b20cbc046b6831c77cfcea5457e17084)
REM AIRSS Version 0.9.1 bugfix July 2018 build 013d7b7c2542+ Fri, 06 Jul 2018 19:26:36 +0100
REM compiler GCC version 9.3.0
REM options -cpp -mtune=generic -march=x86-64 -g -O0
REM seed 1887533421 -509009215 -1110020493 -1995906988 2108383903 -856224914 179572941 1345018929 1180878667 1883475133 1103684415 1294211306 -1796304022 232266214 -395488490 -2123992255 730139479 1659289280 -1362254562 -1947857865 1301554645 -1028763482 -1517255126 723794905 -1146953502 -1249692072 86941858 1948886723 -2142386468 422278479 -1751751244 -1247563920 -1676660948
REM
CELL 1.54180   50.00000   50.00000   50.00000   90.00000   90.00000   90.00000
LATT -1
SFAC C  
C      1  0.5132060000000  0.5936530000000  0.4964550000000 1.0
C      1  0.4060830000000  0.5130380000000  0.5038660000000 1.0
C      1  0.4866990000000  0.4059190000000  0.4964110000000 1.0
C      1  0.5938180000000  0.4865310000000  0.5039030000000 1.0
C      1  0.4824550000000  0.5312700000000  0.4232430000000 1.0
C      1  0.4684650000000  0.4822560000000  0.5770670000000 1.0
C      1  0.5174830000000  0.4683320000000  0.4232380000000 1.0
C      1  0.5314030000000  0.5172830000000  0.5770880000000 1.0
C      1  0.5463620000000  0.5799870000000  0.4598240000000 1.0
C      1  0.4197490000000  0.5461780000000  0.5405120000000 1.0
C      1  0.4535590000000  0.4196000000000  0.4597700000000 1.0
C      1  0.5801360000000  0.4533760000000  0.5405290000000 1.0
C      1  0.4306010000000  0.4536300000000  0.4958520000000 1.0
C      1  0.5461070000000  0.4304330000000  0.5044370000000 1.0
C      1  0.5693040000000  0.5459420000000  0.4959020000000 1.0
C      1  0.4537940000000  0.5691360000000  0.5044440000000 1.0
C      1  0.4623990000000  0.5302630000000  0.5362140000000 1.0
C      1  0.4694750000000  0.4622480000000  0.4640870000000 1.0
C      1  0.5374880000000  0.4692930000000  0.5362180000000 1.0
C      1  0.5304450000000  0.5373370000000  0.4641160000000 1.0
C      1  0.4620170000000  0.5736080000000  0.5336840000000 1.0
C      1  0.4261290000000  0.4618650000000  0.4666160000000 1.0
C      1  0.5378710000000  0.4259490000000  0.5336710000000 1.0
C      1  0.5737890000000  0.5377190000000  0.4666650000000 1.0
C      1  0.5014560000000  0.5726170000000  0.4274160000000 1.0
C      1  0.4271180000000  0.5012590000000  0.5729000000000 1.0
C      1  0.4984800000000  0.4269830000000  0.4273860000000 1.0
C      1  0.5727520000000  0.4982820000000  0.5729330000000 1.0
C      1  0.5395610000000  0.5869780000000  0.4853960000000 1.0
C      1  0.4127590000000  0.5393880000000  0.5149360000000 1.0
C      1  0.4603480000000  0.4125990000000  0.4853430000000 1.0
C      1  0.5871380000000  0.4601760000000  0.5149600000000 1.0
C      1  0.5287570000000  0.5197340000000  0.4410460000000 1.0
C      1  0.4800020000000  0.5285650000000  0.5592840000000 1.0
C      1  0.4711730000000  0.4798610000000  0.4410250000000 1.0
C      1  0.5198750000000  0.4709810000000  0.5592810000000 1.0
C      1  0.4882470000000  0.4222060000000  0.5211450000000 1.0
C      1  0.5775310000000  0.4880900000000  0.4791690000000 1.0
C      1  0.5116460000000  0.5773560000000  0.5211820000000 1.0
C      1  0.4223810000000  0.5114890000000  0.4791390000000 1.0
C      1  0.5008000000000  0.4496400000000  0.5583340000000 1.0
C      1  0.5500970000000  0.5006590000000  0.4419850000000 1.0
C      1  0.4990770000000  0.5499060000000  0.5583550000000 1.0
C      1  0.4498320000000  0.4989350000000  0.4419620000000 1.0
C      1  0.5101340000000  0.4429950000000  0.4105660000000 1.0
C      1  0.5567400000000  0.5099290000000  0.5897570000000 1.0
C      1  0.4898100000000  0.5566120000000  0.4105850000000 1.0
C      1  0.4431220000000  0.4896050000000  0.5897270000000 1.0
C      1  0.5424940000000  0.4733850000000  0.4362410000000 1.0
C      1  0.5263500000000  0.5423000000000  0.5640960000000 1.0
C      1  0.4574380000000  0.5262110000000  0.4362320000000 1.0
C      1  0.4735240000000  0.4572440000000  0.5640660000000 1.0
C      1  0.4507520000000  0.5013660000000  0.4983960000000 1.0
C      1  0.4983710000000  0.4505850000000  0.5019000000000 1.0
C      1  0.5491520000000  0.4982050000000  0.4984180000000 1.0
C      1  0.5015320000000  0.5489840000000  0.5019210000000 1.0
C      1  0.5520670000000  0.4927160000000  0.5278500000000 1.0
C      1  0.5070220000000  0.5519130000000  0.4724900000000 1.0
C      1  0.4478230000000  0.5068430000000  0.5278300000000 1.0
C      1  0.4928940000000  0.4476690000000  0.4724650000000 1.0
C      1  0.5546260000000  0.4453100000000  0.5451620000000 1.0
C      1  0.5544270000000  0.5544790000000  0.4551800000000 1.0
C      1  0.4452570000000  0.5542420000000  0.5451600000000 1.0
C      1  0.4454960000000  0.4451100000000  0.4551330000000 1.0
C      1  0.5353910000000  0.4149550000000  0.4829660000000 1.0
C      1  0.5847820000000  0.5352180000000  0.5173690000000 1.0
C      1  0.4645190000000  0.5846230000000  0.4829850000000 1.0
C      1  0.4151140000000  0.4643460000000  0.5173160000000 1.0
C      1  0.4279070000000  0.4900900000000  0.4591420000000 1.0
C      1  0.5096460000000  0.4277230000000  0.5411450000000 1.0
C      1  0.5720150000000  0.5094970000000  0.4591790000000 1.0
C      1  0.4902390000000  0.5718310000000  0.5411700000000 1.0
C      1  0.4836770000000  0.4750700000000  0.5090790000000 1.0
C      1  0.5246670000000  0.4835150000000  0.4912320000000 1.0
C      1  0.5162220000000  0.5244970000000  0.5090960000000 1.0
C      1  0.4752400000000  0.5160590000000  0.4912280000000 1.0
C      1  0.5132850000000  0.4962290000000  0.5708450000000 1.0
C      1  0.5035100000000  0.5131490000000  0.4294790000000 1.0
C      1  0.4865860000000  0.5033130000000  0.5708400000000 1.0
C      1  0.4964250000000  0.4864500000000  0.4294710000000 1.0
C      1  0.5727520000000  0.5063900000000  0.5444090000000 1.0
C      1  0.4933470000000  0.5726050000000  0.4559400000000 1.0
C      1  0.4271310000000  0.4931620000000  0.5443740000000 1.0
C      1  0.5065760000000  0.4269840000000  0.4559130000000 1.0
C      1  0.5084230000000  0.4061870000000  0.4786760000000 1.0
C      1  0.5935490000000  0.5082470000000  0.5216470000000 1.0
C      1  0.4914900000000  0.5933920000000  0.4787110000000 1.0
C      1  0.4063440000000  0.4913140000000  0.5216010000000 1.0
C      1  0.4524830000000  0.4467000000000  0.5477300000000 1.0
C      1  0.5530370000000  0.4523370000000  0.4525690000000 1.0
C      1  0.5473990000000  0.5528500000000  0.5477730000000 1.0
C      1  0.4468870000000  0.5472530000000  0.4525640000000 1.0
C      1  0.4627540000000  0.5693580000000  0.4590200000000 1.0
C      1  0.4303780000000  0.4625700000000  0.5412800000000 1.0
C      1  0.5371670000000  0.4302300000000  0.4590080000000 1.0
C      1  0.5695060000000  0.5369830000000  0.5413270000000 1.0
C      1  0.4449560000000  0.4278910000000  0.5038630000000 1.0
C      1  0.5718460000000  0.4447910000000  0.4964320000000 1.0
C      1  0.5549460000000  0.5716780000000  0.5039170000000 1.0
C      1  0.4280590000000  0.5547810000000  0.4964220000000 1.0
C      1  0.4282870000000  0.5397320000000  0.4725440000000 1.0
C      1  0.4600040000000  0.4281090000000  0.5277420000000 1.0
C      1  0.5716290000000  0.4598500000000  0.4725600000000 1.0
C      1  0.5398860000000  0.5714500000000  0.5277900000000 1.0
C      1  0.4739020000000  0.5402660000000  0.5076280000000 1.0
C      1  0.4594710000000  0.4737390000000  0.4926770000000 1.0
C      1  0.5259970000000  0.4593010000000  0.5076230000000 1.0
C      1  0.5404360000000  0.5258340000000  0.4927060000000 1.0
C      1  0.4999520000000  0.4997850000000  0.5001590000000 1.0
END
