TITL C-55539-1682-4 -0.124186254116008 125000 -354.011141864264 0 0 53 (C1) n - 1
REM
REM in /rds/project/t2_vol4/rds-t2-cs072/BORA/CARBON/from-Arr/AIRSS/Generating-Clusters/GAP-ML-2020/Higher-Symm/SD-CG/HFTN-CG
REM
REM
REM
REM
REM
REM ./C.cell (b20cbc046b6831c77cfcea5457e17084)
REM AIRSS Version 0.9.1 bugfix July 2018 build 013d7b7c2542+ Fri, 06 Jul 2018 19:26:36 +0100
REM compiler GCC version 9.3.0
REM options -cpp -mtune=generic -march=x86-64 -g -O0
REM seed -1026576188 -1852805203 1167890659 -614767437 -1679688615 1895251223 345604712 552782226 1037368963 1081024077 495153112 1942808030 -853445535 -792662510 235570522 -594952627 2053509949 -1675586132 2020727136 -1944651731 -792591194 1504932072 1188975730 -1864612701 1452483007 1989862212 1206031788 -1032206166 -1778564405 -1089868833 -1647964089 -1288872208 -450072910
REM
CELL 1.54180   50.00000   50.00000   50.00000   90.00000   90.00000   90.00000
LATT -1
SFAC C  
C      1  0.4553500000000  0.5260260000000  0.4469860000000 1.0
C      1  0.4446230000000  0.4803830000000  0.4503270000000 1.0
C      1  0.4744500000000  0.4459080000000  0.4521490000000 1.0
C      1  0.5194680000000  0.4567500000000  0.4495790000000 1.0
C      1  0.5483400000000  0.4954050000000  0.4476010000000 1.0
C      1  0.5421530000000  0.5415920000000  0.4457640000000 1.0
C      1  0.4967970000000  0.5535860000000  0.4458020000000 1.0
C      1  0.4974330000000  0.5548130000000  0.5004990000000 1.0
C      1  0.4579000000000  0.5291100000000  0.5007810000000 1.0
C      1  0.4473420000000  0.4845980000000  0.5060050000000 1.0
C      1  0.4786370000000  0.4504760000000  0.5073600000000 1.0
C      1  0.5242420000000  0.4566340000000  0.5028500000000 1.0
C      1  0.5534890000000  0.4957010000000  0.5014260000000 1.0
C      1  0.5422180000000  0.5413570000000  0.5028310000000 1.0
C      1  0.5432170000000  0.4734050000000  0.5163200000000 1.0
C      1  0.5522120000000  0.5188050000000  0.5179940000000 1.0
C      1  0.5204090000000  0.5521810000000  0.5176410000000 1.0
C      1  0.4750280000000  0.5464840000000  0.5152480000000 1.0
C      1  0.4487090000000  0.5096500000000  0.5192720000000 1.0
C      1  0.4608700000000  0.4658230000000  0.5231230000000 1.0
C      1  0.5040030000000  0.4494320000000  0.5211050000000 1.0
C      1  0.4799210000000  0.4608700000000  0.4791730000000 1.0
C      1  0.5100900000000  0.4665430000000  0.4772450000000 1.0
C      1  0.5396990000000  0.5040260000000  0.4757670000000 1.0
C      1  0.5353380000000  0.5352230000000  0.4749740000000 1.0
C      1  0.5044530000000  0.5425310000000  0.4736970000000 1.0
C      1  0.4658360000000  0.5153750000000  0.4745960000000 1.0
C      1  0.4583030000000  0.4851310000000  0.4780390000000 1.0
C      1  0.4750890000000  0.4779940000000  0.5458740000000 1.0
C      1  0.5041100000000  0.4661240000000  0.5452920000000 1.0
C      1  0.5325060000000  0.4814100000000  0.5424490000000 1.0
C      1  0.5370520000000  0.5135200000000  0.5422870000000 1.0
C      1  0.5147910000000  0.5368960000000  0.5419300000000 1.0
C      1  0.4826730000000  0.5347670000000  0.5414740000000 1.0
C      1  0.4651430000000  0.5081680000000  0.5432580000000 1.0
C      1  0.4989690000000  0.4394590000000  0.4405840000000 1.0
C      1  0.5412560000000  0.4699890000000  0.4389070000000 1.0
C      1  0.5551450000000  0.5195440000000  0.4347500000000 1.0
C      1  0.5217740000000  0.5570730000000  0.4337890000000 1.0
C      1  0.4708330000000  0.5471660000000  0.4375050000000 1.0
C      1  0.4400020000000  0.5048470000000  0.4374180000000 1.0
C      1  0.4500800000000  0.4543870000000  0.4418060000000 1.0
C      1  0.4716560000000  0.4807710000000  0.5774820000000 1.0
C      1  0.5098170000000  0.4646300000000  0.5766640000000 1.0
C      1  0.5319980000000  0.4820120000000  0.5729880000000 1.0
C      1  0.5325870000000  0.5107760000000  0.5721340000000 1.0
C      1  0.5128540000000  0.5315160000000  0.5718000000000 1.0
C      1  0.4843620000000  0.5305970000000  0.5716940000000 1.0
C      1  0.4665550000000  0.5083810000000  0.5736370000000 1.0
C      1  0.4941070000000  0.5157410000000  0.4687360000000 1.0
C      1  0.5018100000000  0.5014380000000  0.5094230000000 1.0
C      1  0.4877220000000  0.4648320000000  0.5931320000000 1.0
C      1  0.5108320000000  0.4963470000000  0.4815450000000 1.0
END
