TITL C-55561-7306-4 -0.10540005435193 125000 -818.287814039887 0 0 117 (C1) n - 1
REM
REM in /rds/project/t2_vol4/rds-t2-cs072/BORA/CARBON/from-Arr/AIRSS/Generating-Clusters/GAP-ML-2020/Higher-Symm/SD-CG/HFTN-CG
REM
REM
REM
REM
REM
REM ./C.cell (b20cbc046b6831c77cfcea5457e17084)
REM AIRSS Version 0.9.1 bugfix July 2018 build 013d7b7c2542+ Fri, 06 Jul 2018 19:26:36 +0100
REM compiler GCC version 9.3.0
REM options -cpp -mtune=generic -march=x86-64 -g -O0
REM seed -37105630 1363487978 1190771174 2056895515 1180589557 -357431996 -755148912 -838131967 -879845794 -319087508 1641218086 2034791637 -35739623 1381903530 -48318265 -1198631711 501956762 261611680 532289828 1650657085 -1801968805 -937859369 990149882 1185941692 -1347908624 -1126268841 1237255786 1154316779 -1071247484 -1539362962 -1347935599 -909340009 -1257382010
REM
CELL 1.54180   50.00000   50.00000   50.00000   90.00000   90.00000   90.00000
LATT -1
SFAC C  
C      1  0.5309850000000  0.4486480000000  0.4204300000000 1.0
C      1  0.5248260000000  0.5487840000000  0.4225490000000 1.0
C      1  0.4492710000000  0.5201250000000  0.5217400000000 1.0
C      1  0.4418780000000  0.4723040000000  0.5082210000000 1.0
C      1  0.5247940000000  0.4560220000000  0.5089520000000 1.0
C      1  0.5234690000000  0.5551440000000  0.5054890000000 1.0
C      1  0.4545700000000  0.4212960000000  0.5320670000000 1.0
C      1  0.4584810000000  0.5763110000000  0.5383450000000 1.0
C      1  0.5580970000000  0.4321560000000  0.4549810000000 1.0
C      1  0.5540490000000  0.5680140000000  0.4523830000000 1.0
C      1  0.5295180000000  0.5220200000000  0.5966650000000 1.0
C      1  0.5381930000000  0.4725890000000  0.5805940000000 1.0
C      1  0.5180060000000  0.4667400000000  0.4627280000000 1.0
C      1  0.5178930000000  0.5194440000000  0.4648280000000 1.0
C      1  0.5312570000000  0.5969670000000  0.4780140000000 1.0
C      1  0.5309980000000  0.4029670000000  0.4747980000000 1.0
C      1  0.4046790000000  0.4740710000000  0.5364610000000 1.0
C      1  0.4086750000000  0.5305180000000  0.5405780000000 1.0
C      1  0.4772470000000  0.4529690000000  0.4365350000000 1.0
C      1  0.4750650000000  0.5381620000000  0.4388600000000 1.0
C      1  0.4609920000000  0.5713230000000  0.4680630000000 1.0
C      1  0.4825240000000  0.4131350000000  0.4641380000000 1.0
C      1  0.5568610000000  0.4511420000000  0.4336790000000 1.0
C      1  0.5519710000000  0.5482660000000  0.4321330000000 1.0
C      1  0.4710590000000  0.4509520000000  0.5612940000000 1.0
C      1  0.4641970000000  0.5506790000000  0.5803580000000 1.0
C      1  0.4165900000000  0.4590460000000  0.5161770000000 1.0
C      1  0.4097700000000  0.5414360000000  0.5131380000000 1.0
C      1  0.4907160000000  0.5317250000000  0.5373430000000 1.0
C      1  0.4820340000000  0.4580380000000  0.5336680000000 1.0
C      1  0.5097210000000  0.4499780000000  0.4841200000000 1.0
C      1  0.5095840000000  0.5342120000000  0.4861770000000 1.0
C      1  0.5234140000000  0.4430850000000  0.5562550000000 1.0
C      1  0.5287950000000  0.5514860000000  0.5574670000000 1.0
C      1  0.4804800000000  0.5645570000000  0.4460510000000 1.0
C      1  0.4884880000000  0.4275200000000  0.4405310000000 1.0
C      1  0.5609610000000  0.5223750000000  0.4858090000000 1.0
C      1  0.5665110000000  0.4778050000000  0.4895830000000 1.0
C      1  0.4894700000000  0.4710750000000  0.4180730000000 1.0
C      1  0.4876420000000  0.5220920000000  0.4191470000000 1.0
C      1  0.4260170000000  0.4617920000000  0.5540120000000 1.0
C      1  0.4266560000000  0.5408930000000  0.5599720000000 1.0
C      1  0.5584020000000  0.5977010000000  0.4857390000000 1.0
C      1  0.5545100000000  0.4043850000000  0.4913880000000 1.0
C      1  0.4727470000000  0.5313630000000  0.5146910000000 1.0
C      1  0.4639330000000  0.4530350000000  0.5081950000000 1.0
C      1  0.5151510000000  0.5237650000000  0.4123290000000 1.0
C      1  0.5176410000000  0.4723010000000  0.4114410000000 1.0
C      1  0.4464640000000  0.5628740000000  0.5594880000000 1.0
C      1  0.4458680000000  0.4403350000000  0.5529580000000 1.0
C      1  0.4862870000000  0.4666880000000  0.5794790000000 1.0
C      1  0.4897270000000  0.5518570000000  0.5869400000000 1.0
C      1  0.5773490000000  0.5207720000000  0.4598720000000 1.0
C      1  0.5802030000000  0.4803860000000  0.4620600000000 1.0
C      1  0.4874340000000  0.5773810000000  0.5330060000000 1.0
C      1  0.4849000000000  0.4162350000000  0.5290880000000 1.0
C      1  0.5362330000000  0.4149360000000  0.4495120000000 1.0
C      1  0.5295310000000  0.5829300000000  0.4520330000000 1.0
C      1  0.4367670000000  0.5548020000000  0.4744760000000 1.0
C      1  0.4161160000000  0.4533230000000  0.4767490000000 1.0
C      1  0.4400490000000  0.4863630000000  0.5570550000000 1.0
C      1  0.4451120000000  0.5280760000000  0.5790480000000 1.0
C      1  0.5673960000000  0.5381560000000  0.5266060000000 1.0
C      1  0.5653320000000  0.4644410000000  0.5358150000000 1.0
C      1  0.5666340000000  0.5241410000000  0.4336980000000 1.0
C      1  0.5688700000000  0.4762480000000  0.4360080000000 1.0
C      1  0.5576880000000  0.4540490000000  0.5065840000000 1.0
C      1  0.5556000000000  0.5488480000000  0.5009830000000 1.0
C      1  0.4454570000000  0.5786770000000  0.5125650000000 1.0
C      1  0.4462090000000  0.4241280000000  0.5036190000000 1.0
C      1  0.5072650000000  0.4421830000000  0.5322010000000 1.0
C      1  0.5093210000000  0.5545610000000  0.5352920000000 1.0
C      1  0.5163450000000  0.5434780000000  0.5831710000000 1.0
C      1  0.5132170000000  0.4584750000000  0.5789120000000 1.0
C      1  0.4647820000000  0.4078750000000  0.4867050000000 1.0
C      1  0.4653390000000  0.5857350000000  0.4927760000000 1.0
C      1  0.4257690000000  0.5612420000000  0.5006760000000 1.0
C      1  0.4192780000000  0.4359610000000  0.4973370000000 1.0
C      1  0.5168220000000  0.4270570000000  0.4329350000000 1.0
C      1  0.5091620000000  0.5687170000000  0.4377160000000 1.0
C      1  0.5160720000000  0.5841150000000  0.4978580000000 1.0
C      1  0.5062760000000  0.4154260000000  0.4830360000000 1.0
C      1  0.5515320000000  0.5365110000000  0.5495030000000 1.0
C      1  0.5485570000000  0.4570290000000  0.5570350000000 1.0
C      1  0.4641360000000  0.4695260000000  0.4608960000000 1.0
C      1  0.4645960000000  0.5201070000000  0.4612420000000 1.0
C      1  0.4823080000000  0.4646270000000  0.4870980000000 1.0
C      1  0.4845400000000  0.5197080000000  0.4908340000000 1.0
C      1  0.4363310000000  0.5273310000000  0.4678430000000 1.0
C      1  0.4336860000000  0.4771030000000  0.4784550000000 1.0
C      1  0.5643610000000  0.5711100000000  0.4809910000000 1.0
C      1  0.5634340000000  0.4298720000000  0.4869090000000 1.0
C      1  0.4882190000000  0.4054040000000  0.5043380000000 1.0
C      1  0.4903110000000  0.5886440000000  0.5072890000000 1.0
C      1  0.5825010000000  0.5121470000000  0.5243280000000 1.0
C      1  0.5427820000000  0.4970110000000  0.4897840000000 1.0
C      1  0.5224810000000  0.4878120000000  0.5111740000000 1.0
C      1  0.4819810000000  0.4950150000000  0.5756340000000 1.0
C      1  0.5953190000000  0.5022250000000  0.4707750000000 1.0
C      1  0.5573030000000  0.4995330000000  0.4226650000000 1.0
C      1  0.4808480000000  0.4870570000000  0.5292780000000 1.0
C      1  0.4662290000000  0.4946630000000  0.4479120000000 1.0
C      1  0.4513620000000  0.4928450000000  0.5286320000000 1.0
C      1  0.5844150000000  0.5026490000000  0.4984530000000 1.0
C      1  0.4545930000000  0.5019890000000  0.5762930000000 1.0
C      1  0.4960060000000  0.5046190000000  0.5485510000000 1.0
C      1  0.4214180000000  0.5064970000000  0.4799760000000 1.0
C      1  0.5233340000000  0.4965870000000  0.5398340000000 1.0
C      1  0.4060530000000  0.5144150000000  0.5024790000000 1.0
C      1  0.5706530000000  0.4925270000000  0.5413610000000 1.0
C      1  0.5306890000000  0.4985770000000  0.4111500000000 1.0
C      1  0.4777910000000  0.4960250000000  0.4232440000000 1.0
C      1  0.4919940000000  0.4905300000000  0.5018710000000 1.0
C      1  0.4026170000000  0.5029850000000  0.5297480000000 1.0
C      1  0.5486860000000  0.5074410000000  0.5550490000000 1.0
C      1  0.5246230000000  0.4931400000000  0.4672560000000 1.0
C      1  0.5410700000000  0.5009770000000  0.5834610000000 1.0
END
