TITL C-55554-7267-2 -0.0390616454112013 125000 -222.227343549819 0 0 33 (C1) n - 1
REM
REM in /rds/project/t2_vol4/rds-t2-cs072/BORA/CARBON/from-Arr/AIRSS/Generating-Clusters/GAP-ML-2020/Higher-Symm/SD-CG/HFTN-CG
REM
REM
REM
REM
REM
REM ./C.cell (b20cbc046b6831c77cfcea5457e17084)
REM AIRSS Version 0.9.1 bugfix July 2018 build 013d7b7c2542+ Fri, 06 Jul 2018 19:26:36 +0100
REM compiler GCC version 9.3.0
REM options -cpp -mtune=generic -march=x86-64 -g -O0
REM seed 513019118 14440224 -961137643 -615335127 -1197619377 -252138782 1468032178 257645509 1460307877 -2075377294 -1531076120 2079851101 1764431797 -1655302164 -2054888129 -498325094 -611453321 -1214717783 708052979 802212386 -1802125153 1216562127 -478312816 -862884577 1913657176 -1311139292 464929357 185397729 1994694163 -2027632617 -1277605127 1694123039 -832190125
REM
CELL 1.54180   50.00000   50.00000   50.00000   90.00000   90.00000   90.00000
LATT -1
SFAC C  
C      1  0.4911670000000  0.5070580000000  0.4504930000000 1.0
C      1  0.5357480000000  0.5124390000000  0.4655050000000 1.0
C      1  0.5642780000000  0.5016180000000  0.5036070000000 1.0
C      1  0.5312990000000  0.5098100000000  0.5385710000000 1.0
C      1  0.4851880000000  0.5011320000000  0.5453160000000 1.0
C      1  0.4482960000000  0.5116180000000  0.5179850000000 1.0
C      1  0.4512230000000  0.5145330000000  0.4729970000000 1.0
C      1  0.4610390000000  0.4900150000000  0.5330390000000 1.0
C      1  0.4372160000000  0.5016320000000  0.4938320000000 1.0
C      1  0.4662870000000  0.4949420000000  0.4574510000000 1.0
C      1  0.5167570000000  0.4950060000000  0.4499470000000 1.0
C      1  0.5523590000000  0.4946320000000  0.4801600000000 1.0
C      1  0.5504120000000  0.4935060000000  0.5254410000000 1.0
C      1  0.5114070000000  0.4906780000000  0.5505440000000 1.0
C      1  0.5206850000000  0.5334460000000  0.4768600000000 1.0
C      1  0.5228630000000  0.5471300000000  0.5026360000000 1.0
C      1  0.5172480000000  0.5311330000000  0.5264130000000 1.0
C      1  0.4894690000000  0.5264570000000  0.5314260000000 1.0
C      1  0.4679320000000  0.5320800000000  0.5130740000000 1.0
C      1  0.4698910000000  0.5341610000000  0.4830030000000 1.0
C      1  0.4938380000000  0.5305670000000  0.4671550000000 1.0
C      1  0.4554110000000  0.4664680000000  0.5183210000000 1.0
C      1  0.4462720000000  0.4730880000000  0.4924580000000 1.0
C      1  0.4609350000000  0.4696290000000  0.4682250000000 1.0
C      1  0.5215850000000  0.4688600000000  0.4559070000000 1.0
C      1  0.5410020000000  0.4681580000000  0.4773070000000 1.0
C      1  0.5403410000000  0.4664680000000  0.5268510000000 1.0
C      1  0.5218910000000  0.4651540000000  0.5485790000000 1.0
C      1  0.5229520000000  0.4300800000000  0.5003740000000 1.0
C      1  0.5368930000000  0.4532730000000  0.5015730000000 1.0
C      1  0.5064470000000  0.5690470000000  0.5023990000000 1.0
C      1  0.5069060000000  0.4109140000000  0.4982080000000 1.0
C      1  0.4870080000000  0.5850670000000  0.5018890000000 1.0
END
