TITL C-55562-7179-6 -0.011636689946943 125000 -973.990398699996 0 0 137 (C1) n - 1
REM
REM in /rds/project/t2_vol4/rds-t2-cs072/BORA/CARBON/from-Arr/AIRSS/Generating-Clusters/GAP-ML-2020/Higher-Symm/SD-CG/HFTN-CG
REM
REM
REM
REM
REM
REM ./C.cell (b20cbc046b6831c77cfcea5457e17084)
REM AIRSS Version 0.9.1 bugfix July 2018 build 013d7b7c2542+ Fri, 06 Jul 2018 19:26:36 +0100
REM compiler GCC version 9.3.0
REM options -cpp -mtune=generic -march=x86-64 -g -O0
REM seed 1932639516 1522368786 1334950505 -1268504768 355987644 2042397553 -7061818 -72428660 1829127377 -237435444 -84313357 -1801136565 559071603 -22696413 472727619 -1802404055 1327917120 1540222132 -479222667 1047562032 1216681103 24133950 -5366675 822792399 -1399207399 -2081424358 1787183869 -514389003 1631994779 -2055985846 67157332 86035963 -1391823407
REM
CELL 1.54180   50.00000   50.00000   50.00000   90.00000   90.00000   90.00000
LATT -1
SFAC C  
C      1  0.4932420000000  0.4779410000000  0.4724360000000 1.0
C      1  0.4771630000000  0.5055470000000  0.4716390000000 1.0
C      1  0.5065440000000  0.5205280000000  0.4721570000000 1.0
C      1  0.5167440000000  0.4950660000000  0.4850030000000 1.0
C      1  0.4891630000000  0.5193570000000  0.5252380000000 1.0
C      1  0.4742340000000  0.4921090000000  0.5285110000000 1.0
C      1  0.5012920000000  0.4750970000000  0.5275620000000 1.0
C      1  0.5323090000000  0.5074340000000  0.5287010000000 1.0
C      1  0.4439960000000  0.4980270000000  0.4203760000000 1.0
C      1  0.4984200000000  0.5547240000000  0.4196380000000 1.0
C      1  0.5546930000000  0.5005620000000  0.4206490000000 1.0
C      1  0.5001330000000  0.4435860000000  0.4201960000000 1.0
C      1  0.4455520000000  0.5023210000000  0.5799920000000 1.0
C      1  0.4982210000000  0.4450320000000  0.5803780000000 1.0
C      1  0.5560970000000  0.4984220000000  0.5807770000000 1.0
C      1  0.5026760000000  0.5551290000000  0.5790530000000 1.0
C      1  0.3950140000000  0.5275420000000  0.4783890000000 1.0
C      1  0.5275960000000  0.6042710000000  0.4771140000000 1.0
C      1  0.6043060000000  0.4714850000000  0.4781030000000 1.0
C      1  0.4713740000000  0.3947480000000  0.4790660000000 1.0
C      1  0.3947170000000  0.4731460000000  0.5226960000000 1.0
C      1  0.5264200000000  0.3954960000000  0.5225240000000 1.0
C      1  0.6059100000000  0.5268270000000  0.5211910000000 1.0
C      1  0.4731950000000  0.6047900000000  0.5211070000000 1.0
C      1  0.4704020000000  0.5462930000000  0.4212680000000 1.0
C      1  0.5465470000000  0.5283910000000  0.4222480000000 1.0
C      1  0.5281810000000  0.4519910000000  0.4215770000000 1.0
C      1  0.4517260000000  0.4697410000000  0.4216450000000 1.0
C      1  0.4704200000000  0.4535230000000  0.5792540000000 1.0
C      1  0.5467870000000  0.4707310000000  0.5787790000000 1.0
C      1  0.5306760000000  0.5468620000000  0.5779060000000 1.0
C      1  0.4544400000000  0.5300370000000  0.5778120000000 1.0
C      1  0.5215920000000  0.4043410000000  0.4777230000000 1.0
C      1  0.4035650000000  0.4771180000000  0.4775300000000 1.0
C      1  0.4771360000000  0.5955220000000  0.4761130000000 1.0
C      1  0.5966900000000  0.5222540000000  0.4761710000000 1.0
C      1  0.5234130000000  0.5951180000000  0.5220840000000 1.0
C      1  0.4046360000000  0.5234970000000  0.5233810000000 1.0
C      1  0.4757290000000  0.4041750000000  0.5241510000000 1.0
C      1  0.5960710000000  0.4763710000000  0.5233290000000 1.0
C      1  0.5427270000000  0.5611900000000  0.5555890000000 1.0
C      1  0.5608240000000  0.4586790000000  0.5564520000000 1.0
C      1  0.4577150000000  0.4389210000000  0.5574170000000 1.0
C      1  0.4394370000000  0.5421750000000  0.5561800000000 1.0
C      1  0.5397110000000  0.4390560000000  0.4445690000000 1.0
C      1  0.5616030000000  0.5407050000000  0.4436980000000 1.0
C      1  0.4585610000000  0.5606450000000  0.4434780000000 1.0
C      1  0.4375470000000  0.4581140000000  0.4441870000000 1.0
C      1  0.5521670000000  0.5116060000000  0.5099350000000 1.0
C      1  0.5072560000000  0.4525640000000  0.5103720000000 1.0
C      1  0.4525170000000  0.4890590000000  0.5098570000000 1.0
C      1  0.4886620000000  0.5442230000000  0.5090230000000 1.0
C      1  0.5461980000000  0.4913920000000  0.4894510000000 1.0
C      1  0.5095560000000  0.5445200000000  0.4892520000000 1.0
C      1  0.4541450000000  0.5091410000000  0.4893100000000 1.0
C      1  0.4883120000000  0.4542330000000  0.4890880000000 1.0
C      1  0.5392410000000  0.4415070000000  0.5100020000000 1.0
C      1  0.4399640000000  0.4589270000000  0.5100070000000 1.0
C      1  0.4590910000000  0.5591560000000  0.5089430000000 1.0
C      1  0.5613680000000  0.5420810000000  0.5085940000000 1.0
C      1  0.5415420000000  0.5587030000000  0.4898390000000 1.0
C      1  0.4408510000000  0.5409170000000  0.4901000000000 1.0
C      1  0.4579020000000  0.4407020000000  0.4906460000000 1.0
C      1  0.5576200000000  0.4600650000000  0.4905860000000 1.0
C      1  0.4987680000000  0.3908100000000  0.5149790000000 1.0
C      1  0.3907350000000  0.5006840000000  0.5145930000000 1.0
C      1  0.5006180000000  0.6087020000000  0.5129780000000 1.0
C      1  0.6098040000000  0.4991390000000  0.5137140000000 1.0
C      1  0.5002190000000  0.6086550000000  0.4851490000000 1.0
C      1  0.3903850000000  0.5001750000000  0.4866740000000 1.0
C      1  0.4989110000000  0.3905600000000  0.4870630000000 1.0
C      1  0.6096670000000  0.4990610000000  0.4857430000000 1.0
C      1  0.4612800000000  0.4119050000000  0.5002150000000 1.0
C      1  0.4122430000000  0.5376750000000  0.4994050000000 1.0
C      1  0.5378520000000  0.5874140000000  0.4984310000000 1.0
C      1  0.5871050000000  0.4622410000000  0.4995100000000 1.0
C      1  0.4626280000000  0.5878590000000  0.4999250000000 1.0
C      1  0.4111170000000  0.4623230000000  0.5012120000000 1.0
C      1  0.5363100000000  0.4124630000000  0.5011010000000 1.0
C      1  0.5899360000000  0.5380530000000  0.4994100000000 1.0
C      1  0.5595120000000  0.4525030000000  0.4606100000000 1.0
C      1  0.4502870000000  0.4380610000000  0.4603720000000 1.0
C      1  0.4385660000000  0.5479470000000  0.4597680000000 1.0
C      1  0.5486120000000  0.5608530000000  0.4595850000000 1.0
C      1  0.5629820000000  0.5486280000000  0.5397790000000 1.0
C      1  0.4522500000000  0.5617930000000  0.5396230000000 1.0
C      1  0.4379490000000  0.4519730000000  0.5410740000000 1.0
C      1  0.5470180000000  0.4390910000000  0.5402970000000 1.0
C      1  0.4217290000000  0.5021840000000  0.4377710000000 1.0
C      1  0.5024320000000  0.5769440000000  0.4370940000000 1.0
C      1  0.5768750000000  0.4966040000000  0.4378290000000 1.0
C      1  0.4962410000000  0.4218390000000  0.4382070000000 1.0
C      1  0.4228720000000  0.4985120000000  0.5629110000000 1.0
C      1  0.5015530000000  0.4222800000000  0.5633910000000 1.0
C      1  0.5783970000000  0.5019450000000  0.5629820000000 1.0
C      1  0.4985890000000  0.5771120000000  0.5613170000000 1.0
C      1  0.4936830000000  0.5188380000000  0.5556990000000 1.0
C      1  0.5212720000000  0.5086140000000  0.5566000000000 1.0
C      1  0.5084340000000  0.4816180000000  0.5574100000000 1.0
C      1  0.4809940000000  0.4920120000000  0.5591790000000 1.0
C      1  0.4917710000000  0.4795530000000  0.4412910000000 1.0
C      1  0.5165970000000  0.4906750000000  0.4339470000000 1.0
C      1  0.5092040000000  0.5170300000000  0.4416970000000 1.0
C      1  0.4800840000000  0.5075380000000  0.4415790000000 1.0
C      1  0.4765500000000  0.4179650000000  0.5492140000000 1.0
C      1  0.4185370000000  0.5230750000000  0.5483420000000 1.0
C      1  0.5231150000000  0.5812020000000  0.5468730000000 1.0
C      1  0.5824780000000  0.4770660000000  0.5485520000000 1.0
C      1  0.4777750000000  0.5813470000000  0.4514260000000 1.0
C      1  0.4171950000000  0.4775990000000  0.4524500000000 1.0
C      1  0.5208410000000  0.4180870000000  0.4528320000000 1.0
C      1  0.5823010000000  0.5214990000000  0.4515880000000 1.0
C      1  0.4705900000000  0.5827630000000  0.5509830000000 1.0
C      1  0.5840860000000  0.5303840000000  0.5516130000000 1.0
C      1  0.5296780000000  0.4173590000000  0.5522530000000 1.0
C      1  0.4168800000000  0.4702740000000  0.5527130000000 1.0
C      1  0.4681930000000  0.4165570000000  0.4488320000000 1.0
C      1  0.5818090000000  0.4689650000000  0.4483850000000 1.0
C      1  0.5305880000000  0.5820710000000  0.4476230000000 1.0
C      1  0.4168290000000  0.5303050000000  0.4482860000000 1.0
C      1  0.5184740000000  0.5346130000000  0.4203650000000 1.0
C      1  0.5348400000000  0.4800040000000  0.4169060000000 1.0
C      1  0.4797330000000  0.4634760000000  0.4200560000000 1.0
C      1  0.4646340000000  0.5179290000000  0.4196950000000 1.0
C      1  0.5182170000000  0.4654800000000  0.5796520000000 1.0
C      1  0.5361930000000  0.5186710000000  0.5795610000000 1.0
C      1  0.4830040000000  0.5348750000000  0.5779060000000 1.0
C      1  0.4653660000000  0.4819020000000  0.5811160000000 1.0
C      1  0.4612420000000  0.3893960000000  0.4543690000000 1.0
C      1  0.3896490000000  0.5376450000000  0.4537080000000 1.0
C      1  0.5378650000000  0.6094070000000  0.4524800000000 1.0
C      1  0.6085680000000  0.4608940000000  0.4533970000000 1.0
C      1  0.4635480000000  0.6101230000000  0.5459630000000 1.0
C      1  0.3895320000000  0.4633290000000  0.5475470000000 1.0
C      1  0.5371140000000  0.3901440000000  0.5469670000000 1.0
C      1  0.6112640000000  0.5370370000000  0.5458060000000 1.0
C      1  0.5095850000000  0.4995630000000  0.5142240000000 1.0
END
