TITL C-55565-7198-1 -37.0232479123377 125000 -338.753153950401 0 0 51 (C1) n - 1
REM
REM in /rds/project/t2_vol4/rds-t2-cs072/BORA/CARBON/from-Arr/AIRSS/Generating-Clusters/GAP-ML-2020/Higher-Symm/SD-CG/HFTN-CG
REM
REM
REM
REM
REM
REM ./C.cell (b20cbc046b6831c77cfcea5457e17084)
REM AIRSS Version 0.9.1 bugfix July 2018 build 013d7b7c2542+ Fri, 06 Jul 2018 19:26:36 +0100
REM compiler GCC version 9.3.0
REM options -cpp -mtune=generic -march=x86-64 -g -O0
REM seed -1928346167 1642339213 1254010038 -1983086982 861556806 -1708641709 -348002627 208363988 -1811824608 -185102083 1875293266 906694185 2063569481 -1822365081 1145664330 -2113924667 -1525722061 -1778112267 -274462370 -1151455642 -2108840243 -1836771606 -1797971389 1916962004 -879233240 1666111007 -49964479 -1057853481 -1526196727 -2026276924 659716690 930983758 -153930676
REM
CELL 1.54180   50.00000   50.00000   50.00000   90.00000   90.00000   90.00000
LATT -1
SFAC C  
C      1  0.5342760000000  0.4979060000000  0.4569460000000 1.0
C      1  0.5356140000000  0.4661900000000  0.5194480000000 1.0
C      1  0.5433530000000  0.5419750000000  0.5157280000000 1.0
C      1  0.4623340000000  0.4843640000000  0.4659590000000 1.0
C      1  0.4613230000000  0.4483720000000  0.5202000000000 1.0
C      1  0.4634960000000  0.5489620000000  0.5231460000000 1.0
C      1  0.5112180000000  0.5164830000000  0.4177740000000 1.0
C      1  0.5258900000000  0.4206060000000  0.5299090000000 1.0
C      1  0.5113080000000  0.5566930000000  0.5455750000000 1.0
C      1  0.4908130000000  0.5160410000000  0.4368360000000 1.0
C      1  0.5010350000000  0.4267020000000  0.5208650000000 1.0
C      1  0.4930350000000  0.5752480000000  0.5530070000000 1.0
C      1  0.4804310000000  0.5714160000000  0.5299680000000 1.0
C      1  0.4745250000000  0.4920710000000  0.4410810000000 1.0
C      1  0.4790180000000  0.4339300000000  0.5373880000000 1.0
C      1  0.5309780000000  0.5646180000000  0.5263600000000 1.0
C      1  0.5234110000000  0.4966780000000  0.4301040000000 1.0
C      1  0.5283440000000  0.4460540000000  0.5378200000000 1.0
C      1  0.5138660000000  0.4685040000000  0.4254860000000 1.0
C      1  0.5153570000000  0.4567030000000  0.5622370000000 1.0
C      1  0.5200890000000  0.5811680000000  0.5037420000000 1.0
C      1  0.4851550000000  0.4668170000000  0.4289160000000 1.0
C      1  0.4862890000000  0.4509360000000  0.5616170000000 1.0
C      1  0.4913670000000  0.5840030000000  0.5056470000000 1.0
C      1  0.5011410000000  0.4878400000000  0.4992350000000 1.0
C      1  0.4934630000000  0.4808030000000  0.5259230000000 1.0
C      1  0.5161010000000  0.5116200000000  0.5010630000000 1.0
C      1  0.4724050000000  0.4993200000000  0.4899410000000 1.0
C      1  0.4689970000000  0.4985330000000  0.5209140000000 1.0
C      1  0.4961170000000  0.5326900000000  0.5056520000000 1.0
C      1  0.4651620000000  0.4685230000000  0.5622050000000 1.0
C      1  0.4734330000000  0.5753780000000  0.4866210000000 1.0
C      1  0.4716330000000  0.4464430000000  0.4421700000000 1.0
C      1  0.5289360000000  0.4805860000000  0.5616540000000 1.0
C      1  0.5331250000000  0.5707440000000  0.4808680000000 1.0
C      1  0.5288480000000  0.4540870000000  0.4432560000000 1.0
C      1  0.4623590000000  0.4550890000000  0.4671720000000 1.0
C      1  0.4580070000000  0.4748920000000  0.5351700000000 1.0
C      1  0.4618440000000  0.5511290000000  0.4935170000000 1.0
C      1  0.5308980000000  0.4704350000000  0.4663450000000 1.0
C      1  0.5386740000000  0.4899080000000  0.5369150000000 1.0
C      1  0.5405460000000  0.5446560000000  0.4856510000000 1.0
C      1  0.5251620000000  0.5210570000000  0.4735880000000 1.0
C      1  0.5197840000000  0.4639660000000  0.4930760000000 1.0
C      1  0.5300680000000  0.5166020000000  0.5273320000000 1.0
C      1  0.4772600000000  0.5276110000000  0.4825700000000 1.0
C      1  0.4705920000000  0.4446040000000  0.4926080000000 1.0
C      1  0.4786020000000  0.5242900000000  0.5298900000000 1.0
C      1  0.4970760000000  0.5287410000000  0.4615010000000 1.0
C      1  0.5063240000000  0.5283370000000  0.5439780000000 1.0
C      1  0.4989090000000  0.4396780000000  0.4954250000000 1.0
END
