TITL C-55558-7213-5 5.02072372511096 125000 -777.730106929395 0 0 108 (C1) n - 1
REM
REM in /rds/project/t2_vol4/rds-t2-cs072/BORA/CARBON/from-Arr/AIRSS/Generating-Clusters/GAP-ML-2020/Higher-Symm/SD-CG/HFTN-CG
REM
REM
REM
REM
REM
REM ./C.cell (b20cbc046b6831c77cfcea5457e17084)
REM AIRSS Version 0.9.1 bugfix July 2018 build 013d7b7c2542+ Fri, 06 Jul 2018 19:26:36 +0100
REM compiler GCC version 9.3.0
REM options -cpp -mtune=generic -march=x86-64 -g -O0
REM seed 852265294 911281699 -213819123 1949934145 15726068 -141459784 -936687297 -1389588832 1842798496 -218010667 1600697327 -1763738319 -200371268 -1504967634 57686516 1498852017 -1346503106 -868126964 1863225723 -969864364 1373576509 1241313880 811311344 782113266 -1968759729 460914846 506373621 -99628965 -123553795 -1699574662 1545858727 645512048 -1238071352
REM
CELL 1.54180   50.00000   50.00000   50.00000   90.00000   90.00000   90.00000
LATT -1
SFAC C  
C      1  0.5340790000000  0.4576690000000  0.4333460000000 1.0
C      1  0.5203080000000  0.5572810000000  0.4335430000000 1.0
C      1  0.4486400000000  0.4886500000000  0.4326590000000 1.0
C      1  0.4474360000000  0.4247530000000  0.4779610000000 1.0
C      1  0.5877120000000  0.4934560000000  0.4756420000000 1.0
C      1  0.4621000000000  0.5824010000000  0.4771850000000 1.0
C      1  0.4659320000000  0.4671400000000  0.4245670000000 1.0
C      1  0.5352810000000  0.4865650000000  0.4271060000000 1.0
C      1  0.4947640000000  0.5457440000000  0.4258540000000 1.0
C      1  0.4958550000000  0.5551430000000  0.5712070000000 1.0
C      1  0.4540990000000  0.4691820000000  0.5709530000000 1.0
C      1  0.5498380000000  0.4759090000000  0.5704360000000 1.0
C      1  0.5018490000000  0.5867550000000  0.4646970000000 1.0
C      1  0.4266740000000  0.4585490000000  0.4631070000000 1.0
C      1  0.5702290000000  0.4579650000000  0.4623490000000 1.0
C      1  0.5605090000000  0.5295290000000  0.4422570000000 1.0
C      1  0.4503520000000  0.5373830000000  0.4412510000000 1.0
C      1  0.4923730000000  0.4311360000000  0.4422440000000 1.0
C      1  0.4485820000000  0.4745590000000  0.4989020000000 1.0
C      1  0.5472760000000  0.4680340000000  0.4991060000000 1.0
C      1  0.5047450000000  0.5577150000000  0.4996050000000 1.0
C      1  0.5049290000000  0.5299520000000  0.4782440000000 1.0
C      1  0.4730130000000  0.4881610000000  0.4775410000000 1.0
C      1  0.5240310000000  0.4811360000000  0.4788020000000 1.0
C      1  0.5402560000000  0.5405670000000  0.4290790000000 1.0
C      1  0.4608540000000  0.5138120000000  0.4289560000000 1.0
C      1  0.5084020000000  0.4491460000000  0.4276710000000 1.0
C      1  0.4880380000000  0.5849070000000  0.4919860000000 1.0
C      1  0.4335020000000  0.4476170000000  0.4913790000000 1.0
C      1  0.5776350000000  0.4694310000000  0.4900090000000 1.0
C      1  0.5040210000000  0.4714020000000  0.5754330000000 1.0
C      1  0.5228300000000  0.5177660000000  0.5754980000000 1.0
C      1  0.4732810000000  0.5108470000000  0.5753720000000 1.0
C      1  0.4368150000000  0.5381460000000  0.5399270000000 1.0
C      1  0.4982590000000  0.4257350000000  0.5409820000000 1.0
C      1  0.5652000000000  0.5359730000000  0.5411350000000 1.0
C      1  0.5809560000000  0.4638690000000  0.5398350000000 1.0
C      1  0.4904750000000  0.5888100000000  0.5416210000000 1.0
C      1  0.4277440000000  0.4481210000000  0.5410240000000 1.0
C      1  0.4929250000000  0.4711400000000  0.4178900000000 1.0
C      1  0.5077380000000  0.4951660000000  0.4189900000000 1.0
C      1  0.4893510000000  0.5179120000000  0.4211060000000 1.0
C      1  0.4354410000000  0.4882020000000  0.5597450000000 1.0
C      1  0.5427260000000  0.4502160000000  0.5595470000000 1.0
C      1  0.5217130000000  0.5621160000000  0.5605760000000 1.0
C      1  0.4655140000000  0.4414830000000  0.4367030000000 1.0
C      1  0.5587170000000  0.5007710000000  0.4356080000000 1.0
C      1  0.4711370000000  0.5572750000000  0.4362610000000 1.0
C      1  0.5919960000000  0.4736440000000  0.5162390000000 1.0
C      1  0.4765630000000  0.5938860000000  0.5179900000000 1.0
C      1  0.4304130000000  0.4331780000000  0.5177710000000 1.0
C      1  0.5252740000000  0.5103860000000  0.4841660000000 1.0
C      1  0.4798090000000  0.5160040000000  0.4843180000000 1.0
C      1  0.4968100000000  0.4727350000000  0.4835370000000 1.0
C      1  0.5042000000000  0.4184260000000  0.4657150000000 1.0
C      1  0.5667420000000  0.5459820000000  0.4663120000000 1.0
C      1  0.4313170000000  0.5349800000000  0.4636340000000 1.0
C      1  0.5807080000000  0.5391230000000  0.4911910000000 1.0
C      1  0.4280810000000  0.5503310000000  0.4891640000000 1.0
C      1  0.4921820000000  0.4097580000000  0.4913120000000 1.0
C      1  0.5473700000000  0.4432610000000  0.4551190000000 1.0
C      1  0.5257030000000  0.5740030000000  0.4570630000000 1.0
C      1  0.4288090000000  0.4855210000000  0.4543170000000 1.0
C      1  0.4232770000000  0.5343640000000  0.5126530000000 1.0
C      1  0.5085310000000  0.4148500000000  0.5144620000000 1.0
C      1  0.5691280000000  0.5506920000000  0.5148700000000 1.0
C      1  0.4751210000000  0.5705080000000  0.5579310000000 1.0
C      1  0.4509180000000  0.4436030000000  0.5579250000000 1.0
C      1  0.5735130000000  0.4859650000000  0.5570550000000 1.0
C      1  0.5334730000000  0.4222040000000  0.5012390000000 1.0
C      1  0.5507710000000  0.5695360000000  0.5027430000000 1.0
C      1  0.4171680000000  0.5091590000000  0.4997500000000 1.0
C      1  0.4681480000000  0.4752110000000  0.5212590000000 1.0
C      1  0.5371500000000  0.4846410000000  0.5219940000000 1.0
C      1  0.4952000000000  0.5403130000000  0.5217050000000 1.0
C      1  0.5805550000000  0.5115150000000  0.5433980000000 1.0
C      1  0.4496830000000  0.5637290000000  0.5435190000000 1.0
C      1  0.4695020000000  0.4245490000000  0.5442110000000 1.0
C      1  0.5757670000000  0.4842520000000  0.4510770000000 1.0
C      1  0.4759180000000  0.5797010000000  0.4525180000000 1.0
C      1  0.4432030000000  0.4370940000000  0.4526940000000 1.0
C      1  0.5131360000000  0.4501980000000  0.5539190000000 1.0
C      1  0.5366480000000  0.5365840000000  0.5543100000000 1.0
C      1  0.4503910000000  0.5134120000000  0.5536470000000 1.0
C      1  0.5932180000000  0.5142820000000  0.4940800000000 1.0
C      1  0.4413350000000  0.5744960000000  0.4943440000000 1.0
C      1  0.4643410000000  0.4105740000000  0.4955330000000 1.0
C      1  0.5264910000000  0.4896330000000  0.5786270000000 1.0
C      1  0.4957780000000  0.5280130000000  0.5790130000000 1.0
C      1  0.4778000000000  0.4823320000000  0.5789530000000 1.0
C      1  0.4684340000000  0.5023220000000  0.5304010000000 1.0
C      1  0.5135960000000  0.4707340000000  0.5303830000000 1.0
C      1  0.5188690000000  0.5270460000000  0.5305520000000 1.0
C      1  0.4765800000000  0.5215170000000  0.5121220000000 1.0
C      1  0.4932590000000  0.4672330000000  0.5117090000000 1.0
C      1  0.5314010000000  0.5103810000000  0.5122240000000 1.0
C      1  0.5510370000000  0.4395120000000  0.5128780000000 1.0
C      1  0.5270300000000  0.5758800000000  0.5145230000000 1.0
C      1  0.4223300000000  0.4857680000000  0.5126930000000 1.0
C      1  0.5945520000000  0.5022230000000  0.5198680000000 1.0
C      1  0.4505440000000  0.5810650000000  0.5206410000000 1.0
C      1  0.4539890000000  0.4164480000000  0.5214110000000 1.0
C      1  0.5309390000000  0.4257090000000  0.4718960000000 1.0
C      1  0.5485090000000  0.5663780000000  0.4734430000000 1.0
C      1  0.4229230000000  0.5088280000000  0.4704370000000 1.0
C      1  0.4205200000000  0.4755340000000  0.5391280000000 1.0
C      1  0.5611750000000  0.4436500000000  0.5389650000000 1.0
C      1  0.5180370000000  0.5819450000000  0.5405560000000 1.0
END
