TITL C-55539-1682-6 398.193348545966 125000 -941.884649843222 0 0 130 (C1) n - 1
REM
REM in /rds/project/t2_vol4/rds-t2-cs072/BORA/CARBON/from-Arr/AIRSS/Generating-Clusters/GAP-ML-2020/Higher-Symm/SD-CG/HFTN-CG
REM
REM
REM
REM
REM
REM ./C.cell (b20cbc046b6831c77cfcea5457e17084)
REM AIRSS Version 0.9.1 bugfix July 2018 build 013d7b7c2542+ Fri, 06 Jul 2018 19:26:36 +0100
REM compiler GCC version 9.3.0
REM options -cpp -mtune=generic -march=x86-64 -g -O0
REM seed -1912355845 -1025774468 -483297334 1508593538 1924680470 -1490386183 878379904 335041480 1183859512 391920354 -1503662811 1745019082 1195246643 -1266434868 -1469246321 -1945635263 -2103934771 853446648 -456938003 -418016557 781354574 -1869537125 1979462919 -841346139 -618843891 -1050603080 837894984 1363629733 -255815337 224813824 547178573 299529606 282527523
REM
CELL 1.54180   50.00000   50.00000   50.00000   90.00000   90.00000   90.00000
LATT -1
SFAC C  
C      1  0.4904480000000  0.5190600000000  0.4657430000000 1.0
C      1  0.4776280000000  0.5231650000000  0.5245640000000 1.0
C      1  0.5346520000000  0.5212350000000  0.5068980000000 1.0
C      1  0.5321150000000  0.4975260000000  0.4618190000000 1.0
C      1  0.5189820000000  0.5066590000000  0.5481210000000 1.0
C      1  0.4498110000000  0.5039740000000  0.4918190000000 1.0
C      1  0.5136800000000  0.4539180000000  0.4835690000000 1.0
C      1  0.4708750000000  0.4538120000000  0.5006250000000 1.0
C      1  0.5119900000000  0.4552040000000  0.5290520000000 1.0
C      1  0.4883890000000  0.4428190000000  0.4800610000000 1.0
C      1  0.5286580000000  0.4455380000000  0.5060990000000 1.0
C      1  0.4833810000000  0.4445390000000  0.5259880000000 1.0
C      1  0.5004200000000  0.6052490000000  0.4729680000000 1.0
C      1  0.4771870000000  0.6038760000000  0.5151230000000 1.0
C      1  0.5253450000000  0.6046490000000  0.5135160000000 1.0
C      1  0.5247730000000  0.6065400000000  0.4859710000000 1.0
C      1  0.5016910000000  0.6060200000000  0.5277640000000 1.0
C      1  0.4769270000000  0.6055550000000  0.4875590000000 1.0
C      1  0.4850460000000  0.3952970000000  0.5407850000000 1.0
C      1  0.5408750000000  0.3989110000000  0.4932690000000 1.0
C      1  0.4716520000000  0.3985480000000  0.4667130000000 1.0
C      1  0.5146930000000  0.3960190000000  0.5426430000000 1.0
C      1  0.4556270000000  0.3957060000000  0.4919670000000 1.0
C      1  0.5276110000000  0.3996090000000  0.4659370000000 1.0
C      1  0.4433840000000  0.5539160000000  0.5551570000000 1.0
C      1  0.5777390000000  0.5570550000000  0.5254810000000 1.0
C      1  0.4845940000000  0.5575470000000  0.4224020000000 1.0
C      1  0.5648280000000  0.5579060000000  0.5513370000000 1.0
C      1  0.4270200000000  0.5547770000000  0.5311080000000 1.0
C      1  0.5134620000000  0.5575610000000  0.4212630000000 1.0
C      1  0.4655470000000  0.4437850000000  0.5499800000000 1.0
C      1  0.5585770000000  0.4477230000000  0.5045880000000 1.0
C      1  0.4707700000000  0.4445630000000  0.4407850000000 1.0
C      1  0.5289810000000  0.4471770000000  0.5533190000000 1.0
C      1  0.4408090000000  0.4433760000000  0.5023280000000 1.0
C      1  0.5284740000000  0.4431130000000  0.4388710000000 1.0
C      1  0.5156980000000  0.4192290000000  0.4496570000000 1.0
C      1  0.4492800000000  0.4152960000000  0.5106800000000 1.0
C      1  0.5327780000000  0.4172480000000  0.5414250000000 1.0
C      1  0.4852970000000  0.4235360000000  0.4569970000000 1.0
C      1  0.5412990000000  0.4201630000000  0.5129580000000 1.0
C      1  0.4691730000000  0.4180040000000  0.5324850000000 1.0
C      1  0.5141600000000  0.3744910000000  0.4735000000000 1.0
C      1  0.4714330000000  0.3718960000000  0.4991600000000 1.0
C      1  0.5148830000000  0.3726230000000  0.5242480000000 1.0
C      1  0.4866240000000  0.3749630000000  0.4737260000000 1.0
C      1  0.5280070000000  0.3740460000000  0.5000230000000 1.0
C      1  0.4853860000000  0.3721960000000  0.5230150000000 1.0
C      1  0.5430510000000  0.5771460000000  0.5500820000000 1.0
C      1  0.5238610000000  0.5760660000000  0.4406610000000 1.0
C      1  0.4377640000000  0.5744070000000  0.5123860000000 1.0
C      1  0.4633530000000  0.5748640000000  0.5528240000000 1.0
C      1  0.4755500000000  0.5764310000000  0.4421960000000 1.0
C      1  0.5651440000000  0.5757370000000  0.5074300000000 1.0
C      1  0.5883050000000  0.4958610000000  0.4896640000000 1.0
C      1  0.4458040000000  0.4973280000000  0.4285490000000 1.0
C      1  0.4658680000000  0.4770700000000  0.5813390000000 1.0
C      1  0.4187990000000  0.4976520000000  0.4908860000000 1.0
C      1  0.5531620000000  0.4981240000000  0.4244220000000 1.0
C      1  0.5326370000000  0.5012940000000  0.5765140000000 1.0
C      1  0.4797060000000  0.5393630000000  0.4827170000000 1.0
C      1  0.4993320000000  0.5420820000000  0.5240320000000 1.0
C      1  0.5249320000000  0.5381750000000  0.4861340000000 1.0
C      1  0.5188260000000  0.5234040000000  0.4623650000000 1.0
C      1  0.5237000000000  0.5295760000000  0.5321520000000 1.0
C      1  0.4609030000000  0.5282710000000  0.5015130000000 1.0
C      1  0.4421030000000  0.4806150000000  0.5661280000000 1.0
C      1  0.5855220000000  0.4866440000000  0.5171740000000 1.0
C      1  0.4706840000000  0.4877160000000  0.4166240000000 1.0
C      1  0.5567700000000  0.4881990000000  0.5652590000000 1.0
C      1  0.4160720000000  0.4857730000000  0.5179050000000 1.0
C      1  0.5272710000000  0.4880070000000  0.4144490000000 1.0
C      1  0.4300840000000  0.4513370000000  0.4754890000000 1.0
C      1  0.5085830000000  0.4585580000000  0.5751150000000 1.0
C      1  0.5522450000000  0.4535530000000  0.4504490000000 1.0
C      1  0.5668520000000  0.4528460000000  0.4766500000000 1.0
C      1  0.4804330000000  0.4542490000000  0.5726630000000 1.0
C      1  0.4450510000000  0.4526630000000  0.4498000000000 1.0
C      1  0.5698430000000  0.4638580000000  0.5258240000000 1.0
C      1  0.4849350000000  0.4636630000000  0.4243570000000 1.0
C      1  0.4408050000000  0.4589570000000  0.5479330000000 1.0
C      1  0.4274320000000  0.4604610000000  0.5233690000000 1.0
C      1  0.5139170000000  0.4637040000000  0.4238260000000 1.0
C      1  0.5548480000000  0.4641000000000  0.5506120000000 1.0
C      1  0.5200970000000  0.5496590000000  0.5828340000000 1.0
C      1  0.5632970000000  0.5457710000000  0.4444160000000 1.0
C      1  0.4210280000000  0.5466730000000  0.4748790000000 1.0
C      1  0.4909130000000  0.5473640000000  0.5828370000000 1.0
C      1  0.4361600000000  0.5458870000000  0.4493660000000 1.0
C      1  0.5782750000000  0.5448160000000  0.4701630000000 1.0
C      1  0.5399570000000  0.5298140000000  0.5825900000000 1.0
C      1  0.5529080000000  0.5274120000000  0.4248680000000 1.0
C      1  0.4111810000000  0.5271600000000  0.4930870000000 1.0
C      1  0.4731570000000  0.5250840000000  0.5837000000000 1.0
C      1  0.4459850000000  0.5268460000000  0.4300610000000 1.0
C      1  0.5889760000000  0.5252720000000  0.4887030000000 1.0
C      1  0.5893610000000  0.5333180000000  0.5164410000000 1.0
C      1  0.4701000000000  0.5344960000000  0.4159920000000 1.0
C      1  0.4475140000000  0.5295420000000  0.5697500000000 1.0
C      1  0.4136590000000  0.5320950000000  0.5213670000000 1.0
C      1  0.5276050000000  0.5348130000000  0.4130520000000 1.0
C      1  0.5633870000000  0.5348600000000  0.5674680000000 1.0
C      1  0.4711370000000  0.4849220000000  0.4976000000000 1.0
C      1  0.5099090000000  0.4865470000000  0.5282340000000 1.0
C      1  0.5155500000000  0.4829200000000  0.4801700000000 1.0
C      1  0.5263700000000  0.4942860000000  0.5045970000000 1.0
C      1  0.4829060000000  0.4952400000000  0.5233120000000 1.0
C      1  0.4877510000000  0.4925040000000  0.4752050000000 1.0
C      1  0.4832600000000  0.4978270000000  0.5883520000000 1.0
C      1  0.5787660000000  0.4781820000000  0.4702540000000 1.0
C      1  0.4327000000000  0.4780960000000  0.4442520000000 1.0
C      1  0.5101270000000  0.4853420000000  0.5861170000000 1.0
C      1  0.4183190000000  0.4770830000000  0.4699550000000 1.0
C      1  0.5587420000000  0.4823510000000  0.4480090000000 1.0
C      1  0.4175190000000  0.5078410000000  0.5359820000000 1.0
C      1  0.5736330000000  0.5100630000000  0.5575630000000 1.0
C      1  0.5125870000000  0.5109800000000  0.4067630000000 1.0
C      1  0.5873150000000  0.5098770000000  0.5333030000000 1.0
C      1  0.4327520000000  0.5067380000000  0.5600010000000 1.0
C      1  0.4846920000000  0.5109130000000  0.4080200000000 1.0
C      1  0.5193790000000  0.5736400000000  0.5663950000000 1.0
C      1  0.5499200000000  0.5708210000000  0.4526040000000 1.0
C      1  0.4350910000000  0.5708180000000  0.4834710000000 1.0
C      1  0.4884610000000  0.5718690000000  0.5670600000000 1.0
C      1  0.4505990000000  0.5706730000000  0.4567600000000 1.0
C      1  0.5657050000000  0.5701380000000  0.4788800000000 1.0
C      1  0.5000180000000  0.5897820000000  0.4495640000000 1.0
C      1  0.5465530000000  0.5897720000000  0.5245810000000 1.0
C      1  0.4572240000000  0.5883610000000  0.5279670000000 1.0
C      1  0.5016370000000  0.5520980000000  0.4967940000000 1.0
END
