TITL C-55565-7198-8 -0.0352661572439018 125000 -183.53998867285 0 0 28 (C3) n - 1
REM
REM in /rds/project/t2_vol4/rds-t2-cs072/BORA/CARBON/from-Arr/AIRSS/Generating-Clusters/GAP-ML-2020/Higher-Symm/SD-CG/HFTN-CG
REM
REM
REM
REM
REM
REM ./C.cell (b20cbc046b6831c77cfcea5457e17084)
REM AIRSS Version 0.9.1 bugfix July 2018 build 013d7b7c2542+ Fri, 06 Jul 2018 19:26:36 +0100
REM compiler GCC version 9.3.0
REM options -cpp -mtune=generic -march=x86-64 -g -O0
REM seed -1344835758 1180381442 -660803120 70101318 1307448089 1013624537 -381340852 1525522864 -1770018950 -882480520 -1166002582 -1939829035 -21578470 396226255 369842695 979687777 798203461 1311129764 -122567029 902076274 1409826520 1859281676 -1918751579 894325650 -1474620511 -1805922360 -1814562635 1219213311 273772831 1317320099 -1689895640 2053709492 1758707122
REM
CELL 1.54180   50.00000   50.00000   50.00000   90.00000   90.00000   90.00000
LATT -1
SFAC C  
C      1  0.4532740000000  0.5111320000000  0.5544660000000 1.0
C      1  0.4752880000000  0.5111330000000  0.4318600000000 1.0
C      1  0.5704610000000  0.5111320000000  0.5122280000000 1.0
C      1  0.4532740000000  0.5111330000000  0.4445700000000 1.0
C      1  0.4752880000000  0.5111320000000  0.5671760000000 1.0
C      1  0.5704610000000  0.5111320000000  0.4868080000000 1.0
C      1  0.5001160000000  0.5245220000000  0.5280390000000 1.0
C      1  0.4747540000000  0.5245220000000  0.4856400000000 1.0
C      1  0.5241530000000  0.5245220000000  0.4848750000000 1.0
C      1  0.5001160000000  0.5245220000000  0.4709970000000 1.0
C      1  0.4747540000000  0.5245220000000  0.5133960000000 1.0
C      1  0.5241530000000  0.5245220000000  0.5141610000000 1.0
C      1  0.5368400000000  0.4858130000000  0.4627290000000 1.0
C      1  0.5129520000000  0.4858120000000  0.5500980000000 1.0
C      1  0.4492320000000  0.4858130000000  0.4857260000000 1.0
C      1  0.5368400000000  0.4858120000000  0.5363070000000 1.0
C      1  0.5129520000000  0.4858130000000  0.4489370000000 1.0
C      1  0.4492320000000  0.4858120000000  0.5133090000000 1.0
C      1  0.5470590000000  0.5105590000000  0.5267870000000 1.0
C      1  0.4523670000000  0.5105590000000  0.5269200000000 1.0
C      1  0.4995980000000  0.5105600000000  0.4448470000000 1.0
C      1  0.5470590000000  0.5105600000000  0.4722490000000 1.0
C      1  0.4523670000000  0.5105600000000  0.4721160000000 1.0
C      1  0.4995980000000  0.5105590000000  0.5541880000000 1.0
C      1  0.4707960000000  0.4729830000000  0.4995180000000 1.0
C      1  0.5141140000000  0.4729830000000  0.4745080000000 1.0
C      1  0.5141140000000  0.4729830000000  0.5245270000000 1.0
C      1  0.4996740000000  0.4695280000000  0.4995170000000 1.0
END
