TITL C-55543-7330-7 97.8494525262828 125000 -1055.52788852405 0 0 149 (Cs) n - 1
REM
REM in /rds/project/t2_vol4/rds-t2-cs072/BORA/CARBON/from-Arr/AIRSS/Generating-Clusters/GAP-ML-2020/Higher-Symm/SD-CG/HFTN-CG
REM
REM
REM
REM
REM
REM ./C.cell (b20cbc046b6831c77cfcea5457e17084)
REM AIRSS Version 0.9.1 bugfix July 2018 build 013d7b7c2542+ Fri, 06 Jul 2018 19:26:36 +0100
REM compiler GCC version 9.3.0
REM options -cpp -mtune=generic -march=x86-64 -g -O0
REM seed -1440404540 -2033635502 1313319254 -1332709956 -984377662 1687394459 -442395306 331954662 -274967511 -1223973984 -2086907026 -199888261 456200889 79121826 805368062 -1915109113 1776755877 759066281 -1175334784 869088431 -1347280854 -620832727 -1230010544 -1369592264 -97983548 1924322753 -269861243 -1352304320 -985878981 -646562231 1451087178 1600982730 505774589
REM
CELL 1.54180   50.00000   50.00000   50.00000   90.00000   90.00000   90.00000
LATT -1
SFAC C  
C      1  0.4608230000000  0.4969620000000  0.4506210000000 1.0
C      1  0.4608200000000  0.4969680000000  0.5499730000000 1.0
C      1  0.5039290000000  0.5012840000000  0.4856510000000 1.0
C      1  0.5039280000000  0.5012860000000  0.5149450000000 1.0
C      1  0.4338370000000  0.4403070000000  0.5268940000000 1.0
C      1  0.4338380000000  0.4403040000000  0.4737060000000 1.0
C      1  0.3924220000000  0.4724750000000  0.4619310000000 1.0
C      1  0.3924200000000  0.4724800000000  0.5386630000000 1.0
C      1  0.4390000000000  0.4903420000000  0.4707160000000 1.0
C      1  0.4389990000000  0.4903460000000  0.5298770000000 1.0
C      1  0.5144330000000  0.4354120000000  0.5750890000000 1.0
C      1  0.5144360000000  0.4354020000000  0.4255140000000 1.0
C      1  0.4132340000000  0.4904840000000  0.5470060000000 1.0
C      1  0.4132360000000  0.4904780000000  0.4535860000000 1.0
C      1  0.4909660000000  0.4048060000000  0.4858800000000 1.0
C      1  0.4909660000000  0.4048080000000  0.5147270000000 1.0
C      1  0.6152550000000  0.5103590000000  0.4869170000000 1.0
C      1  0.6152550000000  0.5103610000000  0.5136820000000 1.0
C      1  0.5047880000000  0.5477090000000  0.5158740000000 1.0
C      1  0.5047890000000  0.5477070000000  0.4847160000000 1.0
C      1  0.5034280000000  0.5774040000000  0.4310870000000 1.0
C      1  0.5034250000000  0.5774130000000  0.5694990000000 1.0
C      1  0.4440420000000  0.4168840000000  0.4861720000000 1.0
C      1  0.4440420000000  0.4168860000000  0.5144310000000 1.0
C      1  0.4755970000000  0.5886190000000  0.4699910000000 1.0
C      1  0.4755950000000  0.5886230000000  0.5305920000000 1.0
C      1  0.5022870000000  0.4209520000000  0.4439770000000 1.0
C      1  0.5022850000000  0.4209590000000  0.5566280000000 1.0
C      1  0.5406970000000  0.5010600000000  0.6015570000000 1.0
C      1  0.5407020000000  0.5010480000000  0.3990390000000 1.0
C      1  0.4232640000000  0.5344210000000  0.5287040000000 1.0
C      1  0.4232650000000  0.5344180000000  0.4718840000000 1.0
C      1  0.5450070000000  0.5432940000000  0.5813860000000 1.0
C      1  0.5450110000000  0.5432840000000  0.4192060000000 1.0
C      1  0.5634640000000  0.4646250000000  0.5464320000000 1.0
C      1  0.5634660000000  0.4646190000000  0.4541700000000 1.0
C      1  0.5175350000000  0.4617070000000  0.4155890000000 1.0
C      1  0.5175310000000  0.4617170000000  0.5850110000000 1.0
C      1  0.5645870000000  0.4758490000000  0.4283620000000 1.0
C      1  0.5645840000000  0.4758580000000  0.5722390000000 1.0
C      1  0.5983020000000  0.5282950000000  0.4712680000000 1.0
C      1  0.5983010000000  0.5282990000000  0.5293280000000 1.0
C      1  0.5435250000000  0.4747290000000  0.5918290000000 1.0
C      1  0.5435290000000  0.4747180000000  0.4087710000000 1.0
C      1  0.5292010000000  0.5074900000000  0.5301890000000 1.0
C      1  0.5292030000000  0.5074870000000  0.4704070000000 1.0
C      1  0.5271840000000  0.5803170000000  0.4453130000000 1.0
C      1  0.5271820000000  0.5803240000000  0.5552740000000 1.0
C      1  0.4541340000000  0.4892060000000  0.5805180000000 1.0
C      1  0.4541380000000  0.4891960000000  0.4200770000000 1.0
C      1  0.4657440000000  0.5545180000000  0.5842200000000 1.0
C      1  0.4657470000000  0.5545070000000  0.4163670000000 1.0
C      1  0.5470950000000  0.4824010000000  0.5245840000000 1.0
C      1  0.5470960000000  0.4823980000000  0.4760150000000 1.0
C      1  0.4106050000000  0.4632220000000  0.5585340000000 1.0
C      1  0.4106070000000  0.4632150000000  0.4420620000000 1.0
C      1  0.4480470000000  0.4644960000000  0.5157190000000 1.0
C      1  0.4480480000000  0.4644940000000  0.4848780000000 1.0
C      1  0.6070670000000  0.4876400000000  0.5296940000000 1.0
C      1  0.6070680000000  0.4876370000000  0.4709080000000 1.0
C      1  0.5271410000000  0.4604990000000  0.4843850000000 1.0
C      1  0.5271410000000  0.4605010000000  0.5162160000000 1.0
C      1  0.4308250000000  0.5128420000000  0.4869110000000 1.0
C      1  0.4308250000000  0.5128440000000  0.5136790000000 1.0
C      1  0.5590030000000  0.5189840000000  0.5870560000000 1.0
C      1  0.5590060000000  0.5189730000000  0.4135390000000 1.0
C      1  0.5939410000000  0.5064730000000  0.5491200000000 1.0
C      1  0.5939430000000  0.5064670000000  0.4514780000000 1.0
C      1  0.4848370000000  0.5252320000000  0.5169290000000 1.0
C      1  0.4848370000000  0.5252290000000  0.4836630000000 1.0
C      1  0.4921700000000  0.4708180000000  0.4023150000000 1.0
C      1  0.4921650000000  0.4708300000000  0.5982840000000 1.0
C      1  0.4267490000000  0.5267460000000  0.4219190000000 1.0
C      1  0.4267460000000  0.5267560000000  0.5786700000000 1.0
C      1  0.4990470000000  0.4711570000000  0.5152410000000 1.0
C      1  0.4990480000000  0.4711550000000  0.4853580000000 1.0
C      1  0.4684830000000  0.4633080000000  0.4194780000000 1.0
C      1  0.4684800000000  0.4633180000000  0.5811200000000 1.0
C      1  0.5171120000000  0.5075260000000  0.5570960000000 1.0
C      1  0.5171140000000  0.5075180000000  0.4434990000000 1.0
C      1  0.4728510000000  0.4198990000000  0.5554900000000 1.0
C      1  0.4728540000000  0.4198920000000  0.4451140000000 1.0
C      1  0.5469640000000  0.5805680000000  0.4865280000000 1.0
C      1  0.5469630000000  0.5805700000000  0.5140590000000 1.0
C      1  0.5069920000000  0.4815870000000  0.4380650000000 1.0
C      1  0.5069890000000  0.4815950000000  0.5625320000000 1.0
C      1  0.5337100000000  0.4300590000000  0.4840030000000 1.0
C      1  0.5337090000000  0.4300610000000  0.5166020000000 1.0
C      1  0.5799210000000  0.4482510000000  0.5290540000000 1.0
C      1  0.5799220000000  0.4482480000000  0.4715510000000 1.0
C      1  0.5811700000000  0.5459160000000  0.5151860000000 1.0
C      1  0.5811700000000  0.5459140000000  0.4854070000000 1.0
C      1  0.5245340000000  0.5896600000000  0.5283910000000 1.0
C      1  0.5245350000000  0.5896560000000  0.4721940000000 1.0
C      1  0.5161110000000  0.5137820000000  0.6077280000000 1.0
C      1  0.5161160000000  0.5137690000000  0.3928660000000 1.0
C      1  0.4570610000000  0.5722020000000  0.4375800000000 1.0
C      1  0.4570590000000  0.5722100000000  0.5630040000000 1.0
C      1  0.5766920000000  0.5021470000000  0.4290010000000 1.0
C      1  0.5766890000000  0.5021560000000  0.5715970000000 1.0
C      1  0.5335650000000  0.5350980000000  0.4842090000000 1.0
C      1  0.5335640000000  0.5351000000000  0.5163840000000 1.0
C      1  0.4807180000000  0.4741240000000  0.4481220000000 1.0
C      1  0.4807160000000  0.4741310000000  0.5524760000000 1.0
C      1  0.4994050000000  0.5817360000000  0.5152340000000 1.0
C      1  0.4994060000000  0.5817350000000  0.4853510000000 1.0
C      1  0.4964850000000  0.5517620000000  0.4192480000000 1.0
C      1  0.4964820000000  0.5517720000000  0.5813410000000 1.0
C      1  0.4747650000000  0.5219120000000  0.5434500000000 1.0
C      1  0.4747670000000  0.5219070000000  0.4571410000000 1.0
C      1  0.5469160000000  0.5601600000000  0.4429070000000 1.0
C      1  0.5469140000000  0.5601670000000  0.5576830000000 1.0
C      1  0.4908740000000  0.4982830000000  0.6072650000000 1.0
C      1  0.4908790000000  0.4982700000000  0.3933300000000 1.0
C      1  0.4313770000000  0.4438910000000  0.4449470000000 1.0
C      1  0.4313740000000  0.4438970000000  0.5556520000000 1.0
C      1  0.4554620000000  0.4386950000000  0.5700920000000 1.0
C      1  0.4554650000000  0.4386860000000  0.4305090000000 1.0
C      1  0.4762890000000  0.4608130000000  0.5277140000000 1.0
C      1  0.4762900000000  0.4608090000000  0.4728850000000 1.0
C      1  0.5997130000000  0.4640000000000  0.4855120000000 1.0
C      1  0.5997120000000  0.4640020000000  0.5150920000000 1.0
C      1  0.4161000000000  0.5204490000000  0.5551550000000 1.0
C      1  0.4161020000000  0.5204420000000  0.4454340000000 1.0
C      1  0.4500350000000  0.5322390000000  0.5926800000000 1.0
C      1  0.4500390000000  0.5322280000000  0.4079090000000 1.0
C      1  0.4966610000000  0.5274300000000  0.5602660000000 1.0
C      1  0.4966640000000  0.5274230000000  0.4403250000000 1.0
C      1  0.3850230000000  0.4670150000000  0.4875970000000 1.0
C      1  0.3850230000000  0.4670170000000  0.5129980000000 1.0
C      1  0.4805090000000  0.5883400000000  0.5582830000000 1.0
C      1  0.4805120000000  0.5883330000000  0.4423000000000 1.0
C      1  0.4326670000000  0.5586920000000  0.4847710000000 1.0
C      1  0.4326660000000  0.5586940000000  0.5158140000000 1.0
C      1  0.5131660000000  0.4134830000000  0.4702690000000 1.0
C      1  0.5131650000000  0.4134860000000  0.5303380000000 1.0
C      1  0.5553810000000  0.5547630000000  0.5276480000000 1.0
C      1  0.5553820000000  0.5547600000000  0.4729420000000 1.0
C      1  0.5193200000000  0.5401490000000  0.5966940000000 1.0
C      1  0.5193240000000  0.5401370000000  0.4038970000000 1.0
C      1  0.5642800000000  0.4299400000000  0.4861900000000 1.0
C      1  0.5642790000000  0.4299420000000  0.5144160000000 1.0
C      1  0.4492650000000  0.5747600000000  0.5339630000000 1.0
C      1  0.4492660000000  0.5747560000000  0.4666210000000 1.0
C      1  0.4647030000000  0.5075000000000  0.4017840000000 1.0
C      1  0.4646980000000  0.5075120000000  0.5988090000000 1.0
C      1  0.4666330000000  0.4087550000000  0.5297140000000 1.0
C      1  0.4666340000000  0.4087520000000  0.4708910000000 1.0
C      1  0.5612340000000  0.4893210000000  0.5003000000000 1.0
END
