TITL C-55560-7236-4 -340.46544818072 125000 -1104.26460916695 0 0 157 (C1) n - 1
REM
REM in /rds/project/t2_vol4/rds-t2-cs072/BORA/CARBON/from-Arr/AIRSS/Generating-Clusters/GAP-ML-2020/Higher-Symm/SD-CG/HFTN-CG
REM
REM
REM
REM
REM
REM ./C.cell (b20cbc046b6831c77cfcea5457e17084)
REM AIRSS Version 0.9.1 bugfix July 2018 build 013d7b7c2542+ Fri, 06 Jul 2018 19:26:36 +0100
REM compiler GCC version 9.3.0
REM options -cpp -mtune=generic -march=x86-64 -g -O0
REM seed 1574454956 386205406 -1858723201 -791209375 837138517 1874373266 -304184778 687142550 1479955927 -620367688 1423575967 -298016873 -1524507091 983150435 711107363 -951814009 593575189 1855964214 51838909 1814449359 1444214705 1148789345 -468242056 -1019359294 -602450901 1468113452 -113225024 -1557594376 -1801664308 -1022178837 660506455 -1313434571 1573240872
REM
CELL 1.54180   50.00000   50.00000   50.00000   90.00000   90.00000   90.00000
LATT -1
SFAC C  
C      1  0.5423830000000  0.4720660000000  0.5412620000000 1.0
C      1  0.5538070000000  0.5545720000000  0.4462690000000 1.0
C      1  0.5676110000000  0.4236810000000  0.4731780000000 1.0
C      1  0.5383280000000  0.5476460000000  0.4709790000000 1.0
C      1  0.4863640000000  0.4811900000000  0.5580870000000 1.0
C      1  0.4566590000000  0.4213180000000  0.5520410000000 1.0
C      1  0.5094150000000  0.5656980000000  0.4265890000000 1.0
C      1  0.4052180000000  0.4480170000000  0.5111520000000 1.0
C      1  0.5521380000000  0.4613190000000  0.5709770000000 1.0
C      1  0.4446870000000  0.4179720000000  0.5089370000000 1.0
C      1  0.5503230000000  0.4102330000000  0.4927330000000 1.0
C      1  0.5853300000000  0.4730290000000  0.4808280000000 1.0
C      1  0.5820950000000  0.4444440000000  0.4873810000000 1.0
C      1  0.5342460000000  0.5911120000000  0.4913950000000 1.0
C      1  0.4033250000000  0.5370730000000  0.4996590000000 1.0
C      1  0.4506810000000  0.4213340000000  0.4820870000000 1.0
C      1  0.4526930000000  0.5200560000000  0.4139880000000 1.0
C      1  0.5370930000000  0.4707620000000  0.4607810000000 1.0
C      1  0.4964840000000  0.5429040000000  0.5400810000000 1.0
C      1  0.5859900000000  0.4888450000000  0.4570970000000 1.0
C      1  0.4922310000000  0.4561950000000  0.5417260000000 1.0
C      1  0.5822040000000  0.5544660000000  0.5564360000000 1.0
C      1  0.4475930000000  0.5189260000000  0.4727700000000 1.0
C      1  0.4376820000000  0.4428430000000  0.5513090000000 1.0
C      1  0.4960250000000  0.5281460000000  0.4518210000000 1.0
C      1  0.5767120000000  0.5162280000000  0.4606510000000 1.0
C      1  0.5510650000000  0.4855020000000  0.5880920000000 1.0
C      1  0.5743130000000  0.4421050000000  0.5149940000000 1.0
C      1  0.4789310000000  0.5273810000000  0.4025980000000 1.0
C      1  0.5413760000000  0.5727110000000  0.5685550000000 1.0
C      1  0.4760260000000  0.4973050000000  0.5974050000000 1.0
C      1  0.5097040000000  0.4296370000000  0.4369230000000 1.0
C      1  0.4827750000000  0.4217390000000  0.4443410000000 1.0
C      1  0.5216110000000  0.4952460000000  0.3898370000000 1.0
C      1  0.4470070000000  0.5201300000000  0.5033090000000 1.0
C      1  0.6041030000000  0.5373480000000  0.5231480000000 1.0
C      1  0.4306830000000  0.4419030000000  0.5219610000000 1.0
C      1  0.4095370000000  0.4960060000000  0.5329590000000 1.0
C      1  0.5624950000000  0.5555220000000  0.5767180000000 1.0
C      1  0.4064410000000  0.4979470000000  0.4712020000000 1.0
C      1  0.5347480000000  0.5515440000000  0.4257260000000 1.0
C      1  0.4229270000000  0.5379270000000  0.5408720000000 1.0
C      1  0.5805720000000  0.5444080000000  0.4570710000000 1.0
C      1  0.4339460000000  0.4428990000000  0.4686550000000 1.0
C      1  0.4716690000000  0.4673250000000  0.5221780000000 1.0
C      1  0.4861610000000  0.5537000000000  0.4139770000000 1.0
C      1  0.5694700000000  0.5065340000000  0.5830180000000 1.0
C      1  0.4648840000000  0.4912680000000  0.5377140000000 1.0
C      1  0.4706090000000  0.5789520000000  0.4500180000000 1.0
C      1  0.4939530000000  0.5062420000000  0.3884390000000 1.0
C      1  0.5272130000000  0.5477920000000  0.5334000000000 1.0
C      1  0.5777770000000  0.4748540000000  0.4326380000000 1.0
C      1  0.4804410000000  0.4821250000000  0.3841050000000 1.0
C      1  0.5087180000000  0.5502470000000  0.4685350000000 1.0
C      1  0.5571460000000  0.5314510000000  0.5907370000000 1.0
C      1  0.4344560000000  0.4915240000000  0.4638640000000 1.0
C      1  0.4427630000000  0.5415700000000  0.4311510000000 1.0
C      1  0.5029760000000  0.6019840000000  0.5244400000000 1.0
C      1  0.4430300000000  0.5452770000000  0.5187960000000 1.0
C      1  0.5969560000000  0.5305990000000  0.5492550000000 1.0
C      1  0.5326450000000  0.5238950000000  0.4215820000000 1.0
C      1  0.4359960000000  0.4777610000000  0.4368190000000 1.0
C      1  0.5614820000000  0.4851810000000  0.4109560000000 1.0
C      1  0.5704300000000  0.4692330000000  0.5270350000000 1.0
C      1  0.5805230000000  0.4586170000000  0.5665440000000 1.0
C      1  0.4612570000000  0.5835880000000  0.5440000000000 1.0
C      1  0.4210710000000  0.5611410000000  0.5006140000000 1.0
C      1  0.4874570000000  0.5967220000000  0.5479400000000 1.0
C      1  0.5001940000000  0.5772510000000  0.4544560000000 1.0
C      1  0.4943260000000  0.4798700000000  0.4442580000000 1.0
C      1  0.5500500000000  0.5191000000000  0.4755800000000 1.0
C      1  0.5308140000000  0.5260020000000  0.5982850000000 1.0
C      1  0.5195480000000  0.4538740000000  0.5296850000000 1.0
C      1  0.4685600000000  0.4729730000000  0.5816510000000 1.0
C      1  0.4772910000000  0.5214400000000  0.4724360000000 1.0
C      1  0.5324120000000  0.4133230000000  0.4420060000000 1.0
C      1  0.5883930000000  0.4789550000000  0.5502740000000 1.0
C      1  0.4415470000000  0.4673090000000  0.5665340000000 1.0
C      1  0.4445800000000  0.5943940000000  0.5206650000000 1.0
C      1  0.4482470000000  0.4629870000000  0.5080830000000 1.0
C      1  0.4750860000000  0.5234310000000  0.5858280000000 1.0
C      1  0.4965550000000  0.4501630000000  0.4786070000000 1.0
C      1  0.3966480000000  0.4770300000000  0.4862660000000 1.0
C      1  0.3978100000000  0.4762550000000  0.5154150000000 1.0
C      1  0.4972490000000  0.5278360000000  0.5669970000000 1.0
C      1  0.5343700000000  0.4383020000000  0.5691210000000 1.0
C      1  0.5437190000000  0.5745770000000  0.5379040000000 1.0
C      1  0.4643170000000  0.5679730000000  0.5707390000000 1.0
C      1  0.4817440000000  0.4309360000000  0.5580280000000 1.0
C      1  0.4905120000000  0.6013880000000  0.4983770000000 1.0
C      1  0.4398390000000  0.4492750000000  0.4403760000000 1.0
C      1  0.4050130000000  0.5260300000000  0.4740450000000 1.0
C      1  0.5474250000000  0.4600350000000  0.4075870000000 1.0
C      1  0.5640540000000  0.4480010000000  0.4289840000000 1.0
C      1  0.4633640000000  0.5913310000000  0.4966640000000 1.0
C      1  0.4525430000000  0.5835240000000  0.4707220000000 1.0
C      1  0.4629160000000  0.5618990000000  0.4289000000000 1.0
C      1  0.4627460000000  0.4352850000000  0.4290370000000 1.0
C      1  0.4772070000000  0.4727040000000  0.4713480000000 1.0
C      1  0.4897140000000  0.5429900000000  0.4917700000000 1.0
C      1  0.4540280000000  0.5404720000000  0.5769020000000 1.0
C      1  0.5573740000000  0.5120840000000  0.5030960000000 1.0
C      1  0.4910690000000  0.5807730000000  0.5721880000000 1.0
C      1  0.4905730000000  0.4019020000000  0.5206220000000 1.0
C      1  0.4933900000000  0.4579150000000  0.5956290000000 1.0
C      1  0.5665350000000  0.4838430000000  0.5017140000000 1.0
C      1  0.5099630000000  0.4356520000000  0.5838790000000 1.0
C      1  0.5586080000000  0.4259110000000  0.4457620000000 1.0
C      1  0.5300300000000  0.4991870000000  0.5420410000000 1.0
C      1  0.4296060000000  0.5401390000000  0.4592050000000 1.0
C      1  0.5243690000000  0.4975580000000  0.5930220000000 1.0
C      1  0.5111790000000  0.5432860000000  0.5889300000000 1.0
C      1  0.4073310000000  0.4497050000000  0.4824890000000 1.0
C      1  0.4195840000000  0.5865270000000  0.5151960000000 1.0
C      1  0.4979850000000  0.4027990000000  0.4929040000000 1.0
C      1  0.4629590000000  0.4076860000000  0.5273540000000 1.0
C      1  0.4350930000000  0.5244740000000  0.5619210000000 1.0
C      1  0.4744400000000  0.5642920000000  0.5036460000000 1.0
C      1  0.4806140000000  0.4210370000000  0.4748840000000 1.0
C      1  0.5733860000000  0.5687920000000  0.5334540000000 1.0
C      1  0.5892850000000  0.5579850000000  0.5101660000000 1.0
C      1  0.4709910000000  0.4481910000000  0.4054060000000 1.0
C      1  0.5320890000000  0.4267290000000  0.5392960000000 1.0
C      1  0.5523810000000  0.5704870000000  0.4821340000000 1.0
C      1  0.5097350000000  0.5009290000000  0.5635200000000 1.0
C      1  0.5169360000000  0.5077220000000  0.5163140000000 1.0
C      1  0.4442930000000  0.4918550000000  0.4139380000000 1.0
C      1  0.5092470000000  0.4078420000000  0.5427020000000 1.0
C      1  0.5893100000000  0.5051470000000  0.5619950000000 1.0
C      1  0.4953200000000  0.4571940000000  0.3918030000000 1.0
C      1  0.4706250000000  0.5066290000000  0.5134800000000 1.0
C      1  0.5545080000000  0.4216800000000  0.5190530000000 1.0
C      1  0.4571690000000  0.4732560000000  0.3971920000000 1.0
C      1  0.4688820000000  0.5582380000000  0.5305290000000 1.0
C      1  0.5797110000000  0.5606790000000  0.4827560000000 1.0
C      1  0.5444790000000  0.5070010000000  0.4029600000000 1.0
C      1  0.5432660000000  0.4638880000000  0.4880900000000 1.0
C      1  0.4480770000000  0.4683750000000  0.4795570000000 1.0
C      1  0.5299690000000  0.5939460000000  0.5197630000000 1.0
C      1  0.4349200000000  0.4941010000000  0.5517320000000 1.0
C      1  0.5290070000000  0.4982740000000  0.4668410000000 1.0
C      1  0.4312570000000  0.5651550000000  0.4735310000000 1.0
C      1  0.5170510000000  0.4612880000000  0.4997700000000 1.0
C      1  0.5123430000000  0.4568200000000  0.4507990000000 1.0
C      1  0.5251140000000  0.3975690000000  0.4831650000000 1.0
C      1  0.4840800000000  0.4958570000000  0.4869390000000 1.0
C      1  0.5270140000000  0.3902350000000  0.4562500000000 1.0
C      1  0.4043740000000  0.5232110000000  0.5253970000000 1.0
C      1  0.4993800000000  0.4133840000000  0.5687090000000 1.0
C      1  0.4941630000000  0.5254400000000  0.5171270000000 1.0
C      1  0.5222970000000  0.4664650000000  0.3937270000000 1.0
C      1  0.5113540000000  0.5058690000000  0.4437920000000 1.0
C      1  0.5095430000000  0.5956040000000  0.4774340000000 1.0
C      1  0.5127450000000  0.4912250000000  0.4932270000000 1.0
C      1  0.5011790000000  0.4840120000000  0.6049650000000 1.0
C      1  0.5405570000000  0.5219730000000  0.5262130000000 1.0
C      1  0.5157860000000  0.5703540000000  0.5819260000000 1.0
END
