TITL C-55556-7235-6 7.17739257868192 125000 -631.030299002221 0 0 92 (C1) n - 1
REM
REM in /rds/project/t2_vol4/rds-t2-cs072/BORA/CARBON/from-Arr/AIRSS/Generating-Clusters/GAP-ML-2020/Higher-Symm/SD-CG/HFTN-CG
REM
REM
REM
REM
REM
REM ./C.cell (b20cbc046b6831c77cfcea5457e17084)
REM AIRSS Version 0.9.1 bugfix July 2018 build 013d7b7c2542+ Fri, 06 Jul 2018 19:26:36 +0100
REM compiler GCC version 9.3.0
REM options -cpp -mtune=generic -march=x86-64 -g -O0
REM seed -654212038 1335510563 1644225154 1626439357 1594378561 -157308081 -636873363 593334516 204537681 -1088016982 -139688159 -213954770 -1985275044 802720340 -1045174804 -376618106 128760541 899425816 270661019 1002330045 1148735769 -1855328739 829110827 752195092 -1221073813 737329167 -2093933559 -162432572 928036694 504459706 1101328307 60234723 -1639904390
REM
CELL 1.54180   50.00000   50.00000   50.00000   90.00000   90.00000   90.00000
LATT -1
SFAC C  
C      1  0.4671720000000  0.5115070000000  0.4280580000000 1.0
C      1  0.4654520000000  0.4597810000000  0.4386200000000 1.0
C      1  0.4672010000000  0.4292800000000  0.4780440000000 1.0
C      1  0.4671250000000  0.4314960000000  0.5264660000000 1.0
C      1  0.4667040000000  0.4663880000000  0.5681550000000 1.0
C      1  0.4674290000000  0.5147650000000  0.5750350000000 1.0
C      1  0.4691680000000  0.5562540000000  0.5452420000000 1.0
C      1  0.4687600000000  0.5712550000000  0.4975120000000 1.0
C      1  0.4680480000000  0.5543050000000  0.4500180000000 1.0
C      1  0.5209640000000  0.4839900000000  0.4710680000000 1.0
C      1  0.5319530000000  0.4596290000000  0.4854590000000 1.0
C      1  0.5230410000000  0.4608160000000  0.5129930000000 1.0
C      1  0.5359330000000  0.4807900000000  0.5304050000000 1.0
C      1  0.5197430000000  0.5041910000000  0.5264680000000 1.0
C      1  0.5230950000000  0.5328910000000  0.5231260000000 1.0
C      1  0.5394530000000  0.5381670000000  0.4993100000000 1.0
C      1  0.5259600000000  0.5294490000000  0.4742160000000 1.0
C      1  0.5373390000000  0.5059600000000  0.4614710000000 1.0
C      1  0.5093070000000  0.4397590000000  0.4517240000000 1.0
C      1  0.5093010000000  0.4212580000000  0.5013680000000 1.0
C      1  0.5101930000000  0.4431330000000  0.5514450000000 1.0
C      1  0.5092080000000  0.4883670000000  0.5785150000000 1.0
C      1  0.5107830000000  0.5384710000000  0.5659050000000 1.0
C      1  0.5137680000000  0.5739290000000  0.5237130000000 1.0
C      1  0.5092250000000  0.5713860000000  0.4717510000000 1.0
C      1  0.5112260000000  0.5356490000000  0.4316020000000 1.0
C      1  0.5085210000000  0.4838580000000  0.4238460000000 1.0
C      1  0.4831570000000  0.5358900000000  0.4329730000000 1.0
C      1  0.4809510000000  0.4845440000000  0.4320730000000 1.0
C      1  0.4807820000000  0.4393180000000  0.4536450000000 1.0
C      1  0.4815360000000  0.4224430000000  0.5026870000000 1.0
C      1  0.4816480000000  0.4483430000000  0.5476480000000 1.0
C      1  0.4810960000000  0.4888890000000  0.5801100000000 1.0
C      1  0.4821580000000  0.5389500000000  0.5652990000000 1.0
C      1  0.4858810000000  0.5658160000000  0.5217230000000 1.0
C      1  0.4807630000000  0.5696950000000  0.4710990000000 1.0
C      1  0.4436230000000  0.5624990000000  0.5055940000000 1.0
C      1  0.4419800000000  0.5430160000000  0.4520570000000 1.0
C      1  0.4416740000000  0.5169610000000  0.4381490000000 1.0
C      1  0.4403170000000  0.4654660000000  0.4452280000000 1.0
C      1  0.4412900000000  0.4375130000000  0.4870790000000 1.0
C      1  0.4417320000000  0.4389390000000  0.5165760000000 1.0
C      1  0.4418440000000  0.4776750000000  0.5605390000000 1.0
C      1  0.4422380000000  0.5068090000000  0.5645990000000 1.0
C      1  0.4434950000000  0.5538790000000  0.5339040000000 1.0
C      1  0.5242630000000  0.5133890000000  0.5741640000000 1.0
C      1  0.5274490000000  0.5540470000000  0.5443630000000 1.0
C      1  0.5242760000000  0.5738480000000  0.4964510000000 1.0
C      1  0.5260250000000  0.5526560000000  0.4538840000000 1.0
C      1  0.5224930000000  0.5092540000000  0.4256920000000 1.0
C      1  0.5241000000000  0.4627670000000  0.4372480000000 1.0
C      1  0.5226170000000  0.4314540000000  0.4768410000000 1.0
C      1  0.5246920000000  0.4335260000000  0.5245710000000 1.0
C      1  0.5219250000000  0.4653540000000  0.5657450000000 1.0
C      1  0.4232220000000  0.5334240000000  0.5270380000000 1.0
C      1  0.4232100000000  0.5419380000000  0.4986200000000 1.0
C      1  0.4229080000000  0.5320900000000  0.4721990000000 1.0
C      1  0.4231480000000  0.5060660000000  0.4583230000000 1.0
C      1  0.4233100000000  0.4777070000000  0.4634660000000 1.0
C      1  0.4228990000000  0.4607020000000  0.4866830000000 1.0
C      1  0.4228140000000  0.4619290000000  0.5160890000000 1.0
C      1  0.4232820000000  0.4804710000000  0.5376540000000 1.0
C      1  0.4233900000000  0.5097640000000  0.5418130000000 1.0
C      1  0.5724790000000  0.4596740000000  0.5137940000000 1.0
C      1  0.5657270000000  0.4813380000000  0.5320540000000 1.0
C      1  0.5691830000000  0.5093730000000  0.5423930000000 1.0
C      1  0.5728810000000  0.5345670000000  0.5296770000000 1.0
C      1  0.5690010000000  0.5385280000000  0.5003070000000 1.0
C      1  0.5739270000000  0.5323260000000  0.4714450000000 1.0
C      1  0.5679010000000  0.5061820000000  0.4604050000000 1.0
C      1  0.5716870000000  0.4764920000000  0.4605830000000 1.0
C      1  0.5694890000000  0.4601840000000  0.4840490000000 1.0
C      1  0.4951970000000  0.4720170000000  0.5060590000000 1.0
C      1  0.4812220000000  0.4734500000000  0.5303470000000 1.0
C      1  0.4910880000000  0.4987830000000  0.5349900000000 1.0
C      1  0.4745960000000  0.5160470000000  0.5196640000000 1.0
C      1  0.4948200000000  0.5370770000000  0.5121880000000 1.0
C      1  0.4999850000000  0.5239720000000  0.4862750000000 1.0
C      1  0.4776520000000  0.5129150000000  0.4729820000000 1.0
C      1  0.4902510000000  0.4874310000000  0.4620700000000 1.0
C      1  0.4750060000000  0.4763040000000  0.4861980000000 1.0
C      1  0.5506530000000  0.5646880000000  0.4905850000000 1.0
C      1  0.5546610000000  0.5549410000000  0.4621070000000 1.0
C      1  0.5484990000000  0.5017830000000  0.4341640000000 1.0
C      1  0.5513580000000  0.4720260000000  0.4382230000000 1.0
C      1  0.5519320000000  0.4360280000000  0.4854520000000 1.0
C      1  0.5535350000000  0.4356270000000  0.5152800000000 1.0
C      1  0.5469850000000  0.4760490000000  0.5581610000000 1.0
C      1  0.5500300000000  0.5049610000000  0.5649880000000 1.0
C      1  0.5559450000000  0.5535750000000  0.5436800000000 1.0
C      1  0.4640290000000  0.5020820000000  0.4959490000000 1.0
C      1  0.5112420000000  0.4981270000000  0.4980370000000 1.0
END
