TITL C-55554-7267-3 745.528931696428 125000 -869.603674628944 0 0 126 (C1) n - 1
REM
REM in /rds/project/t2_vol4/rds-t2-cs072/BORA/CARBON/from-Arr/AIRSS/Generating-Clusters/GAP-ML-2020/Higher-Symm/SD-CG/HFTN-CG
REM
REM
REM
REM
REM
REM ./C.cell (b20cbc046b6831c77cfcea5457e17084)
REM AIRSS Version 0.9.1 bugfix July 2018 build 013d7b7c2542+ Fri, 06 Jul 2018 19:26:36 +0100
REM compiler GCC version 9.3.0
REM options -cpp -mtune=generic -march=x86-64 -g -O0
REM seed -584481572 1242579739 -761448965 -330208017 841465840 1372600381 -403360651 -1412778672 -2021901090 -1390933817 -1407045743 1260554420 1807570003 -192807184 -31122921 1142070634 95814170 -299599481 -1519505071 518350829 535632866 1472953108 1577684022 -620954249 1233354626 742079855 -1163814151 3474277 1154900390 -406574760 1672563482 523820531 -2706965
REM
CELL 1.54180   50.00000   50.00000   50.00000   90.00000   90.00000   90.00000
LATT -1
SFAC C  
C      1  0.5250040000000  0.5039870000000  0.5376940000000 1.0
C      1  0.5242620000000  0.5007060000000  0.4579560000000 1.0
C      1  0.4732090000000  0.5028300000000  0.4615960000000 1.0
C      1  0.4742870000000  0.4987030000000  0.5412010000000 1.0
C      1  0.5249250000000  0.5446580000000  0.5006190000000 1.0
C      1  0.5254960000000  0.4628340000000  0.4972130000000 1.0
C      1  0.4745150000000  0.4589560000000  0.5025420000000 1.0
C      1  0.4732960000000  0.5404040000000  0.4988360000000 1.0
C      1  0.4986580000000  0.4142420000000  0.4825480000000 1.0
C      1  0.5245090000000  0.5929020000000  0.5362570000000 1.0
C      1  0.4931810000000  0.4024350000000  0.5223790000000 1.0
C      1  0.5040740000000  0.5887800000000  0.4920300000000 1.0
C      1  0.5094740000000  0.4733830000000  0.4058470000000 1.0
C      1  0.4967730000000  0.5156180000000  0.5863520000000 1.0
C      1  0.5015720000000  0.5149830000000  0.4126260000000 1.0
C      1  0.4890000000000  0.4741390000000  0.5939020000000 1.0
C      1  0.4332740000000  0.5687160000000  0.4823790000000 1.0
C      1  0.4367580000000  0.4311200000000  0.5198590000000 1.0
C      1  0.5680750000000  0.5679140000000  0.5157580000000 1.0
C      1  0.5606090000000  0.4322110000000  0.4807740000000 1.0
C      1  0.4304980000000  0.4849090000000  0.5684940000000 1.0
C      1  0.4372690000000  0.5157560000000  0.4303250000000 1.0
C      1  0.5607510000000  0.5174830000000  0.5689630000000 1.0
C      1  0.5675710000000  0.4856430000000  0.4308870000000 1.0
C      1  0.4920410000000  0.5434270000000  0.4075480000000 1.0
C      1  0.4871000000000  0.4468840000000  0.5829230000000 1.0
C      1  0.5067290000000  0.5451750000000  0.5895380000000 1.0
C      1  0.5112420000000  0.4464300000000  0.4176120000000 1.0
C      1  0.4901710000000  0.4111540000000  0.5497110000000 1.0
C      1  0.4841850000000  0.5779150000000  0.4311350000000 1.0
C      1  0.5151230000000  0.5810640000000  0.5588370000000 1.0
C      1  0.5071450000000  0.4129690000000  0.4525900000000 1.0
C      1  0.4926560000000  0.4581910000000  0.5229290000000 1.0
C      1  0.4883700000000  0.5456570000000  0.4757640000000 1.0
C      1  0.5075750000000  0.4608470000000  0.4762740000000 1.0
C      1  0.5080640000000  0.5456580000000  0.5223890000000 1.0
C      1  0.4896610000000  0.5250020000000  0.4587170000000 1.0
C      1  0.4920760000000  0.4777550000000  0.5415760000000 1.0
C      1  0.5076850000000  0.4787800000000  0.4565320000000 1.0
C      1  0.5075890000000  0.5253250000000  0.5400060000000 1.0
C      1  0.5636070000000  0.4591370000000  0.4368410000000 1.0
C      1  0.5533560000000  0.5469150000000  0.5638080000000 1.0
C      1  0.4341840000000  0.4583620000000  0.5633360000000 1.0
C      1  0.4444680000000  0.5453430000000  0.4346710000000 1.0
C      1  0.5530450000000  0.4378140000000  0.4509030000000 1.0
C      1  0.5626840000000  0.5614900000000  0.5422000000000 1.0
C      1  0.4361330000000  0.5603500000000  0.4563500000000 1.0
C      1  0.4449740000000  0.4371660000000  0.5496330000000 1.0
C      1  0.5477320000000  0.4960770000000  0.5828450000000 1.0
C      1  0.5513630000000  0.5045670000000  0.4148660000000 1.0
C      1  0.4505040000000  0.4944820000000  0.4164720000000 1.0
C      1  0.4461590000000  0.5039970000000  0.5846860000000 1.0
C      1  0.5523200000000  0.5852760000000  0.4973900000000 1.0
C      1  0.5487680000000  0.4175260000000  0.5021630000000 1.0
C      1  0.4486850000000  0.4153930000000  0.4988290000000 1.0
C      1  0.4499400000000  0.5842310000000  0.5023080000000 1.0
C      1  0.4407000000000  0.5305330000000  0.5732810000000 1.0
C      1  0.4405860000000  0.4693370000000  0.4277450000000 1.0
C      1  0.5560850000000  0.5314770000000  0.4259430000000 1.0
C      1  0.5579160000000  0.4709080000000  0.5718550000000 1.0
C      1  0.4420750000000  0.5747800000000  0.5297400000000 1.0
C      1  0.4409500000000  0.4269860000000  0.4728570000000 1.0
C      1  0.5589450000000  0.4283050000000  0.5276280000000 1.0
C      1  0.5548190000000  0.5757900000000  0.4700660000000 1.0
C      1  0.5721240000000  0.4556630000000  0.4965940000000 1.0
C      1  0.5747690000000  0.5467340000000  0.4970070000000 1.0
C      1  0.4266170000000  0.4540840000000  0.5032540000000 1.0
C      1  0.4250550000000  0.5463210000000  0.5005560000000 1.0
C      1  0.5737150000000  0.5035880000000  0.4535250000000 1.0
C      1  0.5718290000000  0.5027030000000  0.5450300000000 1.0
C      1  0.4263020000000  0.5007450000000  0.4541100000000 1.0
C      1  0.4248800000000  0.5016510000000  0.5447060000000 1.0
C      1  0.4481540000000  0.4723700000000  0.5084810000000 1.0
C      1  0.4465350000000  0.5280230000000  0.4942670000000 1.0
C      1  0.5516130000000  0.4749360000000  0.4906210000000 1.0
C      1  0.5515550000000  0.5304760000000  0.5042550000000 1.0
C      1  0.4466050000000  0.5076580000000  0.4732820000000 1.0
C      1  0.4479400000000  0.4938840000000  0.5283680000000 1.0
C      1  0.5510440000000  0.4965550000000  0.4704910000000 1.0
C      1  0.5514730000000  0.5101040000000  0.5257080000000 1.0
C      1  0.4241220000000  0.4717090000000  0.4519870000000 1.0
C      1  0.4238230000000  0.5301280000000  0.5491650000000 1.0
C      1  0.5741790000000  0.4736990000000  0.5475330000000 1.0
C      1  0.5740850000000  0.5320560000000  0.4486420000000 1.0
C      1  0.4242500000000  0.4508950000000  0.4742380000000 1.0
C      1  0.4243320000000  0.5514340000000  0.5290000000000 1.0
C      1  0.5735170000000  0.5527100000000  0.4690470000000 1.0
C      1  0.5747540000000  0.4525030000000  0.5256560000000 1.0
C      1  0.5250580000000  0.4975370000000  0.4038550000000 1.0
C      1  0.5148560000000  0.4921340000000  0.5847730000000 1.0
C      1  0.4730840000000  0.4981050000000  0.5954240000000 1.0
C      1  0.4834160000000  0.4913690000000  0.4144710000000 1.0
C      1  0.5171950000000  0.4148130000000  0.5059190000000 1.0
C      1  0.5272900000000  0.5958600000000  0.5091370000000 1.0
C      1  0.4788370000000  0.5852530000000  0.5043390000000 1.0
C      1  0.4757920000000  0.4030680000000  0.4995050000000 1.0
C      1  0.5345390000000  0.4347100000000  0.5429040000000 1.0
C      1  0.5299150000000  0.5687500000000  0.4550320000000 1.0
C      1  0.4646490000000  0.4340300000000  0.4575070000000 1.0
C      1  0.4666680000000  0.5672520000000  0.5451510000000 1.0
C      1  0.5314570000000  0.5452430000000  0.4340090000000 1.0
C      1  0.5336270000000  0.4562170000000  0.5644270000000 1.0
C      1  0.4650910000000  0.4553950000000  0.4356360000000 1.0
C      1  0.4651200000000  0.5442680000000  0.5661170000000 1.0
C      1  0.4843100000000  0.4376500000000  0.4205570000000 1.0
C      1  0.4832420000000  0.5599510000000  0.5839140000000 1.0
C      1  0.5140400000000  0.4386700000000  0.5791720000000 1.0
C      1  0.5142220000000  0.5602560000000  0.4149370000000 1.0
C      1  0.4824380000000  0.4174400000000  0.4402080000000 1.0
C      1  0.4864490000000  0.5801940000000  0.5646520000000 1.0
C      1  0.5111170000000  0.5817330000000  0.4338140000000 1.0
C      1  0.5159170000000  0.4182660000000  0.5595380000000 1.0
C      1  0.5123450000000  0.5620770000000  0.4788050000000 1.0
C      1  0.5176620000000  0.4434360000000  0.5183950000000 1.0
C      1  0.4825140000000  0.5598440000000  0.5199650000000 1.0
C      1  0.4845620000000  0.4429700000000  0.4797270000000 1.0
C      1  0.5169290000000  0.4816480000000  0.5561140000000 1.0
C      1  0.5128770000000  0.5223180000000  0.4416180000000 1.0
C      1  0.4843100000000  0.5212810000000  0.5574380000000 1.0
C      1  0.4819060000000  0.4812340000000  0.4430280000000 1.0
C      1  0.4703110000000  0.4288190000000  0.5632600000000 1.0
C      1  0.4689940000000  0.5559310000000  0.4208740000000 1.0
C      1  0.5272160000000  0.4290450000000  0.4388210000000 1.0
C      1  0.5280800000000  0.5583530000000  0.5751410000000 1.0
C      1  0.4408160000000  0.4998930000000  0.5005800000000 1.0
C      1  0.5577290000000  0.5025640000000  0.4981820000000 1.0
END
