TITL C-57363-7786-3 0.022219231058548 125000 -855.351433722198 0 0 118 (C1) n - 1
REM
REM in /rds/project/t2_vol4/rds-t2-cs072/BORA/CARBON/from-Arr/AIRSS/Generating-Clusters/GAP-ML-2020/Higher-Symm/SD-CG/HFTN-CG
REM
REM
REM
REM
REM
REM ./C.cell (b20cbc046b6831c77cfcea5457e17084)
REM AIRSS Version 0.9.1 bugfix July 2018 build 013d7b7c2542+ Fri, 06 Jul 2018 19:26:36 +0100
REM compiler GCC version 9.3.0
REM options -cpp -mtune=generic -march=x86-64 -g -O0
REM seed 1361300976 992105947 -1642857004 12543426 1410857987 294663822 -227754378 -84050276 819075365 -1030194783 -1009192297 1113849134 -1359040794 -462165271 -1227096189 529164799 -364561478 -1988041085 529954822 460697328 -80685620 1339841373 2011800469 286811489 951559118 163204892 736824272 1804465952 -526108584 1878154568 -1317465968 592529006 -992145005
REM
CELL 1.54180   50.00000   50.00000   50.00000   90.00000   90.00000   90.00000
LATT -1
SFAC C  
C      1  0.5312460000000  0.4138770000000  0.5096160000000 1.0
C      1  0.5317220000000  0.4405040000000  0.4405150000000 1.0
C      1  0.5310000000000  0.5095720000000  0.4141060000000 1.0
C      1  0.5312350000000  0.5741800000000  0.4512630000000 1.0
C      1  0.5333200000000  0.5793580000000  0.5261100000000 1.0
C      1  0.5326490000000  0.5280480000000  0.5807250000000 1.0
C      1  0.5299950000000  0.4532760000000  0.5732590000000 1.0
C      1  0.5139460000000  0.4159390000000  0.4858930000000 1.0
C      1  0.5137380000000  0.4595380000000  0.4273240000000 1.0
C      1  0.5136210000000  0.5333890000000  0.4176520000000 1.0
C      1  0.5140120000000  0.5843380000000  0.4736620000000 1.0
C      1  0.5165120000000  0.5707500000000  0.5489840000000 1.0
C      1  0.5144150000000  0.5052780000000  0.5861260000000 1.0
C      1  0.5125400000000  0.4374460000000  0.5558850000000 1.0
C      1  0.4864790000000  0.4654450000000  0.4385880000000 1.0
C      1  0.4854460000000  0.5328220000000  0.4201840000000 1.0
C      1  0.4865250000000  0.5791970000000  0.4748810000000 1.0
C      1  0.4880030000000  0.5699740000000  0.5488460000000 1.0
C      1  0.4862630000000  0.5059190000000  0.5835900000000 1.0
C      1  0.4856490000000  0.4478880000000  0.5466820000000 1.0
C      1  0.4869500000000  0.4299150000000  0.4879530000000 1.0
C      1  0.4088240000000  0.4483790000000  0.5148080000000 1.0
C      1  0.4090230000000  0.4557110000000  0.4681020000000 1.0
C      1  0.4095340000000  0.4966330000000  0.4451860000000 1.0
C      1  0.4103630000000  0.5394790000000  0.4632390000000 1.0
C      1  0.4124050000000  0.5527090000000  0.5076840000000 1.0
C      1  0.4117090000000  0.5267420000000  0.5456340000000 1.0
C      1  0.4098270000000  0.4803200000000  0.5493610000000 1.0
C      1  0.5572540000000  0.4319710000000  0.5419840000000 1.0
C      1  0.5587010000000  0.4267700000000  0.4744670000000 1.0
C      1  0.5578380000000  0.4748080000000  0.4260090000000 1.0
C      1  0.5572590000000  0.5428470000000  0.4302840000000 1.0
C      1  0.5583060000000  0.5807290000000  0.4876650000000 1.0
C      1  0.5596200000000  0.5515870000000  0.5519160000000 1.0
C      1  0.5577360000000  0.4889280000000  0.5791680000000 1.0
C      1  0.5582520000000  0.4519350000000  0.4407400000000 1.0
C      1  0.5574100000000  0.5167920000000  0.4224920000000 1.0
C      1  0.5578740000000  0.5721570000000  0.4614790000000 1.0
C      1  0.5593670000000  0.5678600000000  0.5294450000000 1.0
C      1  0.5587480000000  0.5163600000000  0.5778080000000 1.0
C      1  0.5566770000000  0.4490350000000  0.5633120000000 1.0
C      1  0.5581370000000  0.4207110000000  0.5010960000000 1.0
C      1  0.5727400000000  0.4498690000000  0.4650600000000 1.0
C      1  0.5721530000000  0.4968200000000  0.4364340000000 1.0
C      1  0.5727960000000  0.5494230000000  0.4524550000000 1.0
C      1  0.5737130000000  0.5648780000000  0.5048660000000 1.0
C      1  0.5738420000000  0.5270830000000  0.5568810000000 1.0
C      1  0.5720740000000  0.4722630000000  0.5610600000000 1.0
C      1  0.5720690000000  0.4382410000000  0.5182780000000 1.0
C      1  0.4655860000000  0.5507440000000  0.4334430000000 1.0
C      1  0.4686970000000  0.5702040000000  0.4988230000000 1.0
C      1  0.4675340000000  0.5531110000000  0.5633430000000 1.0
C      1  0.4656010000000  0.4847910000000  0.5786310000000 1.0
C      1  0.4638280000000  0.4301450000000  0.5347000000000 1.0
C      1  0.4646090000000  0.4293480000000  0.4665460000000 1.0
C      1  0.4657810000000  0.4824040000000  0.4228820000000 1.0
C      1  0.4446980000000  0.4449720000000  0.5511410000000 1.0
C      1  0.4447090000000  0.4253040000000  0.4872270000000 1.0
C      1  0.4451980000000  0.4639230000000  0.4325360000000 1.0
C      1  0.4454490000000  0.5295290000000  0.4294930000000 1.0
C      1  0.4467300000000  0.5704590000000  0.4769660000000 1.0
C      1  0.4475690000000  0.5619320000000  0.5436320000000 1.0
C      1  0.4461210000000  0.5063440000000  0.5744200000000 1.0
C      1  0.5052900000000  0.5244930000000  0.5221120000000 1.0
C      1  0.5254440000000  0.5050990000000  0.5288680000000 1.0
C      1  0.5163390000000  0.4792290000000  0.5254490000000 1.0
C      1  0.5229010000000  0.4693560000000  0.4993610000000 1.0
C      1  0.5131190000000  0.4986020000000  0.4674370000000 1.0
C      1  0.5056180000000  0.5253950000000  0.4747380000000 1.0
C      1  0.5212250000000  0.5334220000000  0.4975680000000 1.0
C      1  0.5310000000000  0.4806220000000  0.4168630000000 1.0
C      1  0.5308670000000  0.5540150000000  0.4298630000000 1.0
C      1  0.5318560000000  0.5867790000000  0.4974260000000 1.0
C      1  0.5338970000000  0.5525580000000  0.5645230000000 1.0
C      1  0.5309250000000  0.4804130000000  0.5844960000000 1.0
C      1  0.5304440000000  0.4221800000000  0.5377050000000 1.0
C      1  0.5319390000000  0.4231600000000  0.4638190000000 1.0
C      1  0.4683020000000  0.5396410000000  0.5015890000000 1.0
C      1  0.4762290000000  0.5234100000000  0.5246440000000 1.0
C      1  0.4678960000000  0.4945340000000  0.5207460000000 1.0
C      1  0.4871640000000  0.4713230000000  0.5235410000000 1.0
C      1  0.4940280000000  0.4605440000000  0.4921420000000 1.0
C      1  0.4885360000000  0.4793160000000  0.4677750000000 1.0
C      1  0.4770890000000  0.5247290000000  0.4788170000000 1.0
C      1  0.4661710000000  0.5702690000000  0.4554510000000 1.0
C      1  0.4678660000000  0.5770050000000  0.5284560000000 1.0
C      1  0.4667540000000  0.5273320000000  0.5766770000000 1.0
C      1  0.4650240000000  0.4591250000000  0.5665650000000 1.0
C      1  0.4645410000000  0.4224920000000  0.5080750000000 1.0
C      1  0.4644200000000  0.4447980000000  0.4437290000000 1.0
C      1  0.4656040000000  0.5105570000000  0.4192870000000 1.0
C      1  0.3923680000000  0.5325450000000  0.5045960000000 1.0
C      1  0.3917510000000  0.5167490000000  0.5277360000000 1.0
C      1  0.3909590000000  0.4885230000000  0.5295060000000 1.0
C      1  0.3903230000000  0.4692510000000  0.5086150000000 1.0
C      1  0.3902180000000  0.4734550000000  0.4804270000000 1.0
C      1  0.3907170000000  0.4981310000000  0.4666900000000 1.0
C      1  0.3910100000000  0.5242650000000  0.4775730000000 1.0
C      1  0.5827590000000  0.4646140000000  0.5109580000000 1.0
C      1  0.5832290000000  0.4722940000000  0.4805720000000 1.0
C      1  0.5832000000000  0.4991420000000  0.4629700000000 1.0
C      1  0.5840720000000  0.5288100000000  0.4692060000000 1.0
C      1  0.5831310000000  0.5394100000000  0.4956680000000 1.0
C      1  0.5822670000000  0.5096260000000  0.5357250000000 1.0
C      1  0.5832220000000  0.4810840000000  0.5358730000000 1.0
C      1  0.4236070000000  0.5506500000000  0.5344700000000 1.0
C      1  0.4218110000000  0.5044520000000  0.5608820000000 1.0
C      1  0.4197020000000  0.4541410000000  0.5416360000000 1.0
C      1  0.4195570000000  0.4383880000000  0.4893350000000 1.0
C      1  0.4198920000000  0.4694620000000  0.4442870000000 1.0
C      1  0.4210810000000  0.5233470000000  0.4417640000000 1.0
C      1  0.4220290000000  0.5588970000000  0.4811150000000 1.0
C      1  0.5726420000000  0.5187510000000  0.5109740000000 1.0
C      1  0.4661980000000  0.4981420000000  0.4762060000000 1.0
C      1  0.4949560000000  0.5034240000000  0.5015470000000 1.0
C      1  0.4499890000000  0.4925440000000  0.4986330000000 1.0
C      1  0.5341520000000  0.4898620000000  0.4838550000000 1.0
C      1  0.5419530000000  0.5124090000000  0.5039510000000 1.0
END
