TITL C-57385-9706-8 -77.3873442318334 125000 -468.116399865456 0 0 69 (C1) n - 1
REM
REM in /rds/project/t2_vol4/rds-t2-cs072/BORA/CARBON/from-Arr/AIRSS/Generating-Clusters/GAP-ML-2020/Higher-Symm/SD-CG/HFTN-CG
REM
REM
REM
REM
REM
REM ./C.cell (b20cbc046b6831c77cfcea5457e17084)
REM AIRSS Version 0.9.1 bugfix July 2018 build 013d7b7c2542+ Fri, 06 Jul 2018 19:26:36 +0100
REM compiler GCC version 9.3.0
REM options -cpp -mtune=generic -march=x86-64 -g -O0
REM seed -1126085065 474052427 1740148822 -391951178 872831880 -60205131 1501491681 1747270654 1703908440 495165274 -583928876 -1305296392 -1864160863 1989558924 1955269417 1395891181 -850913345 1628521533 -1655340429 1686453787 -259787825 901309662 -546729648 -82087937 543713742 -1183701640 -923986314 -36938191 -1215944610 898724077 884783268 -695558722 1820785520
REM
CELL 1.54180   50.00000   50.00000   50.00000   90.00000   90.00000   90.00000
LATT -1
SFAC C  
C      1  0.5012300000000  0.4825500000000  0.4739140000000 1.0
C      1  0.4994750000000  0.5188920000000  0.5294610000000 1.0
C      1  0.5092510000000  0.4815240000000  0.5266420000000 1.0
C      1  0.4865200000000  0.5188960000000  0.4769870000000 1.0
C      1  0.5630190000000  0.4971410000000  0.5279920000000 1.0
C      1  0.5626450000000  0.5024460000000  0.4696260000000 1.0
C      1  0.4390420000000  0.4632410000000  0.4861640000000 1.0
C      1  0.4386120000000  0.5384100000000  0.5118320000000 1.0
C      1  0.4841930000000  0.5062010000000  0.4286950000000 1.0
C      1  0.4832040000000  0.4942340000000  0.5696510000000 1.0
C      1  0.5188430000000  0.5316310000000  0.5674310000000 1.0
C      1  0.5195440000000  0.4695010000000  0.4328940000000 1.0
C      1  0.5198700000000  0.4394330000000  0.5330230000000 1.0
C      1  0.5169910000000  0.5567060000000  0.4671580000000 1.0
C      1  0.5497000000000  0.5236060000000  0.4546140000000 1.0
C      1  0.5502780000000  0.4755770000000  0.5432060000000 1.0
C      1  0.5461380000000  0.5288620000000  0.5096710000000 1.0
C      1  0.5481220000000  0.4695010000000  0.4886040000000 1.0
C      1  0.4826170000000  0.4650080000000  0.5638870000000 1.0
C      1  0.4832920000000  0.5350750000000  0.4341880000000 1.0
C      1  0.5455620000000  0.5476680000000  0.4686140000000 1.0
C      1  0.5475630000000  0.4508380000000  0.5309190000000 1.0
C      1  0.4406800000000  0.5282780000000  0.4571450000000 1.0
C      1  0.4389890000000  0.4734030000000  0.5410080000000 1.0
C      1  0.5095960000000  0.5429950000000  0.4412480000000 1.0
C      1  0.5089550000000  0.4552260000000  0.5576410000000 1.0
C      1  0.4409540000000  0.5019960000000  0.5459360000000 1.0
C      1  0.4424920000000  0.4996900000000  0.4528440000000 1.0
C      1  0.5129060000000  0.4382240000000  0.4699200000000 1.0
C      1  0.5126660000000  0.5610840000000  0.5287980000000 1.0
C      1  0.5460630000000  0.4673670000000  0.4384420000000 1.0
C      1  0.5450220000000  0.5321890000000  0.5593590000000 1.0
C      1  0.5166530000000  0.5354990000000  0.5130650000000 1.0
C      1  0.5191220000000  0.4627410000000  0.4863690000000 1.0
C      1  0.5557790000000  0.5503650000000  0.4934240000000 1.0
C      1  0.5574850000000  0.4489530000000  0.5060960000000 1.0
C      1  0.5576170000000  0.4757100000000  0.4608930000000 1.0
C      1  0.5566880000000  0.5234520000000  0.5372270000000 1.0
C      1  0.5265910000000  0.5208230000000  0.4375510000000 1.0
C      1  0.5236680000000  0.4802030000000  0.5546620000000 1.0
C      1  0.5012600000000  0.5401200000000  0.4882840000000 1.0
C      1  0.5066140000000  0.4575880000000  0.5121600000000 1.0
C      1  0.4790780000000  0.5596590000000  0.4994400000000 1.0
C      1  0.4799270000000  0.4434730000000  0.5013960000000 1.0
C      1  0.4643100000000  0.5127120000000  0.5595800000000 1.0
C      1  0.4662100000000  0.4885640000000  0.4408980000000 1.0
C      1  0.4384740000000  0.5430170000000  0.4827260000000 1.0
C      1  0.4372510000000  0.4589260000000  0.5150610000000 1.0
C      1  0.4652260000000  0.4534170000000  0.4784400000000 1.0
C      1  0.4639200000000  0.5484730000000  0.5216900000000 1.0
C      1  0.4623750000000  0.5456840000000  0.4489500000000 1.0
C      1  0.4609140000000  0.4562060000000  0.5493130000000 1.0
C      1  0.5017820000000  0.4499010000000  0.4455080000000 1.0
C      1  0.5010040000000  0.5517940000000  0.5544550000000 1.0
C      1  0.4608710000000  0.5595040000000  0.4752300000000 1.0
C      1  0.4601380000000  0.4428540000000  0.5232900000000 1.0
C      1  0.5022480000000  0.5785990000000  0.5078230000000 1.0
C      1  0.5013060000000  0.4211110000000  0.4911630000000 1.0
C      1  0.5102540000000  0.5028740000000  0.5697410000000 1.0
C      1  0.5114260000000  0.4976400000000  0.4286270000000 1.0
C      1  0.4292160000000  0.4821260000000  0.4692560000000 1.0
C      1  0.4292650000000  0.5184180000000  0.5276550000000 1.0
C      1  0.4778230000000  0.5363610000000  0.5450000000000 1.0
C      1  0.4798240000000  0.4658120000000  0.4558010000000 1.0
C      1  0.5149530000000  0.5812370000000  0.4835160000000 1.0
C      1  0.5145580000000  0.4169350000000  0.5152010000000 1.0
C      1  0.4841760000000  0.4966920000000  0.4915380000000 1.0
C      1  0.4872270000000  0.4965590000000  0.5187460000000 1.0
C      1  0.5571800000000  0.4996700000000  0.4989120000000 1.0
END
