TITL C-57381-6725-3 252.296512449318 125000 -799.702557678199 0 0 117 (C1) n - 1
REM
REM in /rds/project/t2_vol4/rds-t2-cs072/BORA/CARBON/from-Arr/AIRSS/Generating-Clusters/GAP-ML-2020/Higher-Symm/SD-CG/HFTN-CG
REM
REM
REM
REM
REM
REM ./C.cell (b20cbc046b6831c77cfcea5457e17084)
REM AIRSS Version 0.9.1 bugfix July 2018 build 013d7b7c2542+ Fri, 06 Jul 2018 19:26:36 +0100
REM compiler GCC version 9.3.0
REM options -cpp -mtune=generic -march=x86-64 -g -O0
REM seed 552701508 -435994490 1971827305 -2124850228 1098137579 -908339612 -124481636 1448491130 -990098030 1126105161 -45988514 1918958206 1003348877 696275591 579917073 978062568 2104980490 945473451 -215476533 786812513 -238034921 -373565780 -1204287344 -1504169199 8904183 -1130626625 2051157655 1930428923 377084222 1316304372 1986216325 -711745310 1598876639
REM
CELL 1.54180   50.00000   50.00000   50.00000   90.00000   90.00000   90.00000
LATT -1
SFAC C  
C      1  0.5206290000000  0.5728000000000  0.4816830000000 1.0
C      1  0.5519010000000  0.4453610000000  0.4818270000000 1.0
C      1  0.4274780000000  0.4819640000000  0.4816510000000 1.0
C      1  0.5339110000000  0.5857590000000  0.4585650000000 1.0
C      1  0.5569810000000  0.4276820000000  0.4586140000000 1.0
C      1  0.4094030000000  0.4865040000000  0.4585370000000 1.0
C      1  0.4836890000000  0.4980220000000  0.4578980000000 1.0
C      1  0.5072180000000  0.5216220000000  0.4582460000000 1.0
C      1  0.5128420000000  0.4799840000000  0.4574640000000 1.0
C      1  0.4475730000000  0.4605440000000  0.4727250000000 1.0
C      1  0.4916250000000  0.5674840000000  0.4726610000000 1.0
C      1  0.5605330000000  0.4735490000000  0.4724770000000 1.0
C      1  0.4071730000000  0.5106210000000  0.4437230000000 1.0
C      1  0.5556420000000  0.5753590000000  0.4432690000000 1.0
C      1  0.5374740000000  0.4137590000000  0.4431100000000 1.0
C      1  0.5362960000000  0.5447420000000  0.4863210000000 1.0
C      1  0.5202710000000  0.4447630000000  0.4869660000000 1.0
C      1  0.4433760000000  0.5093730000000  0.4862760000000 1.0
C      1  0.4892220000000  0.5356160000000  0.4784920000000 1.0
C      1  0.5333220000000  0.4913370000000  0.4776590000000 1.0
C      1  0.4766650000000  0.4745080000000  0.4784860000000 1.0
C      1  0.4671290000000  0.5778170000000  0.4869640000000 1.0
C      1  0.5818860000000  0.4894350000000  0.4864480000000 1.0
C      1  0.4503720000000  0.4339240000000  0.4865850000000 1.0
C      1  0.5178230000000  0.4587830000000  0.5128740000000 1.0
C      1  0.4562390000000  0.5049270000000  0.5124940000000 1.0
C      1  0.5259700000000  0.5358820000000  0.5125520000000 1.0
C      1  0.5619660000000  0.4790320000000  0.4412060000000 1.0
C      1  0.4514790000000  0.4571050000000  0.4420070000000 1.0
C      1  0.4868070000000  0.5649030000000  0.4411660000000 1.0
C      1  0.5565460000000  0.5053580000000  0.4325010000000 1.0
C      1  0.4764290000000  0.4478980000000  0.4328270000000 1.0
C      1  0.4669180000000  0.5468040000000  0.4325930000000 1.0
C      1  0.5852010000000  0.4931830000000  0.5128090000000 1.0
C      1  0.4519470000000  0.4294100000000  0.5129370000000 1.0
C      1  0.4624200000000  0.5779500000000  0.5133850000000 1.0
C      1  0.4292640000000  0.5502710000000  0.5221190000000 1.0
C      1  0.5785780000000  0.5357670000000  0.5218540000000 1.0
C      1  0.4917250000000  0.4133510000000  0.5221060000000 1.0
C      1  0.4756210000000  0.5169810000000  0.5936490000000 1.0
C      1  0.5268290000000  0.5127030000000  0.5934930000000 1.0
C      1  0.4975430000000  0.4705410000000  0.5936880000000 1.0
C      1  0.5295000000000  0.5059960000000  0.4198470000000 1.0
C      1  0.4903200000000  0.4709590000000  0.4194330000000 1.0
C      1  0.4799950000000  0.5232750000000  0.4195290000000 1.0
C      1  0.4890160000000  0.4311550000000  0.4538820000000 1.0
C      1  0.4466800000000  0.5438480000000  0.4538640000000 1.0
C      1  0.5635810000000  0.5242660000000  0.4537400000000 1.0
C      1  0.5190510000000  0.4788200000000  0.4246490000000 1.0
C      1  0.4733550000000  0.4944590000000  0.4256400000000 1.0
C      1  0.5087200000000  0.5274500000000  0.4244360000000 1.0
C      1  0.5669200000000  0.5572370000000  0.4840850000000 1.0
C      1  0.5160810000000  0.4116860000000  0.4842670000000 1.0
C      1  0.4168580000000  0.5295460000000  0.4841650000000 1.0
C      1  0.4731580000000  0.5271220000000  0.5234880000000 1.0
C      1  0.5360860000000  0.5096490000000  0.5231200000000 1.0
C      1  0.4902010000000  0.4631380000000  0.5236540000000 1.0
C      1  0.5361770000000  0.5598330000000  0.5333310000000 1.0
C      1  0.5336540000000  0.4384930000000  0.5336020000000 1.0
C      1  0.4302720000000  0.5014530000000  0.5332280000000 1.0
C      1  0.5337790000000  0.5817590000000  0.5091320000000 1.0
C      1  0.5538010000000  0.4295280000000  0.5095100000000 1.0
C      1  0.4128310000000  0.4883430000000  0.5088660000000 1.0
C      1  0.5129300000000  0.4122850000000  0.4554480000000 1.0
C      1  0.4184090000000  0.5326060000000  0.4555470000000 1.0
C      1  0.5683030000000  0.5542480000000  0.4554130000000 1.0
C      1  0.5511930000000  0.4356760000000  0.4322850000000 1.0
C      1  0.4196580000000  0.4883160000000  0.4324640000000 1.0
C      1  0.5300620000000  0.5768470000000  0.4321840000000 1.0
C      1  0.4023100000000  0.5147310000000  0.5044230000000 1.0
C      1  0.5617330000000  0.5772220000000  0.5045330000000 1.0
C      1  0.5361380000000  0.4071820000000  0.5049600000000 1.0
C      1  0.5072570000000  0.5531580000000  0.5754650000000 1.0
C      1  0.5423500000000  0.4671750000000  0.5755580000000 1.0
C      1  0.4504040000000  0.4797730000000  0.5754390000000 1.0
C      1  0.4146470000000  0.5261490000000  0.5275500000000 1.0
C      1  0.5654070000000  0.5606920000000  0.5275630000000 1.0
C      1  0.5199180000000  0.4125900000000  0.5278490000000 1.0
C      1  0.4831140000000  0.5670670000000  0.5737260000000 1.0
C      1  0.5664330000000  0.4811060000000  0.5736120000000 1.0
C      1  0.4503940000000  0.4519160000000  0.5736460000000 1.0
C      1  0.5104440000000  0.5577870000000  0.4273980000000 1.0
C      1  0.5447930000000  0.4621470000000  0.4267380000000 1.0
C      1  0.4463410000000  0.4814750000000  0.4287460000000 1.0
C      1  0.4759900000000  0.4829200000000  0.5063670000000 1.0
C      1  0.4970360000000  0.5310020000000  0.5062460000000 1.0
C      1  0.5266170000000  0.4869680000000  0.5059100000000 1.0
C      1  0.5353240000000  0.5207300000000  0.4694190000000 1.0
C      1  0.5000950000000  0.4560480000000  0.4696600000000 1.0
C      1  0.4635760000000  0.5216860000000  0.4695820000000 1.0
C      1  0.4896460000000  0.4081150000000  0.4947690000000 1.0
C      1  0.4261530000000  0.5544830000000  0.4946700000000 1.0
C      1  0.5835680000000  0.5364180000000  0.4944310000000 1.0
C      1  0.5290690000000  0.4441620000000  0.5628610000000 1.0
C      1  0.4371560000000  0.5027220000000  0.5625500000000 1.0
C      1  0.5337960000000  0.5531250000000  0.5625950000000 1.0
C      1  0.4563870000000  0.5567400000000  0.5321440000000 1.0
C      1  0.5703130000000  0.5091230000000  0.5317460000000 1.0
C      1  0.4729700000000  0.4341310000000  0.5320660000000 1.0
C      1  0.4749530000000  0.4887340000000  0.5903650000000 1.0
C      1  0.5026950000000  0.5274260000000  0.5903180000000 1.0
C      1  0.5223630000000  0.4840600000000  0.5903010000000 1.0
C      1  0.4722000000000  0.4197400000000  0.4762250000000 1.0
C      1  0.4447410000000  0.5642830000000  0.4762740000000 1.0
C      1  0.5820540000000  0.5155240000000  0.4760000000000 1.0
C      1  0.5021320000000  0.5260350000000  0.5588300000000 1.0
C      1  0.5212960000000  0.4851020000000  0.5587680000000 1.0
C      1  0.4764290000000  0.4890310000000  0.5588660000000 1.0
C      1  0.4984670000000  0.4500260000000  0.5706780000000 1.0
C      1  0.4573840000000  0.5263860000000  0.5705620000000 1.0
C      1  0.5439860000000  0.5236740000000  0.5702730000000 1.0
C      1  0.4774280000000  0.5167250000000  0.5506600000000 1.0
C      1  0.5254100000000  0.5111530000000  0.5504730000000 1.0
C      1  0.4968320000000  0.4722040000000  0.5507350000000 1.0
C      1  0.5672080000000  0.5056130000000  0.5619920000000 1.0
C      1  0.4712550000000  0.4387440000000  0.5623760000000 1.0
C      1  0.4612860000000  0.5556250000000  0.5623640000000 1.0
END
