TITL C-57375-9549-7 6.49148685597409 125000 -858.997447808597 0 0 126 (C1) n - 1
REM
REM in /rds/project/t2_vol4/rds-t2-cs072/BORA/CARBON/from-Arr/AIRSS/Generating-Clusters/GAP-ML-2020/Higher-Symm/SD-CG/HFTN-CG
REM
REM
REM
REM
REM
REM ./C.cell (b20cbc046b6831c77cfcea5457e17084)
REM AIRSS Version 0.9.1 bugfix July 2018 build 013d7b7c2542+ Fri, 06 Jul 2018 19:26:36 +0100
REM compiler GCC version 9.3.0
REM options -cpp -mtune=generic -march=x86-64 -g -O0
REM seed -359148030 2060158217 -158348155 237656677 104591262 975371700 1480191601 -2055209336 -1486244140 548367883 1555914250 -740527201 -211224334 -507290446 -793355883 197264116 257401627 1306379498 -1624551004 1425806558 338438757 2138034710 1441091400 149084836 1108328315 314639281 -1984206171 -1378309876 -498313942 -2043706741 823201684 -1366415338 298839544
REM
CELL 1.54180   50.00000   50.00000   50.00000   90.00000   90.00000   90.00000
LATT -1
SFAC C  
C      1  0.5748070000000  0.5292910000000  0.4814800000000 1.0
C      1  0.5632340000000  0.5376970000000  0.5111980000000 1.0
C      1  0.5744320000000  0.5155430000000  0.5302110000000 1.0
C      1  0.5604680000000  0.4861030000000  0.5259640000000 1.0
C      1  0.5584970000000  0.4675940000000  0.5032880000000 1.0
C      1  0.5581480000000  0.4770930000000  0.4760340000000 1.0
C      1  0.5610260000000  0.5068960000000  0.4670330000000 1.0
C      1  0.4513330000000  0.4743040000000  0.5188410000000 1.0
C      1  0.4501270000000  0.4698110000000  0.4899120000000 1.0
C      1  0.4489620000000  0.4893260000000  0.4690920000000 1.0
C      1  0.4493220000000  0.5184200000000  0.4720710000000 1.0
C      1  0.4402670000000  0.5306140000000  0.4958010000000 1.0
C      1  0.4499280000000  0.5237220000000  0.5216140000000 1.0
C      1  0.4414320000000  0.4976830000000  0.5298390000000 1.0
C      1  0.4596520000000  0.4418250000000  0.4415890000000 1.0
C      1  0.4566030000000  0.5095470000000  0.4162190000000 1.0
C      1  0.4582040000000  0.5700430000000  0.4564280000000 1.0
C      1  0.4565810000000  0.5786870000000  0.5284100000000 1.0
C      1  0.4583790000000  0.5263130000000  0.5775530000000 1.0
C      1  0.4564670000000  0.4550800000000  0.5701540000000 1.0
C      1  0.4600550000000  0.4181930000000  0.5099510000000 1.0
C      1  0.4253800000000  0.5557540000000  0.4926840000000 1.0
C      1  0.4266940000000  0.5392620000000  0.5380450000000 1.0
C      1  0.4262430000000  0.4944330000000  0.5548840000000 1.0
C      1  0.4275360000000  0.4541600000000  0.5294350000000 1.0
C      1  0.4290150000000  0.4484110000000  0.4828170000000 1.0
C      1  0.4276620000000  0.4810160000000  0.4485950000000 1.0
C      1  0.4268540000000  0.5284490000000  0.4529440000000 1.0
C      1  0.5057070000000  0.5484450000000  0.5787590000000 1.0
C      1  0.4983900000000  0.4624640000000  0.5919190000000 1.0
C      1  0.5064020000000  0.4119170000000  0.5319570000000 1.0
C      1  0.5060750000000  0.4211170000000  0.4493440000000 1.0
C      1  0.4998850000000  0.4920190000000  0.4003920000000 1.0
C      1  0.5054280000000  0.5651750000000  0.4336710000000 1.0
C      1  0.5008570000000  0.5976540000000  0.5152360000000 1.0
C      1  0.5301420000000  0.5097020000000  0.4669660000000 1.0
C      1  0.5204160000000  0.5265120000000  0.4898640000000 1.0
C      1  0.5323160000000  0.5315010000000  0.5149680000000 1.0
C      1  0.5214680000000  0.5059240000000  0.5257680000000 1.0
C      1  0.5313460000000  0.4795540000000  0.5261020000000 1.0
C      1  0.5283650000000  0.4657660000000  0.4982450000000 1.0
C      1  0.5284380000000  0.4802260000000  0.4718340000000 1.0
C      1  0.5259900000000  0.5770810000000  0.4508190000000 1.0
C      1  0.5201420000000  0.5828990000000  0.5310360000000 1.0
C      1  0.5259100000000  0.5287380000000  0.5868780000000 1.0
C      1  0.5227130000000  0.4607510000000  0.5778850000000 1.0
C      1  0.5276440000000  0.4167010000000  0.5136910000000 1.0
C      1  0.5266780000000  0.4388500000000  0.4396610000000 1.0
C      1  0.5231630000000  0.4984050000000  0.4136170000000 1.0
C      1  0.5706920000000  0.4410170000000  0.5100880000000 1.0
C      1  0.5703020000000  0.4564960000000  0.4561410000000 1.0
C      1  0.5820570000000  0.4979760000000  0.4462920000000 1.0
C      1  0.5693490000000  0.5486240000000  0.4590090000000 1.0
C      1  0.5635330000000  0.5673210000000  0.5165650000000 1.0
C      1  0.5671920000000  0.5173780000000  0.5592390000000 1.0
C      1  0.5778090000000  0.4737470000000  0.5465310000000 1.0
C      1  0.4744990000000  0.4859950000000  0.4104590000000 1.0
C      1  0.4767770000000  0.5589810000000  0.4345340000000 1.0
C      1  0.4742320000000  0.5899470000000  0.5073820000000 1.0
C      1  0.4769560000000  0.5495820000000  0.5722250000000 1.0
C      1  0.4732620000000  0.4729620000000  0.5866670000000 1.0
C      1  0.4786250000000  0.4191630000000  0.5335810000000 1.0
C      1  0.4783590000000  0.4237860000000  0.4570810000000 1.0
C      1  0.4730410000000  0.5020300000000  0.5812070000000 1.0
C      1  0.4748780000000  0.4389870000000  0.5544110000000 1.0
C      1  0.4744750000000  0.4194850000000  0.4854350000000 1.0
C      1  0.4739540000000  0.4621220000000  0.4272500000000 1.0
C      1  0.4729770000000  0.5325760000000  0.4229060000000 1.0
C      1  0.4715390000000  0.5800700000000  0.4799390000000 1.0
C      1  0.4729030000000  0.5668380000000  0.5495370000000 1.0
C      1  0.5309050000000  0.4291540000000  0.5417510000000 1.0
C      1  0.5304250000000  0.4222280000000  0.4671300000000 1.0
C      1  0.5416520000000  0.4799180000000  0.4242880000000 1.0
C      1  0.5264180000000  0.5450750000000  0.4304050000000 1.0
C      1  0.5240940000000  0.5977280000000  0.4974230000000 1.0
C      1  0.5282330000000  0.5542600000000  0.5610620000000 1.0
C      1  0.5416300000000  0.4824530000000  0.5809150000000 1.0
C      1  0.6200630000000  0.5160080000000  0.5052260000000 1.0
C      1  0.6020350000000  0.5039480000000  0.5224110000000 1.0
C      1  0.5994740000000  0.4751620000000  0.5271290000000 1.0
C      1  0.5951980000000  0.4560300000000  0.5045730000000 1.0
C      1  0.5956080000000  0.4639050000000  0.4752840000000 1.0
C      1  0.6010230000000  0.4906160000000  0.4663620000000 1.0
C      1  0.6017520000000  0.5136470000000  0.4843970000000 1.0
C      1  0.4087510000000  0.4685260000000  0.4892740000000 1.0
C      1  0.4083480000000  0.4883530000000  0.4690230000000 1.0
C      1  0.4062990000000  0.5167300000000  0.4708640000000 1.0
C      1  0.4086210000000  0.5314660000000  0.4956080000000 1.0
C      1  0.4050700000000  0.5242000000000  0.5233930000000 1.0
C      1  0.4093550000000  0.4967640000000  0.5309800000000 1.0
C      1  0.4069760000000  0.4715380000000  0.5172090000000 1.0
C      1  0.4925240000000  0.5338060000000  0.4911960000000 1.0
C      1  0.4800820000000  0.5268340000000  0.5200750000000 1.0
C      1  0.4938560000000  0.5027860000000  0.5323090000000 1.0
C      1  0.4824030000000  0.4758660000000  0.5216210000000 1.0
C      1  0.4824670000000  0.4685490000000  0.4919670000000 1.0
C      1  0.4822480000000  0.4878020000000  0.4688700000000 1.0
C      1  0.4798120000000  0.5177610000000  0.4699170000000 1.0
C      1  0.5180120000000  0.5534340000000  0.5334730000000 1.0
C      1  0.5207080000000  0.5017490000000  0.5819160000000 1.0
C      1  0.5209730000000  0.4570580000000  0.5472950000000 1.0
C      1  0.5205490000000  0.4361940000000  0.4919210000000 1.0
C      1  0.5211760000000  0.4680480000000  0.4436500000000 1.0
C      1  0.5178360000000  0.5181760000000  0.4383670000000 1.0
C      1  0.5163760000000  0.5808730000000  0.4765670000000 1.0
C      1  0.5485000000000  0.5579440000000  0.4451980000000 1.0
C      1  0.5449860000000  0.5866150000000  0.5162840000000 1.0
C      1  0.5487320000000  0.5355090000000  0.5708680000000 1.0
C      1  0.5666940000000  0.4891510000000  0.5686480000000 1.0
C      1  0.5545300000000  0.4240680000000  0.5251190000000 1.0
C      1  0.5523110000000  0.4335610000000  0.4509920000000 1.0
C      1  0.5681740000000  0.4767120000000  0.4327300000000 1.0
C      1  0.4940460000000  0.5639800000000  0.4847000000000 1.0
C      1  0.4899980000000  0.5492570000000  0.5349050000000 1.0
C      1  0.4960660000000  0.4992810000000  0.5647220000000 1.0
C      1  0.4928940000000  0.4560640000000  0.5404010000000 1.0
C      1  0.4925690000000  0.4411160000000  0.4876310000000 1.0
C      1  0.4930080000000  0.4750210000000  0.4440210000000 1.0
C      1  0.4900000000000  0.5229340000000  0.4429840000000 1.0
C      1  0.4333970000000  0.5230500000000  0.5640740000000 1.0
C      1  0.4325410000000  0.4645410000000  0.5580060000000 1.0
C      1  0.4352010000000  0.4324660000000  0.5091800000000 1.0
C      1  0.4350580000000  0.4508100000000  0.4528030000000 1.0
C      1  0.4327980000000  0.5064360000000  0.4313190000000 1.0
C      1  0.4331610000000  0.5577390000000  0.4627720000000 1.0
C      1  0.4321950000000  0.5653420000000  0.5216110000000 1.0
END
