TITL C-57384-7475-3 -0.0714230425754782 125000 -218.497017713746 0 0 33 (Cs) n - 1
REM
REM in /rds/project/t2_vol4/rds-t2-cs072/BORA/CARBON/from-Arr/AIRSS/Generating-Clusters/GAP-ML-2020/Higher-Symm/SD-CG/HFTN-CG
REM
REM
REM
REM
REM
REM ./C.cell (b20cbc046b6831c77cfcea5457e17084)
REM AIRSS Version 0.9.1 bugfix July 2018 build 013d7b7c2542+ Fri, 06 Jul 2018 19:26:36 +0100
REM compiler GCC version 9.3.0
REM options -cpp -mtune=generic -march=x86-64 -g -O0
REM seed -1302742102 1416400576 -517315492 -522373447 -1951565462 872565824 -985147524 -338091633 1003107446 1865604434 439455723 1369805355 669440294 1476159337 204225553 -1871470249 -1905738248 1351887095 60074257 2087464388 -1174006726 -1948503112 -796657765 -1609849456 -2085479791 -1880841022 -1749561323 1578633033 1000527595 -1332977336 366681752 636044911 1680150904
REM
CELL 1.54180   50.00000   50.00000   50.00000   90.00000   90.00000   90.00000
LATT -1
SFAC C  
C      1  0.4421980000000  0.5224880000000  0.5098880000000 1.0
C      1  0.4421770000000  0.4961730000000  0.5222320000000 1.0
C      1  0.4414920000000  0.4763200000000  0.5009440000000 1.0
C      1  0.4422080000000  0.4904110000000  0.4757300000000 1.0
C      1  0.4415250000000  0.5188100000000  0.4810120000000 1.0
C      1  0.5346880000000  0.5065850000000  0.4578600000000 1.0
C      1  0.5372250000000  0.5401500000000  0.4938410000000 1.0
C      1  0.5353610000000  0.5189640000000  0.5367510000000 1.0
C      1  0.5371720000000  0.4724210000000  0.5256120000000 1.0
C      1  0.5346570000000  0.4662140000000  0.4767980000000 1.0
C      1  0.4670920000000  0.4932450000000  0.5366240000000 1.0
C      1  0.4650700000000  0.4604120000000  0.5032100000000 1.0
C      1  0.4669240000000  0.4837650000000  0.4616010000000 1.0
C      1  0.4651240000000  0.5306920000000  0.4702430000000 1.0
C      1  0.4671250000000  0.5353940000000  0.5168520000000 1.0
C      1  0.5081460000000  0.5166200000000  0.5317100000000 1.0
C      1  0.5087050000000  0.4730220000000  0.5151820000000 1.0
C      1  0.5080370000000  0.4652760000000  0.4873030000000 1.0
C      1  0.5080760000000  0.5152950000000  0.4638390000000 1.0
C      1  0.5087510000000  0.5317820000000  0.4876180000000 1.0
C      1  0.4809580000000  0.4649660000000  0.4793280000000 1.0
C      1  0.4809930000000  0.5093960000000  0.4584860000000 1.0
C      1  0.4812150000000  0.5399700000000  0.4921960000000 1.0
C      1  0.4812570000000  0.5186980000000  0.5360940000000 1.0
C      1  0.4811620000000  0.4713420000000  0.5243890000000 1.0
C      1  0.5450860000000  0.4931030000000  0.5415020000000 1.0
C      1  0.5509390000000  0.4739010000000  0.5000270000000 1.0
C      1  0.5407640000000  0.4797800000000  0.4532280000000 1.0
C      1  0.5509750000000  0.5195120000000  0.4786310000000 1.0
C      1  0.5451220000000  0.5391370000000  0.5199080000000 1.0
C      1  0.4792170000000  0.5004420000000  0.4971730000000 1.0
C      1  0.5405310000000  0.4993460000000  0.4949380000000 1.0
C      1  0.5109440000000  0.5042120000000  0.5052630000000 1.0
END
