TITL C-57378-6800-3 -124.956908404225 125000 -903.460729409374 0 0 132 (C1) n - 1
REM
REM in /rds/project/t2_vol4/rds-t2-cs072/BORA/CARBON/from-Arr/AIRSS/Generating-Clusters/GAP-ML-2020/Higher-Symm/SD-CG/HFTN-CG
REM
REM
REM
REM
REM
REM ./C.cell (b20cbc046b6831c77cfcea5457e17084)
REM AIRSS Version 0.9.1 bugfix July 2018 build 013d7b7c2542+ Fri, 06 Jul 2018 19:26:36 +0100
REM compiler GCC version 9.3.0
REM options -cpp -mtune=generic -march=x86-64 -g -O0
REM seed 380128202 -1389703159 -1989458403 696675157 -14626789 269028182 -277072260 732479920 1033748082 555651391 -1774163060 -1351353260 -1561106381 522627431 2086008289 554729056 523785934 2138443542 1177210753 -899768292 -431897670 -1129946752 -107664410 407290224 -2144001599 1942229014 987009147 -765224555 178282717 -1727030048 605524647 73804905 1298191942
REM
CELL 1.54180   50.00000   50.00000   50.00000   90.00000   90.00000   90.00000
LATT -1
SFAC C  
C      1  0.5903930000000  0.5228430000000  0.5097840000000 1.0
C      1  0.4440660000000  0.4445710000000  0.4374520000000 1.0
C      1  0.4957600000000  0.5831630000000  0.5254200000000 1.0
C      1  0.4865260000000  0.5808750000000  0.5519730000000 1.0
C      1  0.5194820000000  0.4694110000000  0.5576000000000 1.0
C      1  0.5789630000000  0.5218150000000  0.5357360000000 1.0
C      1  0.5967920000000  0.4718060000000  0.5126520000000 1.0
C      1  0.4419400000000  0.4855750000000  0.4942920000000 1.0
C      1  0.4378330000000  0.5296320000000  0.5109180000000 1.0
C      1  0.4716210000000  0.4665470000000  0.5357840000000 1.0
C      1  0.4859340000000  0.5707970000000  0.4396180000000 1.0
C      1  0.4109020000000  0.4793840000000  0.4586930000000 1.0
C      1  0.5018980000000  0.5460090000000  0.4526390000000 1.0
C      1  0.5312630000000  0.4084670000000  0.5011830000000 1.0
C      1  0.3979270000000  0.4933280000000  0.5053600000000 1.0
C      1  0.4818070000000  0.4163260000000  0.5258780000000 1.0
C      1  0.5791700000000  0.5107150000000  0.4516710000000 1.0
C      1  0.4149170000000  0.5098740000000  0.5566680000000 1.0
C      1  0.4773160000000  0.5436280000000  0.4132080000000 1.0
C      1  0.5082870000000  0.5662990000000  0.5659880000000 1.0
C      1  0.5906520000000  0.4920900000000  0.4688430000000 1.0
C      1  0.5576390000000  0.4968670000000  0.5346590000000 1.0
C      1  0.5486490000000  0.5349760000000  0.5689250000000 1.0
C      1  0.5265780000000  0.4384660000000  0.4216630000000 1.0
C      1  0.4753440000000  0.5891910000000  0.5072420000000 1.0
C      1  0.5886650000000  0.4961120000000  0.4973910000000 1.0
C      1  0.4154950000000  0.5079260000000  0.4529440000000 1.0
C      1  0.5577190000000  0.4880940000000  0.5780370000000 1.0
C      1  0.5559440000000  0.4115430000000  0.5127110000000 1.0
C      1  0.4467390000000  0.5496570000000  0.5629710000000 1.0
C      1  0.4621740000000  0.4626840000000  0.4241340000000 1.0
C      1  0.4737070000000  0.5380310000000  0.4856950000000 1.0
C      1  0.4754220000000  0.5041250000000  0.5608180000000 1.0
C      1  0.4860390000000  0.5189970000000  0.4478590000000 1.0
C      1  0.4824160000000  0.5094810000000  0.4765790000000 1.0
C      1  0.4138950000000  0.4736660000000  0.4886890000000 1.0
C      1  0.5597940000000  0.5143960000000  0.5851140000000 1.0
C      1  0.4733860000000  0.4791190000000  0.5785930000000 1.0
C      1  0.5305760000000  0.5049610000000  0.4447870000000 1.0
C      1  0.4205930000000  0.4628870000000  0.5335370000000 1.0
C      1  0.5059900000000  0.5148830000000  0.5655390000000 1.0
C      1  0.4584080000000  0.5725770000000  0.5492060000000 1.0
C      1  0.5166970000000  0.4231140000000  0.5459280000000 1.0
C      1  0.4629960000000  0.5444510000000  0.5133700000000 1.0
C      1  0.4598640000000  0.5298290000000  0.4378770000000 1.0
C      1  0.4644960000000  0.4206310000000  0.5038190000000 1.0
C      1  0.4225680000000  0.5383570000000  0.5526760000000 1.0
C      1  0.5116670000000  0.4993540000000  0.5902650000000 1.0
C      1  0.4852130000000  0.4956510000000  0.6014050000000 1.0
C      1  0.4674500000000  0.5749190000000  0.4599800000000 1.0
C      1  0.5472480000000  0.5257170000000  0.5008640000000 1.0
C      1  0.5706080000000  0.4743160000000  0.5519200000000 1.0
C      1  0.5101010000000  0.4090210000000  0.5215550000000 1.0
C      1  0.5514170000000  0.5682060000000  0.5203740000000 1.0
C      1  0.4191030000000  0.4508320000000  0.5087900000000 1.0
C      1  0.5295120000000  0.5222880000000  0.5485290000000 1.0
C      1  0.4863000000000  0.5104950000000  0.5239510000000 1.0
C      1  0.4517890000000  0.4289900000000  0.4595560000000 1.0
C      1  0.4420070000000  0.4836530000000  0.4241840000000 1.0
C      1  0.5645310000000  0.5675550000000  0.4954460000000 1.0
C      1  0.4677170000000  0.5317770000000  0.5756310000000 1.0
C      1  0.5312510000000  0.4798250000000  0.5834900000000 1.0
C      1  0.4832720000000  0.5819290000000  0.4819300000000 1.0
C      1  0.4129950000000  0.4917600000000  0.5314040000000 1.0
C      1  0.4723880000000  0.5196710000000  0.6019780000000 1.0
C      1  0.5048120000000  0.5054540000000  0.4263550000000 1.0
C      1  0.5321370000000  0.4472860000000  0.5424680000000 1.0
C      1  0.5301320000000  0.5359280000000  0.4066660000000 1.0
C      1  0.5503390000000  0.4326350000000  0.4624530000000 1.0
C      1  0.4541320000000  0.5481800000000  0.4647450000000 1.0
C      1  0.5708850000000  0.4318990000000  0.5227950000000 1.0
C      1  0.5248600000000  0.4557730000000  0.5101590000000 1.0
C      1  0.5027650000000  0.4326660000000  0.4359980000000 1.0
C      1  0.4251060000000  0.5667950000000  0.5070510000000 1.0
C      1  0.5603090000000  0.4475180000000  0.5443700000000 1.0
C      1  0.3904250000000  0.5154500000000  0.4923760000000 1.0
C      1  0.5752770000000  0.5349560000000  0.4634770000000 1.0
C      1  0.5361200000000  0.5633110000000  0.5665250000000 1.0
C      1  0.4976130000000  0.4659270000000  0.5104200000000 1.0
C      1  0.4846770000000  0.4612850000000  0.4834570000000 1.0
C      1  0.5962540000000  0.4755880000000  0.5392370000000 1.0
C      1  0.5030880000000  0.4668960000000  0.4620320000000 1.0
C      1  0.5543980000000  0.5223130000000  0.4119510000000 1.0
C      1  0.5570160000000  0.5741460000000  0.4701790000000 1.0
C      1  0.5245250000000  0.5301840000000  0.4839350000000 1.0
C      1  0.5024440000000  0.4197880000000  0.4614770000000 1.0
C      1  0.5665830000000  0.4518840000000  0.4790670000000 1.0
C      1  0.5070600000000  0.5550980000000  0.5153550000000 1.0
C      1  0.5840050000000  0.4479700000000  0.5028320000000 1.0
C      1  0.4300350000000  0.4266870000000  0.4757440000000 1.0
C      1  0.5278690000000  0.4951510000000  0.5389720000000 1.0
C      1  0.4895210000000  0.4607690000000  0.5591820000000 1.0
C      1  0.4079470000000  0.5271120000000  0.4738490000000 1.0
C      1  0.4445780000000  0.4741400000000  0.5738070000000 1.0
C      1  0.4276040000000  0.4956490000000  0.5760240000000 1.0
C      1  0.4649930000000  0.4957500000000  0.5343600000000 1.0
C      1  0.4523240000000  0.5734450000000  0.5189310000000 1.0
C      1  0.5185800000000  0.4594100000000  0.4055790000000 1.0
C      1  0.5235440000000  0.4857720000000  0.4693570000000 1.0
C      1  0.5584190000000  0.5686760000000  0.5468750000000 1.0
C      1  0.5336750000000  0.5418760000000  0.5228450000000 1.0
C      1  0.4898420000000  0.4305640000000  0.5515850000000 1.0
C      1  0.5582500000000  0.4999350000000  0.4327430000000 1.0
C      1  0.5810830000000  0.4675370000000  0.4586030000000 1.0
C      1  0.5010790000000  0.4779080000000  0.4144270000000 1.0
C      1  0.5653550000000  0.4694750000000  0.4355910000000 1.0
C      1  0.4868030000000  0.5383340000000  0.5296200000000 1.0
C      1  0.5501370000000  0.4440760000000  0.4365280000000 1.0
C      1  0.5719110000000  0.5434720000000  0.5518540000000 1.0
C      1  0.4360250000000  0.4278910000000  0.5024350000000 1.0
C      1  0.4376190000000  0.5102540000000  0.4338720000000 1.0
C      1  0.5525160000000  0.5476130000000  0.4216270000000 1.0
C      1  0.4662430000000  0.4841790000000  0.4815160000000 1.0
C      1  0.4780450000000  0.5705470000000  0.4133200000000 1.0
C      1  0.5568100000000  0.4961310000000  0.5048420000000 1.0
C      1  0.4403050000000  0.5013790000000  0.5183650000000 1.0
C      1  0.4892750000000  0.4599770000000  0.4342510000000 1.0
C      1  0.5298410000000  0.5341350000000  0.4551700000000 1.0
C      1  0.5032290000000  0.5287320000000  0.4081720000000 1.0
C      1  0.5097870000000  0.5052990000000  0.4875340000000 1.0
C      1  0.5427260000000  0.4726220000000  0.4913150000000 1.0
C      1  0.5543810000000  0.5515940000000  0.4512810000000 1.0
C      1  0.5739030000000  0.5390330000000  0.4920170000000 1.0
C      1  0.5283080000000  0.4164020000000  0.4729590000000 1.0
C      1  0.5000090000000  0.5537130000000  0.4841780000000 1.0
C      1  0.4938060000000  0.5412160000000  0.5619530000000 1.0
C      1  0.4177220000000  0.5459680000000  0.5258110000000 1.0
C      1  0.4239810000000  0.4654810000000  0.4381120000000 1.0
C      1  0.4433840000000  0.4594970000000  0.5498100000000 1.0
C      1  0.5081220000000  0.4938270000000  0.5156420000000 1.0
C      1  0.4768820000000  0.4300000000000  0.4769550000000 1.0
C      1  0.4287610000000  0.5457100000000  0.4836250000000 1.0
END
