TITL C-57367-8192-4 29.5463526634289 125000 -178.709205065794 0 0 28 (C1) n - 1
REM
REM in /rds/project/t2_vol4/rds-t2-cs072/BORA/CARBON/from-Arr/AIRSS/Generating-Clusters/GAP-ML-2020/Higher-Symm/SD-CG/HFTN-CG
REM
REM
REM
REM
REM
REM ./C.cell (b20cbc046b6831c77cfcea5457e17084)
REM AIRSS Version 0.9.1 bugfix July 2018 build 013d7b7c2542+ Fri, 06 Jul 2018 19:26:36 +0100
REM compiler GCC version 9.3.0
REM options -cpp -mtune=generic -march=x86-64 -g -O0
REM seed -141803386 -201660047 748903025 -929872546 -2034572399 -1123047277 -1612626417 645577555 2119705246 -1532666638 -641802575 -1308422340 -87898515 -602392942 1175047538 -1336112026 849075170 -427451783 26675613 -1864282693 1175128977 514560842 -1439025803 1490272749 -1867296347 1143863022 -1464728986 1335942489 -1674865909 -754880859 1389113185 -538578315 -262205537
REM
CELL 1.54180   50.00000   50.00000   50.00000   90.00000   90.00000   90.00000
LATT -1
SFAC C  
C      1  0.5089680000000  0.5456710000000  0.5164210000000 1.0
C      1  0.4875310000000  0.5489090000000  0.4992060000000 1.0
C      1  0.5139400000000  0.5432200000000  0.4891470000000 1.0
C      1  0.5233620000000  0.4514200000000  0.5278050000000 1.0
C      1  0.4813180000000  0.4567360000000  0.5009640000000 1.0
C      1  0.5084340000000  0.4576260000000  0.5043420000000 1.0
C      1  0.5416790000000  0.4926490000000  0.5525300000000 1.0
C      1  0.4413220000000  0.4810380000000  0.4815040000000 1.0
C      1  0.5158880000000  0.4804080000000  0.4591960000000 1.0
C      1  0.5348490000000  0.5171860000000  0.5484750000000 1.0
C      1  0.4443920000000  0.5285870000000  0.4810090000000 1.0
C      1  0.5146780000000  0.5060670000000  0.4550980000000 1.0
C      1  0.4660960000000  0.4996240000000  0.5647770000000 1.0
C      1  0.4448220000000  0.5033160000000  0.4378240000000 1.0
C      1  0.5892760000000  0.5061670000000  0.4899040000000 1.0
C      1  0.4826680000000  0.4938110000000  0.5472070000000 1.0
C      1  0.4500000000000  0.5023230000000  0.4133010000000 1.0
C      1  0.5645860000000  0.5015950000000  0.4894840000000 1.0
C      1  0.5336190000000  0.4716680000000  0.5391820000000 1.0
C      1  0.4661940000000  0.4786980000000  0.4944860000000 1.0
C      1  0.5231660000000  0.4741600000000  0.4861840000000 1.0
C      1  0.5146900000000  0.5235200000000  0.5311740000000 1.0
C      1  0.4685290000000  0.5282240000000  0.4948070000000 1.0
C      1  0.5219030000000  0.5191880000000  0.4795660000000 1.0
C      1  0.5374190000000  0.4983090000000  0.4949530000000 1.0
C      1  0.4428570000000  0.5045450000000  0.4653030000000 1.0
C      1  0.4966150000000  0.5019160000000  0.5237180000000 1.0
C      1  0.4805760000000  0.5033320000000  0.5013200000000 1.0
END
