TITL C-57378-6800-2 -76.9285671651913 125000 -591.372502199884 0 0 83 (C1) n - 1
REM
REM in /rds/project/t2_vol4/rds-t2-cs072/BORA/CARBON/from-Arr/AIRSS/Generating-Clusters/GAP-ML-2020/Higher-Symm/SD-CG/HFTN-CG
REM
REM
REM
REM
REM
REM ./C.cell (b20cbc046b6831c77cfcea5457e17084)
REM AIRSS Version 0.9.1 bugfix July 2018 build 013d7b7c2542+ Fri, 06 Jul 2018 19:26:36 +0100
REM compiler GCC version 9.3.0
REM options -cpp -mtune=generic -march=x86-64 -g -O0
REM seed 737344067 -425786643 -1535065940 -799522892 -1696388959 -264176871 715310459 140640359 795908268 -659470681 416774309 226822738 1143229954 1037510883 1120901290 -704410635 -2039890707 591740249 -1705939228 1858784011 718350146 790047001 -698902080 895272229 -386354162 -1795082376 -125331989 -105435142 -1652486378 -961890868 1513378305 -1179977896 -1205301440
REM
CELL 1.54180   50.00000   50.00000   50.00000   90.00000   90.00000   90.00000
LATT -1
SFAC C  
C      1  0.4359660000000  0.5381040000000  0.4893940000000 1.0
C      1  0.4338660000000  0.5330260000000  0.5177340000000 1.0
C      1  0.4320090000000  0.5115250000000  0.5370300000000 1.0
C      1  0.4315150000000  0.4825070000000  0.5376790000000 1.0
C      1  0.4336080000000  0.4601390000000  0.5193480000000 1.0
C      1  0.4352100000000  0.4549100000000  0.4904560000000 1.0
C      1  0.4388420000000  0.4693890000000  0.4653940000000 1.0
C      1  0.4417890000000  0.4964190000000  0.4564170000000 1.0
C      1  0.4400980000000  0.5233760000000  0.4650990000000 1.0
C      1  0.5434950000000  0.4729500000000  0.5712520000000 1.0
C      1  0.5391910000000  0.4505540000000  0.5537190000000 1.0
C      1  0.5437700000000  0.4451910000000  0.4884320000000 1.0
C      1  0.5374070000000  0.4508420000000  0.4607610000000 1.0
C      1  0.5404410000000  0.4771780000000  0.4495040000000 1.0
C      1  0.5358470000000  0.5485770000000  0.4444280000000 1.0
C      1  0.5365580000000  0.5677610000000  0.4663180000000 1.0
C      1  0.5427280000000  0.5554580000000  0.5310050000000 1.0
C      1  0.5394900000000  0.5368830000000  0.5527630000000 1.0
C      1  0.4485390000000  0.5205400000000  0.5598080000000 1.0
C      1  0.4473650000000  0.4743270000000  0.5611940000000 1.0
C      1  0.4505470000000  0.4400460000000  0.5329050000000 1.0
C      1  0.4516490000000  0.4307300000000  0.4877570000000 1.0
C      1  0.4575580000000  0.4531110000000  0.4488250000000 1.0
C      1  0.4660670000000  0.4958880000000  0.4377800000000 1.0
C      1  0.4615450000000  0.5386010000000  0.4502380000000 1.0
C      1  0.4509360000000  0.5634670000000  0.4867650000000 1.0
C      1  0.4492190000000  0.5542560000000  0.5315000000000 1.0
C      1  0.4969860000000  0.4701740000000  0.5837440000000 1.0
C      1  0.5126220000000  0.4231890000000  0.5284250000000 1.0
C      1  0.5042160000000  0.4151130000000  0.4889080000000 1.0
C      1  0.5097060000000  0.4357250000000  0.4203580000000 1.0
C      1  0.5144310000000  0.5050170000000  0.4164010000000 1.0
C      1  0.4980470000000  0.5731470000000  0.4310650000000 1.0
C      1  0.5093610000000  0.5851970000000  0.5024040000000 1.0
C      1  0.4990420000000  0.5735450000000  0.5415040000000 1.0
C      1  0.5084200000000  0.5111300000000  0.5813070000000 1.0
C      1  0.5556300000000  0.5128310000000  0.5435720000000 1.0
C      1  0.5590210000000  0.4864440000000  0.5510080000000 1.0
C      1  0.5556300000000  0.4640470000000  0.5325250000000 1.0
C      1  0.5556010000000  0.4662860000000  0.5040920000000 1.0
C      1  0.5579770000000  0.4927720000000  0.4933870000000 1.0
C      1  0.5512240000000  0.4990860000000  0.4659600000000 1.0
C      1  0.5495910000000  0.5279080000000  0.4608710000000 1.0
C      1  0.5525950000000  0.5488910000000  0.4817320000000 1.0
C      1  0.5557600000000  0.5427550000000  0.5082610000000 1.0
C      1  0.4771040000000  0.5107770000000  0.5211810000000 1.0
C      1  0.5139140000000  0.4850530000000  0.5292310000000 1.0
C      1  0.4862010000000  0.4842540000000  0.5227170000000 1.0
C      1  0.4921940000000  0.4721630000000  0.4992900000000 1.0
C      1  0.4978660000000  0.4790740000000  0.4752660000000 1.0
C      1  0.4857040000000  0.4990790000000  0.4630890000000 1.0
C      1  0.4885030000000  0.5256910000000  0.4665830000000 1.0
C      1  0.4966220000000  0.5378710000000  0.4886470000000 1.0
C      1  0.4993700000000  0.5244200000000  0.5110720000000 1.0
C      1  0.4644910000000  0.5656420000000  0.4622300000000 1.0
C      1  0.4595420000000  0.5728330000000  0.5127370000000 1.0
C      1  0.4627130000000  0.5452190000000  0.5548880000000 1.0
C      1  0.4573590000000  0.4975650000000  0.5743950000000 1.0
C      1  0.4624900000000  0.4502940000000  0.5571440000000 1.0
C      1  0.4619570000000  0.4222800000000  0.5132190000000 1.0
C      1  0.4670920000000  0.4308540000000  0.4635200000000 1.0
C      1  0.4724460000000  0.4685050000000  0.4299840000000 1.0
C      1  0.4717640000000  0.5229190000000  0.4272100000000 1.0
C      1  0.5212130000000  0.4819200000000  0.4273890000000 1.0
C      1  0.5134180000000  0.5511140000000  0.4260770000000 1.0
C      1  0.5131690000000  0.5823300000000  0.4745420000000 1.0
C      1  0.5240550000000  0.5754480000000  0.5258480000000 1.0
C      1  0.5139880000000  0.5361070000000  0.5681030000000 1.0
C      1  0.5222480000000  0.4851060000000  0.5835890000000 1.0
C      1  0.5138170000000  0.4376620000000  0.5525700000000 1.0
C      1  0.5276990000000  0.4261530000000  0.5026820000000 1.0
C      1  0.5152600000000  0.4350590000000  0.4476850000000 1.0
C      1  0.4890800000000  0.4141940000000  0.5132560000000 1.0
C      1  0.4948770000000  0.4230640000000  0.4644270000000 1.0
C      1  0.5000860000000  0.4613510000000  0.4241350000000 1.0
C      1  0.4990760000000  0.5270860000000  0.4174920000000 1.0
C      1  0.4899540000000  0.5784350000000  0.4565330000000 1.0
C      1  0.4848240000000  0.5834880000000  0.5180700000000 1.0
C      1  0.4913470000000  0.5531710000000  0.5592810000000 1.0
C      1  0.4832150000000  0.4956460000000  0.5847510000000 1.0
C      1  0.4902720000000  0.4484880000000  0.5670890000000 1.0
C      1  0.5230560000000  0.5087610000000  0.5186390000000 1.0
C      1  0.5536280000000  0.5143470000000  0.5137360000000 1.0
END
