TITL C-57364-7363-9 -46.0386045431311 125000 -46.9184912935282 0 0 8 (C2v) n - 1
REM
REM in /rds/project/t2_vol4/rds-t2-cs072/BORA/CARBON/from-Arr/AIRSS/Generating-Clusters/GAP-ML-2020/Higher-Symm/SD-CG/HFTN-CG
REM
REM
REM
REM
REM
REM ./C.cell (b20cbc046b6831c77cfcea5457e17084)
REM AIRSS Version 0.9.1 bugfix July 2018 build 013d7b7c2542+ Fri, 06 Jul 2018 19:26:36 +0100
REM compiler GCC version 9.3.0
REM options -cpp -mtune=generic -march=x86-64 -g -O0
REM seed -944369726 -2136031901 -188039252 -1930079265 158143170 -1022202792 -1144385244 -584503363 387503938 -1884897875 1854517812 -1639946680 -1746210991 -1134962428 76354871 -1289594512 -210051554 1954722795 -682125066 796282836 -1481399712 720041144 670739565 2009937827 -2106918981 1308325146 1890957710 916621630 -343405141 -1305467889 2123825086 930438670 -803955854
REM
CELL 1.54180   50.00000   50.00000   50.00000   90.00000   90.00000   90.00000
LATT -1
SFAC C  
C      1  0.4548300000000  0.5040350000000  0.5124310000000 1.0
C      1  0.4411970000000  0.5037690000000  0.5352490000000 1.0
C      1  0.5720160000000  0.5036720000000  0.5079770000000 1.0
C      1  0.5504010000000  0.5039640000000  0.4925070000000 1.0
C      1  0.5254900000000  0.5041110000000  0.4884940000000 1.0
C      1  0.4926370000000  0.5047050000000  0.4546000000000 1.0
C      1  0.4760620000000  0.5041470000000  0.4987990000000 1.0
C      1  0.4983260000000  0.5043020000000  0.4818930000000 1.0
END
