TITL C-57362-6446-5 0.136083681859213 125000 -344.035982670912 0 0 51 (S4) n - 1
REM
REM in /rds/project/t2_vol4/rds-t2-cs072/BORA/CARBON/from-Arr/AIRSS/Generating-Clusters/GAP-ML-2020/Higher-Symm/SD-CG/HFTN-CG
REM
REM
REM
REM
REM
REM ./C.cell (b20cbc046b6831c77cfcea5457e17084)
REM AIRSS Version 0.9.1 bugfix July 2018 build 013d7b7c2542+ Fri, 06 Jul 2018 19:26:36 +0100
REM compiler GCC version 9.3.0
REM options -cpp -mtune=generic -march=x86-64 -g -O0
REM seed -1929488996 1204739166 -940073352 882077308 369841464 -819291885 -2135668820 -280396333 1626011130 -932549739 -928614793 1914726881 -1695327602 2144468584 -1898225598 -1701481581 1063805634 549207028 392396587 526621786 89188655 1868734988 1350722329 -76755710 -121893226 -1005717827 474084574 -2131548576 749530856 1638993107 -374730489 1471588286 60520915
REM
CELL 1.54180   50.00000   50.00000   50.00000   90.00000   90.00000   90.00000
LATT -1
SFAC C  
C      1  0.4896010000000  0.4511950000000  0.5625640000000 1.0
C      1  0.5470680000000  0.4892110000000  0.4357850000000 1.0
C      1  0.5103000000000  0.5455090000000  0.5634530000000 1.0
C      1  0.4527500000000  0.5099090000000  0.4360120000000 1.0
C      1  0.4566390000000  0.4638690000000  0.5191660000000 1.0
C      1  0.5348210000000  0.4558510000000  0.4790010000000 1.0
C      1  0.5432340000000  0.5336620000000  0.5198010000000 1.0
C      1  0.4650260000000  0.5424410000000  0.4798460000000 1.0
C      1  0.5201630000000  0.4653400000000  0.5258690000000 1.0
C      1  0.5332850000000  0.5194340000000  0.4728950000000 1.0
C      1  0.4797140000000  0.5320640000000  0.5265160000000 1.0
C      1  0.4665580000000  0.4789860000000  0.4725320000000 1.0
C      1  0.5562470000000  0.4740780000000  0.4819740000000 1.0
C      1  0.5249780000000  0.5551130000000  0.5172030000000 1.0
C      1  0.4436010000000  0.5241600000000  0.4824870000000 1.0
C      1  0.4748930000000  0.4424720000000  0.5161490000000 1.0
C      1  0.5410980000000  0.4863660000000  0.5272550000000 1.0
C      1  0.5122460000000  0.5403780000000  0.4719090000000 1.0
C      1  0.4587800000000  0.5110150000000  0.5275150000000 1.0
C      1  0.4875950000000  0.4580640000000  0.4711350000000 1.0
C      1  0.5123470000000  0.4459390000000  0.5467500000000 1.0
C      1  0.5524800000000  0.5118110000000  0.4517550000000 1.0
C      1  0.4875430000000  0.5510640000000  0.5477560000000 1.0
C      1  0.4473490000000  0.4870090000000  0.4515530000000 1.0
C      1  0.4793740000000  0.5500930000000  0.5024710000000 1.0
C      1  0.4487660000000  0.4784240000000  0.4967500000000 1.0
C      1  0.5204870000000  0.4477710000000  0.5014860000000 1.0
C      1  0.5510920000000  0.5195360000000  0.4971070000000 1.0
C      1  0.4926140000000  0.4429530000000  0.4939530000000 1.0
C      1  0.5559840000000  0.4915950000000  0.5043360000000 1.0
C      1  0.5072430000000  0.5550530000000  0.4950130000000 1.0
C      1  0.4438790000000  0.5062220000000  0.5045110000000 1.0
C      1  0.4376990000000  0.5120740000000  0.4585970000000 1.0
C      1  0.4872140000000  0.4363510000000  0.5398640000000 1.0
C      1  0.5621340000000  0.4866170000000  0.4583150000000 1.0
C      1  0.5126720000000  0.5607810000000  0.5410380000000 1.0
C      1  0.5156610000000  0.4943420000000  0.4768290000000 1.0
C      1  0.5047660000000  0.5144790000000  0.5221740000000 1.0
C      1  0.4841840000000  0.5039980000000  0.4769310000000 1.0
C      1  0.4951090000000  0.4830040000000  0.5218780000000 1.0
C      1  0.4815680000000  0.4785470000000  0.5640510000000 1.0
C      1  0.5197030000000  0.4811890000000  0.4344920000000 1.0
C      1  0.5183340000000  0.5181340000000  0.5644160000000 1.0
C      1  0.4801150000000  0.5179530000000  0.4348540000000 1.0
C      1  0.4860420000000  0.5308910000000  0.4616110000000 1.0
C      1  0.4683680000000  0.4847190000000  0.5374790000000 1.0
C      1  0.5137930000000  0.4677450000000  0.4610020000000 1.0
C      1  0.5315170000000  0.5124680000000  0.5377220000000 1.0
C      1  0.4999520000000  0.4982930000000  0.5692120000000 1.0
C      1  0.4999070000000  0.4996190000000  0.4296950000000 1.0
C      1  0.4999300000000  0.4989560000000  0.4994530000000 1.0
END
