TITL C-57357-9602-5 4.83317983773255 125000 -484.24795789343 0 0 67 (C1) n - 1
REM
REM in /rds/project/t2_vol4/rds-t2-cs072/BORA/CARBON/from-Arr/AIRSS/Generating-Clusters/GAP-ML-2020/Higher-Symm/SD-CG/HFTN-CG
REM
REM
REM
REM
REM
REM ./C.cell (b20cbc046b6831c77cfcea5457e17084)
REM AIRSS Version 0.9.1 bugfix July 2018 build 013d7b7c2542+ Fri, 06 Jul 2018 19:26:36 +0100
REM compiler GCC version 9.3.0
REM options -cpp -mtune=generic -march=x86-64 -g -O0
REM seed 339054137 1293524614 -2057269298 -277893441 -915364343 1288689387 1639255136 1402494122 -1444008329 -1906853503 -840185153 -1171957314 659848461 836191603 -832199890 1896268390 -38358000 -653194857 -529179154 -1906450940 -299600258 894934065 -148946521 -150193054 -1745841114 467191338 664373210 -166161511 -1248042169 -499996558 -1856583716 -195123512 -1850781127
REM
CELL 1.54180   50.00000   50.00000   50.00000   90.00000   90.00000   90.00000
LATT -1
SFAC C  
C      1  0.5545930000000  0.5375930000000  0.4668610000000 1.0
C      1  0.5139560000000  0.4811630000000  0.5654520000000 1.0
C      1  0.4920770000000  0.5489620000000  0.5508570000000 1.0
C      1  0.4755560000000  0.5140150000000  0.5056220000000 1.0
C      1  0.4741840000000  0.4408640000000  0.4694630000000 1.0
C      1  0.4670020000000  0.4829730000000  0.4481850000000 1.0
C      1  0.5363740000000  0.4343820000000  0.5026410000000 1.0
C      1  0.4741850000000  0.5527710000000  0.4747940000000 1.0
C      1  0.4763340000000  0.5106560000000  0.5710540000000 1.0
C      1  0.4890550000000  0.5316750000000  0.4898310000000 1.0
C      1  0.4691960000000  0.5361930000000  0.5611030000000 1.0
C      1  0.5291650000000  0.4388990000000  0.5301960000000 1.0
C      1  0.5269920000000  0.5666950000000  0.5052180000000 1.0
C      1  0.4489890000000  0.5527600000000  0.4933300000000 1.0
C      1  0.4921200000000  0.4713010000000  0.4388550000000 1.0
C      1  0.4671290000000  0.4665710000000  0.5535920000000 1.0
C      1  0.4993630000000  0.5754470000000  0.5102320000000 1.0
C      1  0.4899800000000  0.4939230000000  0.5123840000000 1.0
C      1  0.4308840000000  0.5332150000000  0.4866730000000 1.0
C      1  0.4388600000000  0.5072330000000  0.5447950000000 1.0
C      1  0.5726940000000  0.5080450000000  0.4960870000000 1.0
C      1  0.5519300000000  0.5127840000000  0.4264630000000 1.0
C      1  0.4474070000000  0.5356060000000  0.5427290000000 1.0
C      1  0.5191970000000  0.4807050000000  0.4370990000000 1.0
C      1  0.5588190000000  0.4668450000000  0.4695800000000 1.0
C      1  0.5526990000000  0.5045620000000  0.5416450000000 1.0
C      1  0.4798430000000  0.4360760000000  0.5204280000000 1.0
C      1  0.5445570000000  0.5459160000000  0.5148480000000 1.0
C      1  0.4949170000000  0.4604310000000  0.5581300000000 1.0
C      1  0.5397260000000  0.5301560000000  0.5392790000000 1.0
C      1  0.4816900000000  0.5646660000000  0.5287020000000 1.0
C      1  0.5611160000000  0.5340000000000  0.4942600000000 1.0
C      1  0.4785320000000  0.5337560000000  0.4494380000000 1.0
C      1  0.5197430000000  0.4393840000000  0.4588770000000 1.0
C      1  0.5043450000000  0.5075650000000  0.5685680000000 1.0
C      1  0.5695840000000  0.4943500000000  0.5202710000000 1.0
C      1  0.5020260000000  0.4402280000000  0.5389570000000 1.0
C      1  0.5399950000000  0.4812890000000  0.5540260000000 1.0
C      1  0.4552370000000  0.4625370000000  0.4659470000000 1.0
C      1  0.5110300000000  0.4867070000000  0.4996980000000 1.0
C      1  0.4372600000000  0.4676050000000  0.5144150000000 1.0
C      1  0.5370080000000  0.4610660000000  0.4514170000000 1.0
C      1  0.4232030000000  0.4941340000000  0.4778130000000 1.0
C      1  0.5152750000000  0.5313870000000  0.5550260000000 1.0
C      1  0.4273160000000  0.4938550000000  0.5232730000000 1.0
C      1  0.4938560000000  0.4453380000000  0.4498920000000 1.0
C      1  0.5251360000000  0.5085380000000  0.4323420000000 1.0
C      1  0.5474100000000  0.4586100000000  0.5392010000000 1.0
C      1  0.5075500000000  0.5293860000000  0.4458430000000 1.0
C      1  0.4354660000000  0.4699440000000  0.4849980000000 1.0
C      1  0.5580700000000  0.4523120000000  0.4943680000000 1.0
C      1  0.4925330000000  0.5742060000000  0.4813580000000 1.0
C      1  0.5697500000000  0.4935770000000  0.4707040000000 1.0
C      1  0.5208690000000  0.5697880000000  0.4766790000000 1.0
C      1  0.5601860000000  0.5137350000000  0.4525080000000 1.0
C      1  0.5159330000000  0.4278850000000  0.4851510000000 1.0
C      1  0.4599440000000  0.5116660000000  0.4494460000000 1.0
C      1  0.4355970000000  0.5153950000000  0.4633080000000 1.0
C      1  0.4551080000000  0.5547120000000  0.5214470000000 1.0
C      1  0.4575110000000  0.4532490000000  0.5296400000000 1.0
C      1  0.5275790000000  0.5472130000000  0.4621970000000 1.0
C      1  0.5650920000000  0.4663030000000  0.5182220000000 1.0
C      1  0.4873960000000  0.4296320000000  0.4931300000000 1.0
C      1  0.5116470000000  0.5236890000000  0.4756380000000 1.0
C      1  0.4194650000000  0.5107990000000  0.5013230000000 1.0
C      1  0.5254290000000  0.5011250000000  0.4834170000000 1.0
C      1  0.4573280000000  0.4919510000000  0.5610730000000 1.0
END
