TITL C-57364-7363-1 -30.0472338020447 125000 -452.845851661793 0 0 66 (C2) n - 1
REM
REM in /rds/project/t2_vol4/rds-t2-cs072/BORA/CARBON/from-Arr/AIRSS/Generating-Clusters/GAP-ML-2020/Higher-Symm/SD-CG/HFTN-CG
REM
REM
REM
REM
REM
REM ./C.cell (b20cbc046b6831c77cfcea5457e17084)
REM AIRSS Version 0.9.1 bugfix July 2018 build 013d7b7c2542+ Fri, 06 Jul 2018 19:26:36 +0100
REM compiler GCC version 9.3.0
REM options -cpp -mtune=generic -march=x86-64 -g -O0
REM seed 134446528 -231595382 275843219 1689277208 739206212 -526227836 2055028259 8119059 -1070087249 -900642345 78053471 1466140173 1450773591 -888209993 -1173395824 -1296689918 839560817 1341717341 1375711654 -789658958 463414328 -46311516 -1837467101 706689864 -127341877 2085605380 1160646135 -85386707 734636651 -243376852 -195214227 282046205 -1900129638
REM
CELL 1.54180   50.00000   50.00000   50.00000   90.00000   90.00000   90.00000
LATT -1
SFAC C  
C      1  0.4754490000000  0.4502180000000  0.5248280000000 1.0
C      1  0.5245700000000  0.4502220000000  0.4751810000000 1.0
C      1  0.5307820000000  0.4995040000000  0.4639420000000 1.0
C      1  0.4692190000000  0.4994990000000  0.5360580000000 1.0
C      1  0.5496920000000  0.5199630000000  0.5308670000000 1.0
C      1  0.4503010000000  0.5199380000000  0.4691290000000 1.0
C      1  0.5056400000000  0.4397550000000  0.5669940000000 1.0
C      1  0.4943820000000  0.4397400000000  0.4330180000000 1.0
C      1  0.4256120000000  0.4901910000000  0.4962860000000 1.0
C      1  0.5743920000000  0.4902200000000  0.5037160000000 1.0
C      1  0.4822140000000  0.5094550000000  0.5594790000000 1.0
C      1  0.5177830000000  0.5094500000000  0.4405190000000 1.0
C      1  0.5732410000000  0.4700530000000  0.4833120000000 1.0
C      1  0.4267700000000  0.4700290000000  0.5166940000000 1.0
C      1  0.4757840000000  0.5114720000000  0.4837550000000 1.0
C      1  0.5242120000000  0.5114840000000  0.5162430000000 1.0
C      1  0.5247060000000  0.5649500000000  0.5296900000000 1.0
C      1  0.4752700000000  0.5649350000000  0.4702970000000 1.0
C      1  0.4725800000000  0.4549940000000  0.4775070000000 1.0
C      1  0.5274370000000  0.4550090000000  0.5225020000000 1.0
C      1  0.4436070000000  0.4528940000000  0.4782680000000 1.0
C      1  0.5564110000000  0.4529190000000  0.5217410000000 1.0
C      1  0.4705380000000  0.4856120000000  0.4400710000000 1.0
C      1  0.5294670000000  0.4856350000000  0.5599320000000 1.0
C      1  0.5204090000000  0.5349690000000  0.5653050000000 1.0
C      1  0.4795780000000  0.5349490000000  0.4346880000000 1.0
C      1  0.5131000000000  0.4398390000000  0.4506220000000 1.0
C      1  0.4869220000000  0.4398440000000  0.5493900000000 1.0
C      1  0.4392700000000  0.5146940000000  0.4985740000000 1.0
C      1  0.5607250000000  0.5147170000000  0.5014240000000 1.0
C      1  0.5274610000000  0.5655020000000  0.4743160000000 1.0
C      1  0.4725150000000  0.5654970000000  0.5256720000000 1.0
C      1  0.4849140000000  0.4801430000000  0.5182810000000 1.0
C      1  0.5150940000000  0.4801450000000  0.4817230000000 1.0
C      1  0.5135120000000  0.4391580000000  0.5007530000000 1.0
C      1  0.4865100000000  0.4391530000000  0.4992590000000 1.0
C      1  0.4501650000000  0.5196530000000  0.5251700000000 1.0
C      1  0.5498270000000  0.5196660000000  0.4748270000000 1.0
C      1  0.4888350000000  0.5072780000000  0.4341250000000 1.0
C      1  0.5111620000000  0.5072950000000  0.5658740000000 1.0
C      1  0.5265160000000  0.5604780000000  0.5021380000000 1.0
C      1  0.4734610000000  0.5604680000000  0.4978500000000 1.0
C      1  0.5419950000000  0.5438420000000  0.4610640000000 1.0
C      1  0.4579880000000  0.5438340000000  0.5389280000000 1.0
C      1  0.5211730000000  0.4586010000000  0.5520480000000 1.0
C      1  0.4788420000000  0.4585830000000  0.4479600000000 1.0
C      1  0.5262830000000  0.5365560000000  0.4382090000000 1.0
C      1  0.4737040000000  0.5365580000000  0.5617840000000 1.0
C      1  0.5532440000000  0.4947730000000  0.5461070000000 1.0
C      1  0.4467580000000  0.4947440000000  0.4538940000000 1.0
C      1  0.4312930000000  0.4441940000000  0.5024820000000 1.0
C      1  0.5687280000000  0.4442190000000  0.4975290000000 1.0
C      1  0.4875380000000  0.5335810000000  0.4951940000000 1.0
C      1  0.5124490000000  0.5335870000000  0.5048000000000 1.0
C      1  0.5030730000000  0.5522560000000  0.4358880000000 1.0
C      1  0.4969080000000  0.5522680000000  0.5641020000000 1.0
C      1  0.5670700000000  0.4776860000000  0.5289190000000 1.0
C      1  0.4329390000000  0.4776550000000  0.4710860000000 1.0
C      1  0.4980430000000  0.5699580000000  0.5415930000000 1.0
C      1  0.5019310000000  0.5699510000000  0.4583930000000 1.0
C      1  0.4840730000000  0.4835510000000  0.4887080000000 1.0
C      1  0.5159330000000  0.4835590000000  0.5112950000000 1.0
C      1  0.5540040000000  0.4505480000000  0.4755990000000 1.0
C      1  0.4460150000000  0.4505320000000  0.5244100000000 1.0
C      1  0.5390140000000  0.5436980000000  0.5453890000000 1.0
C      1  0.4609690000000  0.5436750000000  0.4546020000000 1.0
END
