TITL C-57376-9702-4 18.4107841022053 125000 -22.9478351327414 0 0 4 (D(inf)h) n - 1
REM
REM in /rds/project/t2_vol4/rds-t2-cs072/BORA/CARBON/from-Arr/AIRSS/Generating-Clusters/GAP-ML-2020/Higher-Symm/SD-CG/HFTN-CG
REM
REM
REM
REM
REM
REM ./C.cell (b20cbc046b6831c77cfcea5457e17084)
REM AIRSS Version 0.9.1 bugfix July 2018 build 013d7b7c2542+ Fri, 06 Jul 2018 19:26:36 +0100
REM compiler GCC version 9.3.0
REM options -cpp -mtune=generic -march=x86-64 -g -O0
REM seed -1018811052 798475711 1976766632 1328129088 1910724923 -858782161 1573995630 -1403798821 -772386997 796060151 1531067079 -2076727061 1062901745 1185631174 -1980942251 -2104520162 394130281 -298419837 1915020530 1076523920 -830470680 -1821730801 -1905386489 -1947776142 -1286925158 -1929568041 962358891 960013502 1565208430 1363843546 964639423 1483437489 2123181559
REM
CELL 1.54180   50.00000   50.00000   50.00000   90.00000   90.00000   90.00000
LATT -1
SFAC C  
C      1  0.4990170000000  0.5134660000000  0.5008760000000 1.0
C      1  0.4990170000000  0.4611370000000  0.5008760000000 1.0
C      1  0.4990170000000  0.5388630000000  0.5008760000000 1.0
C      1  0.4990170000000  0.4865340000000  0.5008760000000 1.0
END
