TITL C-57366-6419-1 -4.31437821444669 125000 -613.818384990055 0 0 91 (C5) n - 1
REM
REM in /rds/project/t2_vol4/rds-t2-cs072/BORA/CARBON/from-Arr/AIRSS/Generating-Clusters/GAP-ML-2020/Higher-Symm/SD-CG/HFTN-CG
REM
REM
REM
REM
REM
REM ./C.cell (b20cbc046b6831c77cfcea5457e17084)
REM AIRSS Version 0.9.1 bugfix July 2018 build 013d7b7c2542+ Fri, 06 Jul 2018 19:26:36 +0100
REM compiler GCC version 9.3.0
REM options -cpp -mtune=generic -march=x86-64 -g -O0
REM seed -1564440289 91541735 2076686554 -1780752967 775828222 -1236769766 -2075902215 -1303726278 1584424877 -922892050 176926284 -872090725 226408206 1339974495 1966155156 -1113709244 -1527425645 -1476461323 251228854 -1255996887 1410140104 1898630649 303800310 -1004243400 1516732333 -1351730388 1904022688 -1251726599 111820112 1855042046 -1411434157 163924202 749193345
REM
CELL 1.54180   50.00000   50.00000   50.00000   90.00000   90.00000   90.00000
LATT -1
SFAC C  
C      1  0.5030630000000  0.4641830000000  0.4744200000000 1.0
C      1  0.5258260000000  0.4641830000000  0.4951690000000 1.0
C      1  0.5131260000000  0.4641830000000  0.5232290000000 1.0
C      1  0.4825150000000  0.4641830000000  0.5198220000000 1.0
C      1  0.4762960000000  0.4641830000000  0.4896570000000 1.0
C      1  0.5523030000000  0.5187100000000  0.4492480000000 1.0
C      1  0.5649820000000  0.5187110000000  0.5342190000000 1.0
C      1  0.4880880000000  0.5187120000000  0.5725350000000 1.0
C      1  0.4278850000000  0.5187120000000  0.5112450000000 1.0
C      1  0.4675720000000  0.5187110000000  0.4350490000000 1.0
C      1  0.4280640000000  0.5293040000000  0.4582480000000 1.0
C      1  0.5180300000000  0.5293030000000  0.4188420000000 1.0
C      1  0.5833090000000  0.5293020000000  0.4922280000000 1.0
C      1  0.5336870000000  0.5293030000000  0.5769890000000 1.0
C      1  0.4377400000000  0.5293040000000  0.5559890000000 1.0
C      1  0.4876860000000  0.5290760000000  0.5253220000000 1.0
C      1  0.4726640000000  0.5290760000000  0.4962720000000 1.0
C      1  0.4956490000000  0.5290760000000  0.4730090000000 1.0
C      1  0.5248770000000  0.5290750000000  0.4876810000000 1.0
C      1  0.5199550000000  0.5290750000000  0.5200120000000 1.0
C      1  0.4258860000000  0.4712340000000  0.4865090000000 1.0
C      1  0.4904790000000  0.4712330000000  0.4255040000000 1.0
C      1  0.5684590000000  0.4712320000000  0.4680850000000 1.0
C      1  0.5520590000000  0.4712330000000  0.5554060000000 1.0
C      1  0.4639440000000  0.4712340000000  0.5667930000000 1.0
C      1  0.5293950000000  0.5019860000000  0.5874300000000 1.0
C      1  0.4264840000000  0.5019870000000  0.5551330000000 1.0
C      1  0.4253990000000  0.5019860000000  0.4472790000000 1.0
C      1  0.5276390000000  0.5019850000000  0.4129180000000 1.0
C      1  0.5919120000000  0.5019850000000  0.4995360000000 1.0
C      1  0.5813300000000  0.4952440000000  0.5246090000000 1.0
C      1  0.5022800000000  0.4952450000000  0.5851140000000 1.0
C      1  0.4203080000000  0.4952460000000  0.5286290000000 1.0
C      1  0.4486970000000  0.4952450000000  0.4332150000000 1.0
C      1  0.5482140000000  0.4952440000000  0.4307300000000 1.0
C      1  0.4377080000000  0.4445930000000  0.5170260000000 1.0
C      1  0.4651090000000  0.4445920000000  0.4461780000000 1.0
C      1  0.5409570000000  0.4445910000000  0.4503450000000 1.0
C      1  0.5604320000000  0.4445910000000  0.5237680000000 1.0
C      1  0.4966200000000  0.4445920000000  0.5649790000000 1.0
C      1  0.5291510000000  0.4840940000000  0.5391250000000 1.0
C      1  0.4723490000000  0.4840950000000  0.5399740000000 1.0
C      1  0.4539890000000  0.4840950000000  0.4862150000000 1.0
C      1  0.4994430000000  0.4840940000000  0.4521410000000 1.0
C      1  0.5458960000000  0.4840930000000  0.4848410000000 1.0
C      1  0.4126130000000  0.4924870000000  0.4714320000000 1.0
C      1  0.5007170000000  0.4924860000000  0.4082220000000 1.0
C      1  0.5880590000000  0.4924850000000  0.4724810000000 1.0
C      1  0.5539350000000  0.4924860000000  0.5754050000000 1.0
C      1  0.4455040000000  0.4924870000000  0.5747570000000 1.0
C      1  0.5071870000000  0.5622020000000  0.5486660000000 1.0
C      1  0.4564880000000  0.5622020000000  0.5220330000000 1.0
C      1  0.4661510000000  0.5622020000000  0.4655850000000 1.0
C      1  0.5228220000000  0.5622010000000  0.4573320000000 1.0
C      1  0.5481840000000  0.5622010000000  0.5086790000000 1.0
C      1  0.4683260000000  0.4419480000000  0.5578780000000 1.0
C      1  0.4357180000000  0.4419480000000  0.4879210000000 1.0
C      1  0.4921740000000  0.4419470000000  0.4352930000000 1.0
C      1  0.5596730000000  0.4419460000000  0.4727220000000 1.0
C      1  0.5449340000000  0.4419470000000  0.5484840000000 1.0
C      1  0.4520540000000  0.5416440000000  0.4498150000000 1.0
C      1  0.5334640000000  0.5416430000000  0.4390520000000 1.0
C      1  0.5688570000000  0.5416430000000  0.5131510000000 1.0
C      1  0.5093220000000  0.5416440000000  0.5697100000000 1.0
C      1  0.4371340000000  0.5416440000000  0.5305660000000 1.0
C      1  0.5482230000000  0.4409850000000  0.4983160000000 1.0
C      1  0.5170540000000  0.4409860000000  0.5455030000000 1.0
C      1  0.4625450000000  0.4409870000000  0.5304410000000 1.0
C      1  0.4600250000000  0.4409860000000  0.4739460000000 1.0
C      1  0.5129770000000  0.4409860000000  0.4540910000000 1.0
C      1  0.4908380000000  0.4702730000000  0.5789330000000 1.0
C      1  0.4226510000000  0.4702740000000  0.5158380000000 1.0
C      1  0.4615860000000  0.4702730000000  0.4314910000000 1.0
C      1  0.5538370000000  0.4702720000000  0.4424560000000 1.0
C      1  0.5719160000000  0.4702720000000  0.5335800000000 1.0
C      1  0.5778210000000  0.5195070000000  0.4645020000000 1.0
C      1  0.5583600000000  0.5195080000000  0.5632020000000 1.0
C      1  0.4584770000000  0.5195090000000  0.5751940000000 1.0
C      1  0.4162070000000  0.5195090000000  0.4839050000000 1.0
C      1  0.4899650000000  0.5195080000000  0.4154940000000 1.0
C      1  0.4886860000000  0.5093200000000  0.4537860000000 1.0
C      1  0.5410070000000  0.5093190000000  0.4751180000000 1.0
C      1  0.5368870000000  0.5093200000000  0.5314710000000 1.0
C      1  0.4820200000000  0.5093200000000  0.5449670000000 1.0
C      1  0.4522290000000  0.5093200000000  0.4969550000000 1.0
C      1  0.4944400000000  0.5573600000000  0.4613090000000 1.0
C      1  0.5356310000000  0.5573590000000  0.4829150000000 1.0
C      1  0.5278110000000  0.5573590000000  0.5287660000000 1.0
C      1  0.4817880000000  0.5573600000000  0.5354980000000 1.0
C      1  0.4611630000000  0.5573600000000  0.4938070000000 1.0
C      1  0.5001660000000  0.5185480000000  0.5004590000000 1.0
END
