TITL C-57364-7363-8 0.0300093240641305 125000 -235.692524891753 0 0 35 (D5) n - 1
REM
REM in /rds/project/t2_vol4/rds-t2-cs072/BORA/CARBON/from-Arr/AIRSS/Generating-Clusters/GAP-ML-2020/Higher-Symm/SD-CG/HFTN-CG
REM
REM
REM
REM
REM
REM ./C.cell (b20cbc046b6831c77cfcea5457e17084)
REM AIRSS Version 0.9.1 bugfix July 2018 build 013d7b7c2542+ Fri, 06 Jul 2018 19:26:36 +0100
REM compiler GCC version 9.3.0
REM options -cpp -mtune=generic -march=x86-64 -g -O0
REM seed 1971576561 157241072 1396105606 293597079 249353088 1594040053 535534287 827952752 175553694 -2141404488 -226821233 -1737501281 1774310898 1115747311 -631212470 -2115785843 -1533589045 733072831 47014578 123566538 -1691150707 1210402883 1311138500 -1508986596 -1239166705 -1726137332 207463866 174185480 -748648717 1482573745 51389120 -1701876053 1635164989
REM
CELL 1.54180   50.00000   50.00000   50.00000   90.00000   90.00000   90.00000
LATT -1
SFAC C  
C      1  0.5109650000000  0.5111220000000  0.4468240000000 1.0
C      1  0.5539620000000  0.5111220000000  0.4939960000000 1.0
C      1  0.5223850000000  0.5111220000000  0.5494660000000 1.0
C      1  0.4598720000000  0.5111220000000  0.5365750000000 1.0
C      1  0.4528150000000  0.5111220000000  0.4731390000000 1.0
C      1  0.4890340000000  0.4914350000000  0.4468240000000 1.0
C      1  0.4460380000000  0.4914350000000  0.4939970000000 1.0
C      1  0.4776150000000  0.4914350000000  0.5494660000000 1.0
C      1  0.5401280000000  0.4914350000000  0.5365750000000 1.0
C      1  0.5471850000000  0.4914350000000  0.4731380000000 1.0
C      1  0.5384000000000  0.4633290000000  0.4799240000000 1.0
C      1  0.5309590000000  0.4633280000000  0.5303170000000 1.0
C      1  0.4807340000000  0.4633280000000  0.5388120000000 1.0
C      1  0.4571340000000  0.4633280000000  0.4936700000000 1.0
C      1  0.4927730000000  0.4633290000000  0.4572760000000 1.0
C      1  0.4616000000000  0.5392290000000  0.4799250000000 1.0
C      1  0.4690410000000  0.5392290000000  0.5303170000000 1.0
C      1  0.5192660000000  0.5392290000000  0.5388120000000 1.0
C      1  0.5428660000000  0.5392290000000  0.4936700000000 1.0
C      1  0.5072260000000  0.5392290000000  0.4572760000000 1.0
C      1  0.4820450000000  0.5489150000000  0.4633420000000 1.0
C      1  0.5293160000000  0.5489150000000  0.4715960000000 1.0
C      1  0.5360730000000  0.5489150000000  0.5191040000000 1.0
C      1  0.4929780000000  0.5489150000000  0.5402110000000 1.0
C      1  0.4595880000000  0.5489150000000  0.5057480000000 1.0
C      1  0.5179540000000  0.4536430000000  0.4633420000000 1.0
C      1  0.4706840000000  0.4536420000000  0.4715960000000 1.0
C      1  0.4639280000000  0.4536420000000  0.5191040000000 1.0
C      1  0.5070220000000  0.4536420000000  0.5402100000000 1.0
C      1  0.5404120000000  0.4536420000000  0.5057470000000 1.0
C      1  0.4633800000000  0.5012790000000  0.4495970000000 1.0
C      1  0.5366200000000  0.5012790000000  0.4495970000000 1.0
C      1  0.5000000000000  0.5012780000000  0.5623020000000 1.0
C      1  0.4407470000000  0.5012780000000  0.5192530000000 1.0
C      1  0.5592530000000  0.5012790000000  0.5192520000000 1.0
END
