TITL C-57385-9706-6 0.0278577309579294 125000 -558.466241614053 0 0 80 (C1) n - 1
REM
REM in /rds/project/t2_vol4/rds-t2-cs072/BORA/CARBON/from-Arr/AIRSS/Generating-Clusters/GAP-ML-2020/Higher-Symm/SD-CG/HFTN-CG
REM
REM
REM
REM
REM
REM ./C.cell (b20cbc046b6831c77cfcea5457e17084)
REM AIRSS Version 0.9.1 bugfix July 2018 build 013d7b7c2542+ Fri, 06 Jul 2018 19:26:36 +0100
REM compiler GCC version 9.3.0
REM options -cpp -mtune=generic -march=x86-64 -g -O0
REM seed 395531983 882662878 1650558319 -1445687297 1452311870 1725939492 -810108302 -618859816 1057565857 -1787813640 1808752530 -495685767 -1372648022 -1185985828 -290374948 -68117749 -2138547574 -1622274796 -395115981 2144960943 661262351 444947215 662052912 -190673031 -81869619 1856000578 558493117 1971018629 -2043465262 -1657310812 1398486452 230659756 -737856584
REM
CELL 1.54180   50.00000   50.00000   50.00000   90.00000   90.00000   90.00000
LATT -1
SFAC C  
C      1  0.4312040000000  0.5045920000000  0.5456990000000 1.0
C      1  0.4175010000000  0.5224390000000  0.4856360000000 1.0
C      1  0.4266280000000  0.4552140000000  0.4990770000000 1.0
C      1  0.5095020000000  0.5633320000000  0.4602510000000 1.0
C      1  0.5186690000000  0.4368510000000  0.4650850000000 1.0
C      1  0.5190390000000  0.5049930000000  0.5775810000000 1.0
C      1  0.5020750000000  0.5259830000000  0.5662920000000 1.0
C      1  0.4973540000000  0.5415980000000  0.4450670000000 1.0
C      1  0.5043070000000  0.4340210000000  0.4901330000000 1.0
C      1  0.5579130000000  0.5180170000000  0.5465880000000 1.0
C      1  0.5546380000000  0.5376750000000  0.4654050000000 1.0
C      1  0.5589270000000  0.4593290000000  0.4884470000000 1.0
C      1  0.5330550000000  0.4400840000000  0.5305220000000 1.0
C      1  0.5247860000000  0.5595590000000  0.5400020000000 1.0
C      1  0.5315100000000  0.5089910000000  0.4286320000000 1.0
C      1  0.4500780000000  0.5571170000000  0.4974000000000 1.0
C      1  0.4493400000000  0.4618850000000  0.4564570000000 1.0
C      1  0.4583510000000  0.4706170000000  0.5646990000000 1.0
C      1  0.5579490000000  0.5502880000000  0.5101120000000 1.0
C      1  0.5640850000000  0.4910700000000  0.4550030000000 1.0
C      1  0.5653640000000  0.4732620000000  0.5348860000000 1.0
C      1  0.4299210000000  0.5386250000000  0.5047460000000 1.0
C      1  0.4299910000000  0.4702400000000  0.4756170000000 1.0
C      1  0.4380670000000  0.4779450000000  0.5463620000000 1.0
C      1  0.5494140000000  0.5438880000000  0.5365030000000 1.0
C      1  0.5531330000000  0.5159660000000  0.4465570000000 1.0
C      1  0.5549770000000  0.4537400000000  0.5164910000000 1.0
C      1  0.5394930000000  0.5677420000000  0.4974060000000 1.0
C      1  0.5489030000000  0.4693480000000  0.4441800000000 1.0
C      1  0.5497790000000  0.4730820000000  0.5585650000000 1.0
C      1  0.4933450000000  0.4737400000000  0.4661870000000 1.0
C      1  0.5016600000000  0.4909980000000  0.5334770000000 1.0
C      1  0.4947160000000  0.5301000000000  0.4894700000000 1.0
C      1  0.5365770000000  0.5605680000000  0.4698840000000 1.0
C      1  0.5440030000000  0.4502270000000  0.4647380000000 1.0
C      1  0.5449190000000  0.5004000000000  0.5664420000000 1.0
C      1  0.4880990000000  0.5136100000000  0.4087070000000 1.0
C      1  0.4858690000000  0.4214830000000  0.5303550000000 1.0
C      1  0.4765630000000  0.5634490000000  0.5567630000000 1.0
C      1  0.5716190000000  0.5003830000000  0.5280210000000 1.0
C      1  0.5674050000000  0.5318060000000  0.4908460000000 1.0
C      1  0.5709900000000  0.4847820000000  0.4816900000000 1.0
C      1  0.4684270000000  0.4844800000000  0.4522340000000 1.0
C      1  0.4872280000000  0.4686140000000  0.5278360000000 1.0
C      1  0.4811560000000  0.5367990000000  0.5128730000000 1.0
C      1  0.4888910000000  0.5738810000000  0.4777780000000 1.0
C      1  0.4981000000000  0.4485260000000  0.4470310000000 1.0
C      1  0.5016740000000  0.4818790000000  0.5815260000000 1.0
C      1  0.5081850000000  0.5257000000000  0.4241510000000 1.0
C      1  0.5101450000000  0.4267340000000  0.5173510000000 1.0
C      1  0.5030760000000  0.5532390000000  0.5587720000000 1.0
C      1  0.5150680000000  0.4904870000000  0.4714760000000 1.0
C      1  0.5185490000000  0.5013360000000  0.5160770000000 1.0
C      1  0.5129420000000  0.5086380000000  0.4911770000000 1.0
C      1  0.4396820000000  0.5293490000000  0.5325010000000 1.0
C      1  0.4290490000000  0.5014620000000  0.4723020000000 1.0
C      1  0.4426130000000  0.4558890000000  0.5227570000000 1.0
C      1  0.5184630000000  0.5731930000000  0.5155860000000 1.0
C      1  0.5293130000000  0.4799710000000  0.4265500000000 1.0
C      1  0.5296900000000  0.4524950000000  0.5561980000000 1.0
C      1  0.4922390000000  0.5779660000000  0.5054880000000 1.0
C      1  0.5038750000000  0.4661480000000  0.4248600000000 1.0
C      1  0.5045060000000  0.4566370000000  0.5687670000000 1.0
C      1  0.4747820000000  0.5325830000000  0.4640720000000 1.0
C      1  0.4805750000000  0.4508320000000  0.4858450000000 1.0
C      1  0.4828930000000  0.5089040000000  0.5508540000000 1.0
C      1  0.4798310000000  0.4831930000000  0.4238680000000 1.0
C      1  0.4780210000000  0.4523890000000  0.5542450000000 1.0
C      1  0.4687550000000  0.5637850000000  0.5177730000000 1.0
C      1  0.4552100000000  0.5565450000000  0.5429760000000 1.0
C      1  0.4694710000000  0.4976320000000  0.4008810000000 1.0
C      1  0.4629890000000  0.4330280000000  0.5373920000000 1.0
C      1  0.4691250000000  0.4416890000000  0.4586290000000 1.0
C      1  0.4759090000000  0.4901440000000  0.5734890000000 1.0
C      1  0.4645090000000  0.5591220000000  0.4732860000000 1.0
C      1  0.4673990000000  0.4678600000000  0.5072960000000 1.0
C      1  0.4663150000000  0.5157500000000  0.5242180000000 1.0
C      1  0.4588400000000  0.5064530000000  0.4696530000000 1.0
C      1  0.4656820000000  0.4961040000000  0.4995110000000 1.0
C      1  0.5746360000000  0.5060270000000  0.5002860000000 1.0
END
