TITL C-57380-6963-1 -0.0863651793525794 125000 -910.208494022327 0 0 133 (C1) n - 1
REM
REM in /rds/project/t2_vol4/rds-t2-cs072/BORA/CARBON/from-Arr/AIRSS/Generating-Clusters/GAP-ML-2020/Higher-Symm/SD-CG/HFTN-CG
REM
REM
REM
REM
REM
REM ./C.cell (b20cbc046b6831c77cfcea5457e17084)
REM AIRSS Version 0.9.1 bugfix July 2018 build 013d7b7c2542+ Fri, 06 Jul 2018 19:26:36 +0100
REM compiler GCC version 9.3.0
REM options -cpp -mtune=generic -march=x86-64 -g -O0
REM seed -711132962 -533619253 2016579844 2001094122 596097371 300915454 -1608002131 -365794472 -110500590 123664801 1475990919 420986718 640385756 1703034448 -1853123528 -581789274 -100329594 89068049 2118305190 -1272191845 557412464 -588477234 -1629724776 729741950 -938551485 -1839658658 1124913429 -2014114125 1054133766 -1743112863 -835351108 1399870271 -1035699779
REM
CELL 1.54180   50.00000   50.00000   50.00000   90.00000   90.00000   90.00000
LATT -1
SFAC C  
C      1  0.5648530000000  0.5323080000000  0.4274750000000 1.0
C      1  0.4891670000000  0.5719150000000  0.4278690000000 1.0
C      1  0.4282200000000  0.5126390000000  0.4301560000000 1.0
C      1  0.4662450000000  0.4362840000000  0.4330420000000 1.0
C      1  0.5504880000000  0.4480740000000  0.4293230000000 1.0
C      1  0.5639400000000  0.5316970000000  0.5710130000000 1.0
C      1  0.4887750000000  0.5713730000000  0.5709120000000 1.0
C      1  0.4277400000000  0.5124140000000  0.5697880000000 1.0
C      1  0.4658220000000  0.4361170000000  0.5695110000000 1.0
C      1  0.5496870000000  0.4483250000000  0.5702250000000 1.0
C      1  0.5363640000000  0.5105600000000  0.5236970000000 1.0
C      1  0.5012890000000  0.5382280000000  0.5239400000000 1.0
C      1  0.4596170000000  0.5151120000000  0.5251820000000 1.0
C      1  0.4746420000000  0.4684610000000  0.5250130000000 1.0
C      1  0.5188600000000  0.4661550000000  0.5216180000000 1.0
C      1  0.5381340000000  0.5119660000000  0.4736920000000 1.0
C      1  0.5027190000000  0.5407800000000  0.4737290000000 1.0
C      1  0.4602990000000  0.5159400000000  0.4745180000000 1.0
C      1  0.4784650000000  0.4708480000000  0.4801540000000 1.0
C      1  0.5241820000000  0.4636770000000  0.4727480000000 1.0
C      1  0.4420530000000  0.5612010000000  0.4468400000000 1.0
C      1  0.4231800000000  0.4649660000000  0.4480200000000 1.0
C      1  0.5114820000000  0.4162530000000  0.4470090000000 1.0
C      1  0.5817840000000  0.4855110000000  0.4465320000000 1.0
C      1  0.5393220000000  0.5738910000000  0.4458400000000 1.0
C      1  0.4415780000000  0.5609630000000  0.5525220000000 1.0
C      1  0.4239550000000  0.4640880000000  0.5516700000000 1.0
C      1  0.5107220000000  0.4167970000000  0.5518890000000 1.0
C      1  0.5811050000000  0.4850170000000  0.5520110000000 1.0
C      1  0.5389210000000  0.5731200000000  0.5528790000000 1.0
C      1  0.4839920000000  0.4803690000000  0.4043600000000 1.0
C      1  0.5125800000000  0.4790780000000  0.4024080000000 1.0
C      1  0.5227350000000  0.5060800000000  0.4009900000000 1.0
C      1  0.5002630000000  0.5239170000000  0.4011940000000 1.0
C      1  0.4763190000000  0.5079050000000  0.4029820000000 1.0
C      1  0.4836370000000  0.4805540000000  0.5976430000000 1.0
C      1  0.5123650000000  0.4791740000000  0.5970520000000 1.0
C      1  0.5225680000000  0.5059120000000  0.5976880000000 1.0
C      1  0.5001630000000  0.5240130000000  0.5978300000000 1.0
C      1  0.4761360000000  0.5083650000000  0.5973050000000 1.0
C      1  0.4488060000000  0.4715540000000  0.4856880000000 1.0
C      1  0.5119490000000  0.4391060000000  0.4840570000000 1.0
C      1  0.5592420000000  0.4930050000000  0.4838380000000 1.0
C      1  0.5259880000000  0.5569860000000  0.4841270000000 1.0
C      1  0.4542170000000  0.5423510000000  0.4845570000000 1.0
C      1  0.4465000000000  0.4708350000000  0.5153130000000 1.0
C      1  0.5109570000000  0.4386810000000  0.5140790000000 1.0
C      1  0.5583590000000  0.4927100000000  0.5138730000000 1.0
C      1  0.5249290000000  0.5552510000000  0.5141670000000 1.0
C      1  0.4538840000000  0.5419270000000  0.5149490000000 1.0
C      1  0.5002840000000  0.5263110000000  0.5516150000000 1.0
C      1  0.4744010000000  0.5095110000000  0.5505770000000 1.0
C      1  0.4827630000000  0.4798210000000  0.5511540000000 1.0
C      1  0.5136210000000  0.4778420000000  0.5500640000000 1.0
C      1  0.5247710000000  0.5064810000000  0.5513960000000 1.0
C      1  0.5007930000000  0.5271170000000  0.4465260000000 1.0
C      1  0.4752110000000  0.5100350000000  0.4494360000000 1.0
C      1  0.4846980000000  0.4805270000000  0.4518440000000 1.0
C      1  0.5151720000000  0.4783250000000  0.4484590000000 1.0
C      1  0.5257460000000  0.5073110000000  0.4463070000000 1.0
C      1  0.4570790000000  0.5154900000000  0.4244670000000 1.0
C      1  0.4719090000000  0.4649170000000  0.4275480000000 1.0
C      1  0.5244920000000  0.4618940000000  0.4235270000000 1.0
C      1  0.5439050000000  0.5120940000000  0.4213260000000 1.0
C      1  0.5013670000000  0.5458920000000  0.4214770000000 1.0
C      1  0.4567820000000  0.5159110000000  0.5755380000000 1.0
C      1  0.4707030000000  0.4646080000000  0.5759850000000 1.0
C      1  0.5239000000000  0.4619270000000  0.5752340000000 1.0
C      1  0.5430870000000  0.5113780000000  0.5766280000000 1.0
C      1  0.5011790000000  0.5452850000000  0.5767970000000 1.0
C      1  0.5275780000000  0.4330060000000  0.4295880000000 1.0
C      1  0.5719550000000  0.5056440000000  0.4277200000000 1.0
C      1  0.5167100000000  0.5707620000000  0.4275440000000 1.0
C      1  0.4381700000000  0.5382130000000  0.4296670000000 1.0
C      1  0.4449320000000  0.4537400000000  0.4337190000000 1.0
C      1  0.5267920000000  0.4329260000000  0.5697520000000 1.0
C      1  0.5712340000000  0.5050370000000  0.5707700000000 1.0
C      1  0.5163800000000  0.5700130000000  0.5710840000000 1.0
C      1  0.4376820000000  0.5380530000000  0.5700450000000 1.0
C      1  0.4443010000000  0.4533580000000  0.5693400000000 1.0
C      1  0.5257040000000  0.4166040000000  0.4723440000000 1.0
C      1  0.5848110000000  0.4993980000000  0.4721800000000 1.0
C      1  0.5282460000000  0.5826380000000  0.4716440000000 1.0
C      1  0.4302700000000  0.5529620000000  0.4725400000000 1.0
C      1  0.4314580000000  0.4520670000000  0.4726440000000 1.0
C      1  0.5250500000000  0.4170000000000  0.5264410000000 1.0
C      1  0.5839200000000  0.4986240000000  0.5263780000000 1.0
C      1  0.5273690000000  0.5807520000000  0.5273090000000 1.0
C      1  0.4300270000000  0.5526280000000  0.5268830000000 1.0
C      1  0.4292700000000  0.4506640000000  0.5261710000000 1.0
C      1  0.4802140000000  0.5830960000000  0.4725050000000 1.0
C      1  0.4135600000000  0.5072480000000  0.4730490000000 1.0
C      1  0.4675000000000  0.4212930000000  0.4725870000000 1.0
C      1  0.5668880000000  0.4434990000000  0.4722100000000 1.0
C      1  0.5736050000000  0.5459980000000  0.4716290000000 1.0
C      1  0.4799370000000  0.5825920000000  0.5267170000000 1.0
C      1  0.4128360000000  0.5070240000000  0.5263540000000 1.0
C      1  0.4658470000000  0.4190450000000  0.5266470000000 1.0
C      1  0.5640230000000  0.4447780000000  0.5264620000000 1.0
C      1  0.5722260000000  0.5447820000000  0.5272520000000 1.0
C      1  0.4793110000000  0.5562510000000  0.5144340000000 1.0
C      1  0.4380180000000  0.4987280000000  0.5150250000000 1.0
C      1  0.4816430000000  0.4398370000000  0.5155810000000 1.0
C      1  0.5484000000000  0.4652840000000  0.5133470000000 1.0
C      1  0.5477890000000  0.5370460000000  0.5140950000000 1.0
C      1  0.4795950000000  0.5568000000000  0.4844140000000 1.0
C      1  0.4390090000000  0.4992210000000  0.4846170000000 1.0
C      1  0.4829130000000  0.4418130000000  0.4857900000000 1.0
C      1  0.5509650000000  0.4648540000000  0.4834370000000 1.0
C      1  0.5490810000000  0.5382710000000  0.4841050000000 1.0
C      1  0.4155140000000  0.4929190000000  0.5520260000000 1.0
C      1  0.4806170000000  0.4185380000000  0.5517820000000 1.0
C      1  0.5707840000000  0.4570760000000  0.5520940000000 1.0
C      1  0.5622160000000  0.5543850000000  0.5528450000000 1.0
C      1  0.4669600000000  0.5768910000000  0.5524280000000 1.0
C      1  0.4153450000000  0.4934210000000  0.4475800000000 1.0
C      1  0.4817140000000  0.4174340000000  0.4475850000000 1.0
C      1  0.5720650000000  0.4570280000000  0.4465710000000 1.0
C      1  0.5628450000000  0.5550320000000  0.4458430000000 1.0
C      1  0.4675000000000  0.5770290000000  0.4468220000000 1.0
C      1  0.4413480000000  0.4271610000000  0.4845060000000 1.0
C      1  0.5518540000000  0.4212810000000  0.4847740000000 1.0
C      1  0.5893570000000  0.5252560000000  0.4848550000000 1.0
C      1  0.5045490000000  0.5933550000000  0.4849760000000 1.0
C      1  0.4113370000000  0.5339650000000  0.4851510000000 1.0
C      1  0.4411190000000  0.4271090000000  0.5135950000000 1.0
C      1  0.5512880000000  0.4214980000000  0.5139950000000 1.0
C      1  0.5891620000000  0.5248300000000  0.5142250000000 1.0
C      1  0.5043130000000  0.5932500000000  0.5143800000000 1.0
C      1  0.4111180000000  0.5338860000000  0.5141490000000 1.0
C      1  0.5112790000000  0.5153320000000  0.4848340000000 1.0
C      1  0.5078400000000  0.5102370000000  0.5113500000000 1.0
C      1  0.4950030000000  0.4820820000000  0.5071880000000 1.0
END
