TITL C-57380-6963-9 -0.0450416664878256 125000 -372.931955712822 0 0 55 (C1) n - 1
REM
REM in /rds/project/t2_vol4/rds-t2-cs072/BORA/CARBON/from-Arr/AIRSS/Generating-Clusters/GAP-ML-2020/Higher-Symm/SD-CG/HFTN-CG
REM
REM
REM
REM
REM
REM ./C.cell (b20cbc046b6831c77cfcea5457e17084)
REM AIRSS Version 0.9.1 bugfix July 2018 build 013d7b7c2542+ Fri, 06 Jul 2018 19:26:36 +0100
REM compiler GCC version 9.3.0
REM options -cpp -mtune=generic -march=x86-64 -g -O0
REM seed 81742193 -1346108566 -1438245102 -1251967360 -2084081508 636865829 -1927388977 1369368243 -634877775 389905045 -528368902 1673937756 -160166213 2115236866 299773616 -1021055178 179703341 1103622623 679609820 -2026727070 1201044434 38507622 -1304267996 -289901364 965985390 616241185 -723297627 -252139013 1902795061 1449261101 -1751366829 -2066333044 -343454492
REM
CELL 1.54180   50.00000   50.00000   50.00000   90.00000   90.00000   90.00000
LATT -1
SFAC C  
C      1  0.5118860000000  0.5364310000000  0.5469010000000 1.0
C      1  0.4666410000000  0.5373620000000  0.5314420000000 1.0
C      1  0.4564100000000  0.5381960000000  0.4855070000000 1.0
C      1  0.4932620000000  0.5363300000000  0.4533580000000 1.0
C      1  0.5373000000000  0.5331880000000  0.4702210000000 1.0
C      1  0.5466660000000  0.5344530000000  0.5171170000000 1.0
C      1  0.5177810000000  0.5189400000000  0.4528940000000 1.0
C      1  0.5495160000000  0.5179230000000  0.4928060000000 1.0
C      1  0.5374600000000  0.5241030000000  0.5421440000000 1.0
C      1  0.4861500000000  0.5215230000000  0.5473140000000 1.0
C      1  0.4512200000000  0.5222420000000  0.5106780000000 1.0
C      1  0.4680840000000  0.5230490000000  0.4624350000000 1.0
C      1  0.5029440000000  0.4542080000000  0.4465060000000 1.0
C      1  0.5476080000000  0.4528870000000  0.4770430000000 1.0
C      1  0.5419230000000  0.4510970000000  0.5304710000000 1.0
C      1  0.4951130000000  0.4577110000000  0.5513250000000 1.0
C      1  0.4471480000000  0.4588510000000  0.5273580000000 1.0
C      1  0.4559920000000  0.4594330000000  0.4730710000000 1.0
C      1  0.5239840000000  0.4981110000000  0.4960060000000 1.0
C      1  0.5145350000000  0.4838830000000  0.5197980000000 1.0
C      1  0.4913480000000  0.5002500000000  0.5233300000000 1.0
C      1  0.4688140000000  0.4954290000000  0.5051060000000 1.0
C      1  0.4832450000000  0.5046750000000  0.4812210000000 1.0
C      1  0.5088090000000  0.4950810000000  0.4717090000000 1.0
C      1  0.4383470000000  0.4849110000000  0.4658270000000 1.0
C      1  0.4999170000000  0.4802990000000  0.4292550000000 1.0
C      1  0.5595630000000  0.4792030000000  0.4666020000000 1.0
C      1  0.5571680000000  0.4771550000000  0.5378720000000 1.0
C      1  0.5013700000000  0.4815420000000  0.5680760000000 1.0
C      1  0.4358070000000  0.4859390000000  0.5381950000000 1.0
C      1  0.5082330000000  0.5576420000000  0.5278280000000 1.0
C      1  0.4812350000000  0.5583630000000  0.5190570000000 1.0
C      1  0.4758160000000  0.5585020000000  0.4912400000000 1.0
C      1  0.4974890000000  0.5570510000000  0.4725330000000 1.0
C      1  0.5243350000000  0.5557710000000  0.4817450000000 1.0
C      1  0.5295280000000  0.5566730000000  0.5096820000000 1.0
C      1  0.4792960000000  0.4999440000000  0.5650490000000 1.0
C      1  0.4287690000000  0.5037980000000  0.5158650000000 1.0
C      1  0.4550940000000  0.5007300000000  0.4488850000000 1.0
C      1  0.5231760000000  0.4967070000000  0.4344160000000 1.0
C      1  0.5662630000000  0.4946910000000  0.4891790000000 1.0
C      1  0.5442000000000  0.4978120000000  0.5538840000000 1.0
C      1  0.5536400000000  0.4514990000000  0.5039750000000 1.0
C      1  0.5147180000000  0.4563030000000  0.5303220000000 1.0
C      1  0.4678380000000  0.4591200000000  0.5470770000000 1.0
C      1  0.4527870000000  0.4675590000000  0.5008480000000 1.0
C      1  0.4755160000000  0.4568420000000  0.4541330000000 1.0
C      1  0.5294130000000  0.4527870000000  0.4544770000000 1.0
C      1  0.4283920000000  0.4871400000000  0.4915780000000 1.0
C      1  0.4735890000000  0.4828920000000  0.4368900000000 1.0
C      1  0.5435280000000  0.4785270000000  0.4438520000000 1.0
C      1  0.5668720000000  0.4770650000000  0.5115820000000 1.0
C      1  0.5264880000000  0.4886790000000  0.5736590000000 1.0
C      1  0.4566250000000  0.4854330000000  0.5566190000000 1.0
C      1  0.5010510000000  0.5197720000000  0.5011870000000 1.0
END
