TITL C-58280-7709-12 -0.00741918254554127 125000 -698.916424882073 0 0 101 (C1) n - 1
REM
REM in /rds/project/t2_vol4/rds-t2-cs072/BORA/CARBON/from-Arr/AIRSS/Generating-Clusters/GAP-ML-2020/Higher-Symm/SD-CG/HFTN-CG
REM
REM
REM
REM
REM
REM ./C.cell (b20cbc046b6831c77cfcea5457e17084)
REM AIRSS Version 0.9.1 bugfix July 2018 build 013d7b7c2542+ Fri, 06 Jul 2018 19:26:36 +0100
REM compiler GCC version 9.3.0
REM options -cpp -mtune=generic -march=x86-64 -g -O0
REM seed 1671628837 -501656117 898114863 -1796949243 663306056 1978981841 1149604110 -1491009613 2133258882 3822330 -1913049528 1745371631 -210732189 -799815519 1061076616 -844237305 -1863977905 -62866206 968257988 -396739585 1679578669 2039524841 -2123442258 1903392627 1977812900 39404462 -1000480366 -523960270 -139761395 -1938163058 1660263742 -808338946 766409672
REM
CELL 1.54180   50.00000   50.00000   50.00000   90.00000   90.00000   90.00000
LATT -1
SFAC C  
C      1  0.5333450000000  0.5041850000000  0.5723510000000 1.0
C      1  0.5291660000000  0.5035010000000  0.4297140000000 1.0
C      1  0.4635010000000  0.5984930000000  0.4898960000000 1.0
C      1  0.4722420000000  0.5698660000000  0.5325440000000 1.0
C      1  0.5431440000000  0.5398960000000  0.4536800000000 1.0
C      1  0.5471190000000  0.5408750000000  0.5466200000000 1.0
C      1  0.5552040000000  0.4889920000000  0.5604040000000 1.0
C      1  0.5516040000000  0.4893240000000  0.4420250000000 1.0
C      1  0.3977570000000  0.4948870000000  0.5132780000000 1.0
C      1  0.3966480000000  0.4980110000000  0.4852950000000 1.0
C      1  0.5774210000000  0.4751320000000  0.5220040000000 1.0
C      1  0.5785490000000  0.4740350000000  0.4768780000000 1.0
C      1  0.4192860000000  0.4893920000000  0.5525920000000 1.0
C      1  0.4159670000000  0.4940850000000  0.4444380000000 1.0
C      1  0.4541570000000  0.4688970000000  0.4372100000000 1.0
C      1  0.4589200000000  0.4678080000000  0.5637050000000 1.0
C      1  0.4700210000000  0.5353170000000  0.4628830000000 1.0
C      1  0.4896890000000  0.5490280000000  0.5365150000000 1.0
C      1  0.4440780000000  0.6048950000000  0.4758020000000 1.0
C      1  0.4493940000000  0.5531230000000  0.5349500000000 1.0
C      1  0.4790060000000  0.4379900000000  0.4581870000000 1.0
C      1  0.4862160000000  0.4362260000000  0.5511970000000 1.0
C      1  0.4681540000000  0.5072130000000  0.4774160000000 1.0
C      1  0.4638100000000  0.4971950000000  0.5200710000000 1.0
C      1  0.4668100000000  0.4744350000000  0.5364140000000 1.0
C      1  0.4658940000000  0.4811090000000  0.4630780000000 1.0
C      1  0.5279650000000  0.5311360000000  0.5640600000000 1.0
C      1  0.5214590000000  0.5305760000000  0.4387930000000 1.0
C      1  0.4996770000000  0.5355950000000  0.5604480000000 1.0
C      1  0.4928130000000  0.5320980000000  0.4417490000000 1.0
C      1  0.5050600000000  0.4906090000000  0.4218370000000 1.0
C      1  0.5074330000000  0.4934380000000  0.5795250000000 1.0
C      1  0.5378790000000  0.4678230000000  0.4593380000000 1.0
C      1  0.5503370000000  0.4606240000000  0.5551810000000 1.0
C      1  0.4417390000000  0.4883990000000  0.5702290000000 1.0
C      1  0.4376260000000  0.4884600000000  0.4259680000000 1.0
C      1  0.4461430000000  0.5312220000000  0.4442430000000 1.0
C      1  0.4416870000000  0.5330380000000  0.5548580000000 1.0
C      1  0.5264020000000  0.4487110000000  0.5652880000000 1.0
C      1  0.5196560000000  0.4496220000000  0.4453100000000 1.0
C      1  0.4207860000000  0.4502240000000  0.5094570000000 1.0
C      1  0.4208430000000  0.4589910000000  0.4814860000000 1.0
C      1  0.5554950000000  0.4584130000000  0.4824420000000 1.0
C      1  0.5629420000000  0.4517480000000  0.5296360000000 1.0
C      1  0.5869050000000  0.5477920000000  0.5241800000000 1.0
C      1  0.5841490000000  0.5474830000000  0.4750970000000 1.0
C      1  0.4571120000000  0.5142360000000  0.5707860000000 1.0
C      1  0.4552680000000  0.5118910000000  0.4253340000000 1.0
C      1  0.4837650000000  0.5106480000000  0.4250770000000 1.0
C      1  0.4861040000000  0.5141700000000  0.5735490000000 1.0
C      1  0.5309850000000  0.4921720000000  0.5182010000000 1.0
C      1  0.5230920000000  0.4927450000000  0.4741490000000 1.0
C      1  0.5099550000000  0.4153140000000  0.4845600000000 1.0
C      1  0.5128820000000  0.4132340000000  0.5256530000000 1.0
C      1  0.4175970000000  0.5177990000000  0.5476500000000 1.0
C      1  0.4203130000000  0.5212670000000  0.4534360000000 1.0
C      1  0.5053700000000  0.4277450000000  0.4597930000000 1.0
C      1  0.5120520000000  0.4258210000000  0.5512470000000 1.0
C      1  0.4051860000000  0.5212080000000  0.5233680000000 1.0
C      1  0.4073250000000  0.5239770000000  0.4785720000000 1.0
C      1  0.4104300000000  0.4735520000000  0.5278110000000 1.0
C      1  0.4052630000000  0.4785220000000  0.4668580000000 1.0
C      1  0.4751330000000  0.4516510000000  0.4327020000000 1.0
C      1  0.4800710000000  0.4529010000000  0.5735640000000 1.0
C      1  0.5723690000000  0.5010970000000  0.5372430000000 1.0
C      1  0.5698140000000  0.5004050000000  0.4652480000000 1.0
C      1  0.5930090000000  0.5198200000000  0.5258050000000 1.0
C      1  0.5897950000000  0.5195470000000  0.4755020000000 1.0
C      1  0.5015210000000  0.4623810000000  0.4271730000000 1.0
C      1  0.5056930000000  0.4646320000000  0.5790900000000 1.0
C      1  0.5456920000000  0.5174940000000  0.5239900000000 1.0
C      1  0.5429000000000  0.5157670000000  0.4755620000000 1.0
C      1  0.4743500000000  0.4580390000000  0.4796380000000 1.0
C      1  0.4836480000000  0.4555520000000  0.5274310000000 1.0
C      1  0.5688410000000  0.5559460000000  0.5443070000000 1.0
C      1  0.5651700000000  0.5544400000000  0.4548830000000 1.0
C      1  0.6208450000000  0.4878840000000  0.4992310000000 1.0
C      1  0.6037330000000  0.5101920000000  0.4999560000000 1.0
C      1  0.4680630000000  0.5504690000000  0.4912240000000 1.0
C      1  0.4469850000000  0.4964400000000  0.4974010000000 1.0
C      1  0.5233340000000  0.5996990000000  0.5009010000000 1.0
C      1  0.4893420000000  0.4104260000000  0.5061440000000 1.0
C      1  0.4615000000000  0.4155580000000  0.5081710000000 1.0
C      1  0.4474690000000  0.4695910000000  0.4848620000000 1.0
C      1  0.4864220000000  0.5072890000000  0.5026480000000 1.0
C      1  0.5917230000000  0.5587980000000  0.4992250000000 1.0
C      1  0.5088330000000  0.4880000000000  0.4996350000000 1.0
C      1  0.4160680000000  0.5373730000000  0.5024750000000 1.0
C      1  0.5086030000000  0.5770790000000  0.4994230000000 1.0
C      1  0.5968760000000  0.4756480000000  0.4993650000000 1.0
C      1  0.5319620000000  0.4180070000000  0.5040740000000 1.0
C      1  0.4415430000000  0.5491930000000  0.5074120000000 1.0
C      1  0.4935740000000  0.4620330000000  0.5016520000000 1.0
C      1  0.4910850000000  0.5361550000000  0.5081070000000 1.0
C      1  0.5411320000000  0.6179470000000  0.5022380000000 1.0
C      1  0.5534270000000  0.4369400000000  0.5048540000000 1.0
C      1  0.4392100000000  0.4282250000000  0.5126000000000 1.0
C      1  0.5530990000000  0.4776870000000  0.5062840000000 1.0
C      1  0.5158710000000  0.5490730000000  0.5004740000000 1.0
C      1  0.5394580000000  0.5314860000000  0.4998270000000 1.0
C      1  0.4780290000000  0.5777690000000  0.5023570000000 1.0
END
