TITL C-58280-7709-7 -0.0649141872281631 125000 -361.097750953016 0 0 54 (C1) n - 1
REM
REM in /rds/project/t2_vol4/rds-t2-cs072/BORA/CARBON/from-Arr/AIRSS/Generating-Clusters/GAP-ML-2020/Higher-Symm/SD-CG/HFTN-CG
REM
REM
REM
REM
REM
REM ./C.cell (b20cbc046b6831c77cfcea5457e17084)
REM AIRSS Version 0.9.1 bugfix July 2018 build 013d7b7c2542+ Fri, 06 Jul 2018 19:26:36 +0100
REM compiler GCC version 9.3.0
REM options -cpp -mtune=generic -march=x86-64 -g -O0
REM seed -1227662630 1017700380 -1865630644 5223978 -1801873504 960582823 -1025009048 696040909 567641838 -1991691961 -2033973126 1639079480 -504317666 5230704 570952645 -465094177 -1035422642 -452451713 -681199065 -1456246608 -931579748 1523592039 -644425280 -213570013 24911932 -1002467309 -774846047 -1240428355 1820676527 -962399217 845433522 416310773 2086620117
REM
CELL 1.54180   50.00000   50.00000   50.00000   90.00000   90.00000   90.00000
LATT -1
SFAC C  
C      1  0.4469310000000  0.5002340000000  0.5287080000000 1.0
C      1  0.4531410000000  0.5024240000000  0.4730580000000 1.0
C      1  0.5505950000000  0.4970140000000  0.5285500000000 1.0
C      1  0.5495780000000  0.5029450000000  0.4714900000000 1.0
C      1  0.5103990000000  0.5227450000000  0.4741680000000 1.0
C      1  0.5106200000000  0.4778850000000  0.5263500000000 1.0
C      1  0.4825330000000  0.5087310000000  0.4809150000000 1.0
C      1  0.4828890000000  0.4888090000000  0.5248210000000 1.0
C      1  0.4689700000000  0.4504110000000  0.5276340000000 1.0
C      1  0.4674250000000  0.5501010000000  0.4727670000000 1.0
C      1  0.5326410000000  0.4521930000000  0.5257930000000 1.0
C      1  0.5349030000000  0.5489090000000  0.4746020000000 1.0
C      1  0.5261730000000  0.5275990000000  0.4341220000000 1.0
C      1  0.5250360000000  0.4735900000000  0.5665010000000 1.0
C      1  0.4700600000000  0.5209740000000  0.4335030000000 1.0
C      1  0.4688200000000  0.4779480000000  0.5671190000000 1.0
C      1  0.5113260000000  0.4786220000000  0.4533000000000 1.0
C      1  0.5137180000000  0.5223380000000  0.5496150000000 1.0
C      1  0.4828110000000  0.4741940000000  0.4467310000000 1.0
C      1  0.4851010000000  0.5249110000000  0.5511480000000 1.0
C      1  0.4740030000000  0.5379150000000  0.5271660000000 1.0
C      1  0.4733800000000  0.4611520000000  0.4720520000000 1.0
C      1  0.5281460000000  0.5394370000000  0.5314310000000 1.0
C      1  0.5289670000000  0.4589810000000  0.4666280000000 1.0
C      1  0.4786890000000  0.5444030000000  0.4455140000000 1.0
C      1  0.4780360000000  0.4541980000000  0.5554980000000 1.0
C      1  0.5320420000000  0.5518860000000  0.4461610000000 1.0
C      1  0.5312250000000  0.4488840000000  0.5543660000000 1.0
C      1  0.5523540000000  0.5276440000000  0.4865490000000 1.0
C      1  0.5521610000000  0.4723260000000  0.5132860000000 1.0
C      1  0.4492270000000  0.5293050000000  0.4856710000000 1.0
C      1  0.4564680000000  0.4751180000000  0.5147470000000 1.0
C      1  0.5164900000000  0.4349950000000  0.5093700000000 1.0
C      1  0.5166940000000  0.5650340000000  0.4901450000000 1.0
C      1  0.4866250000000  0.4358370000000  0.5113000000000 1.0
C      1  0.4864580000000  0.5639840000000  0.4881400000000 1.0
C      1  0.5256550000000  0.5055100000000  0.4539290000000 1.0
C      1  0.5261590000000  0.4953360000000  0.5465710000000 1.0
C      1  0.4662630000000  0.4980680000000  0.4462590000000 1.0
C      1  0.4694450000000  0.4996660000000  0.5506600000000 1.0
C      1  0.5150100000000  0.5603820000000  0.5184890000000 1.0
C      1  0.5153170000000  0.4395010000000  0.4810160000000 1.0
C      1  0.4860420000000  0.5612000000000  0.5169830000000 1.0
C      1  0.4860640000000  0.4382430000000  0.4825820000000 1.0
C      1  0.4876150000000  0.5135550000000  0.5102850000000 1.0
C      1  0.4956330000000  0.4826560000000  0.4807200000000 1.0
C      1  0.5165390000000  0.5144760000000  0.5022600000000 1.0
C      1  0.5173780000000  0.4858360000000  0.4990420000000 1.0
C      1  0.5456980000000  0.5222030000000  0.5145290000000 1.0
C      1  0.5448660000000  0.4776190000000  0.4855040000000 1.0
C      1  0.4509650000000  0.5246430000000  0.5146870000000 1.0
C      1  0.4528400000000  0.4763370000000  0.4862740000000 1.0
C      1  0.5053670000000  0.5488580000000  0.4382400000000 1.0
C      1  0.5045300000000  0.4522340000000  0.5630510000000 1.0
END
