TITL C-58253-7597-3 -2.98486982734498 125000 -568.711000815099 0 0 84 (C1) n - 1
REM
REM in /rds/project/t2_vol4/rds-t2-cs072/BORA/CARBON/from-Arr/AIRSS/Generating-Clusters/GAP-ML-2020/Higher-Symm/SD-CG/HFTN-CG
REM
REM
REM
REM
REM
REM ./C.cell (b20cbc046b6831c77cfcea5457e17084)
REM AIRSS Version 0.9.1 bugfix July 2018 build 013d7b7c2542+ Fri, 06 Jul 2018 19:26:36 +0100
REM compiler GCC version 9.3.0
REM options -cpp -mtune=generic -march=x86-64 -g -O0
REM seed 812860011 583809062 1019988071 1958533026 314591530 1924166778 938181286 969838904 20720994 1557252720 -1444178980 -143824265 1907124838 1008344130 -1474723619 -881813868 994952432 -789694365 -2143190424 -1610423107 513351604 -1387551012 63728018 -540743681 1797480947 -769415892 -71928273 -79926119 -2064565953 1844708707 1176160510 -585335108 -661599757
REM
CELL 1.54180   50.00000   50.00000   50.00000   90.00000   90.00000   90.00000
LATT -1
SFAC C  
C      1  0.5397200000000  0.4207230000000  0.5108410000000 1.0
C      1  0.5256520000000  0.4388640000000  0.4676920000000 1.0
C      1  0.4744870000000  0.4361850000000  0.4627000000000 1.0
C      1  0.4569700000000  0.4411230000000  0.5162370000000 1.0
C      1  0.5044650000000  0.4296290000000  0.5470010000000 1.0
C      1  0.5419420000000  0.5715770000000  0.5139060000000 1.0
C      1  0.5312860000000  0.5817610000000  0.4661960000000 1.0
C      1  0.4796630000000  0.5637500000000  0.4586460000000 1.0
C      1  0.4584890000000  0.5638720000000  0.5109490000000 1.0
C      1  0.4986000000000  0.5724690000000  0.5446000000000 1.0
C      1  0.5375670000000  0.4615280000000  0.5339140000000 1.0
C      1  0.5339130000000  0.4662990000000  0.4681710000000 1.0
C      1  0.4832620000000  0.4607080000000  0.4463870000000 1.0
C      1  0.4528710000000  0.4660910000000  0.5029990000000 1.0
C      1  0.4878630000000  0.4472560000000  0.5592400000000 1.0
C      1  0.5486710000000  0.5578020000000  0.5373310000000 1.0
C      1  0.5403050000000  0.5367820000000  0.4777230000000 1.0
C      1  0.4748510000000  0.5382390000000  0.4472520000000 1.0
C      1  0.4504260000000  0.5387210000000  0.4995640000000 1.0
C      1  0.4865020000000  0.5453170000000  0.5496020000000 1.0
C      1  0.4334170000000  0.4829510000000  0.5485170000000 1.0
C      1  0.5280190000000  0.4883900000000  0.5822570000000 1.0
C      1  0.5800690000000  0.4873050000000  0.4975050000000 1.0
C      1  0.5209530000000  0.4878180000000  0.4144480000000 1.0
C      1  0.4273190000000  0.4847860000000  0.4477210000000 1.0
C      1  0.4323500000000  0.5130290000000  0.5490110000000 1.0
C      1  0.5269080000000  0.5182780000000  0.5819250000000 1.0
C      1  0.5823020000000  0.5182150000000  0.4978800000000 1.0
C      1  0.5193420000000  0.5180130000000  0.4161480000000 1.0
C      1  0.4253910000000  0.5147100000000  0.4465440000000 1.0
C      1  0.4471590000000  0.4849330000000  0.4259370000000 1.0
C      1  0.4192080000000  0.4847550000000  0.5231120000000 1.0
C      1  0.4992500000000  0.4869250000000  0.5849160000000 1.0
C      1  0.5758530000000  0.4891220000000  0.5261960000000 1.0
C      1  0.5456340000000  0.4891520000000  0.4297610000000 1.0
C      1  0.4445570000000  0.5136380000000  0.4236490000000 1.0
C      1  0.4195550000000  0.5137820000000  0.5227650000000 1.0
C      1  0.4981240000000  0.5156630000000  0.5841930000000 1.0
C      1  0.5766400000000  0.5181730000000  0.5260300000000 1.0
C      1  0.5440600000000  0.5182690000000  0.4314250000000 1.0
C      1  0.5137620000000  0.4880060000000  0.4774320000000 1.0
C      1  0.4916100000000  0.4895520000000  0.4586570000000 1.0
C      1  0.4741660000000  0.4894480000000  0.5081290000000 1.0
C      1  0.4884630000000  0.4966790000000  0.5333980000000 1.0
C      1  0.5172020000000  0.4819010000000  0.5254120000000 1.0
C      1  0.5224170000000  0.5158580000000  0.4914730000000 1.0
C      1  0.4745340000000  0.5122680000000  0.4631730000000 1.0
C      1  0.4714340000000  0.5161560000000  0.4917180000000 1.0
C      1  0.4994730000000  0.5238840000000  0.5292910000000 1.0
C      1  0.5259550000000  0.5098650000000  0.5207480000000 1.0
C      1  0.5738160000000  0.4893410000000  0.4692270000000 1.0
C      1  0.4920070000000  0.4871670000000  0.4088320000000 1.0
C      1  0.4171950000000  0.4858190000000  0.4750070000000 1.0
C      1  0.4552970000000  0.4835960000000  0.5676410000000 1.0
C      1  0.5526540000000  0.4902060000000  0.5668700000000 1.0
C      1  0.5737200000000  0.5183970000000  0.4700400000000 1.0
C      1  0.4906690000000  0.5159940000000  0.4097980000000 1.0
C      1  0.4166540000000  0.5150390000000  0.4743360000000 1.0
C      1  0.4546550000000  0.5126920000000  0.5675240000000 1.0
C      1  0.5521790000000  0.5188380000000  0.5668380000000 1.0
C      1  0.5393840000000  0.4213360000000  0.4854720000000 1.0
C      1  0.5005300000000  0.4367300000000  0.4544570000000 1.0
C      1  0.4692630000000  0.4390080000000  0.4900870000000 1.0
C      1  0.4819280000000  0.4404550000000  0.5314400000000 1.0
C      1  0.5308600000000  0.4341030000000  0.5335270000000 1.0
C      1  0.5434940000000  0.5646650000000  0.4863400000000 1.0
C      1  0.5068990000000  0.5709220000000  0.4662730000000 1.0
C      1  0.4691100000000  0.5668070000000  0.4858880000000 1.0
C      1  0.4735870000000  0.5676180000000  0.5349480000000 1.0
C      1  0.5257560000000  0.5744520000000  0.5370890000000 1.0
C      1  0.4684960000000  0.5294540000000  0.4212970000000 1.0
C      1  0.4240090000000  0.5290770000000  0.4987670000000 1.0
C      1  0.4768760000000  0.5299700000000  0.5724650000000 1.0
C      1  0.5620090000000  0.5343920000000  0.5450570000000 1.0
C      1  0.5542660000000  0.5314790000000  0.4539640000000 1.0
C      1  0.4717910000000  0.4710260000000  0.4220960000000 1.0
C      1  0.4253980000000  0.4722440000000  0.4984080000000 1.0
C      1  0.4795170000000  0.4692870000000  0.5744220000000 1.0
C      1  0.5606290000000  0.4742040000000  0.5447040000000 1.0
C      1  0.5555980000000  0.4751680000000  0.4530700000000 1.0
C      1  0.4962670000000  0.5592840000000  0.4929720000000 1.0
C      1  0.4945290000000  0.4464460000000  0.5041310000000 1.0
C      1  0.4967870000000  0.5305980000000  0.4995480000000 1.0
C      1  0.5008980000000  0.4750810000000  0.5015790000000 1.0
END
