TITL C-58267-7690-3 72.6035343244442 125000 -928.484811685591 0 0 130 (C2) n - 1
REM
REM in /rds/project/t2_vol4/rds-t2-cs072/BORA/CARBON/from-Arr/AIRSS/Generating-Clusters/GAP-ML-2020/Higher-Symm/SD-CG/HFTN-CG
REM
REM
REM
REM
REM
REM ./C.cell (b20cbc046b6831c77cfcea5457e17084)
REM AIRSS Version 0.9.1 bugfix July 2018 build 013d7b7c2542+ Fri, 06 Jul 2018 19:26:36 +0100
REM compiler GCC version 9.3.0
REM options -cpp -mtune=generic -march=x86-64 -g -O0
REM seed -2121662312 -1052603559 1451867476 -1741694838 158248980 1496582634 2085179545 -1224975731 -419599839 1896243299 1202551203 872722591 1234108365 -989070846 309565853 1815660427 -153396996 1368424525 1581676170 1284817206 882835225 -548766864 761836687 -47384187 937844239 -1869852920 2029821593 584099572 2063978735 -1306199633 -1116662631 -1044279506 1129190987
REM
CELL 1.54180   50.00000   50.00000   50.00000   90.00000   90.00000   90.00000
LATT -1
SFAC C  
C      1  0.5786910000000  0.4512530000000  0.5459020000000 1.0
C      1  0.4212930000000  0.5487510000000  0.5458700000000 1.0
C      1  0.5647220000000  0.4200160000000  0.4839370000000 1.0
C      1  0.4352830000000  0.5799820000000  0.4839080000000 1.0
C      1  0.5214840000000  0.4710440000000  0.5911320000000 1.0
C      1  0.4784830000000  0.5289630000000  0.5911220000000 1.0
C      1  0.4083040000000  0.4560700000000  0.4790580000000 1.0
C      1  0.5917040000000  0.5439290000000  0.4790870000000 1.0
C      1  0.5271760000000  0.5263700000000  0.5087660000000 1.0
C      1  0.4728210000000  0.4736300000000  0.5087590000000 1.0
C      1  0.5989010000000  0.5150680000000  0.4731520000000 1.0
C      1  0.4011080000000  0.4849300000000  0.4731180000000 1.0
C      1  0.4587780000000  0.5907770000000  0.4968310000000 1.0
C      1  0.5412230000000  0.4092230000000  0.4968530000000 1.0
C      1  0.5794210000000  0.5581210000000  0.4573500000000 1.0
C      1  0.4205950000000  0.4418760000000  0.4573260000000 1.0
C      1  0.4640400000000  0.4549750000000  0.4642090000000 1.0
C      1  0.5359720000000  0.5450220000000  0.4642180000000 1.0
C      1  0.5632950000000  0.5227740000000  0.5579470000000 1.0
C      1  0.4366840000000  0.4772300000000  0.5579260000000 1.0
C      1  0.4862860000000  0.5424110000000  0.4224140000000 1.0
C      1  0.5137420000000  0.4575830000000  0.4224220000000 1.0
C      1  0.4193260000000  0.5355290000000  0.4785460000000 1.0
C      1  0.5806820000000  0.4644690000000  0.4785780000000 1.0
C      1  0.5138140000000  0.5036680000000  0.4171280000000 1.0
C      1  0.4862160000000  0.4963250000000  0.4171240000000 1.0
C      1  0.4698750000000  0.5748310000000  0.5222330000000 1.0
C      1  0.5301170000000  0.4251710000000  0.5222500000000 1.0
C      1  0.5314480000000  0.4800850000000  0.4221230000000 1.0
C      1  0.4685800000000  0.5199090000000  0.4221100000000 1.0
C      1  0.4582230000000  0.4183450000000  0.5169770000000 1.0
C      1  0.5417710000000  0.5816560000000  0.5169850000000 1.0
C      1  0.5147740000000  0.5756550000000  0.4378530000000 1.0
C      1  0.4852480000000  0.4243400000000  0.4378540000000 1.0
C      1  0.4668130000000  0.4846170000000  0.5922360000000 1.0
C      1  0.5331540000000  0.5153900000000  0.5922470000000 1.0
C      1  0.5594420000000  0.4583470000000  0.4587860000000 1.0
C      1  0.4405730000000  0.5416500000000  0.4587610000000 1.0
C      1  0.5745440000000  0.5163540000000  0.5320100000000 1.0
C      1  0.4254450000000  0.4836490000000  0.5319850000000 1.0
C      1  0.5342070000000  0.4524300000000  0.5074980000000 1.0
C      1  0.4657900000000  0.5475710000000  0.5074820000000 1.0
C      1  0.4691550000000  0.5831440000000  0.4511730000000 1.0
C      1  0.5308630000000  0.4168520000000  0.4511900000000 1.0
C      1  0.4446240000000  0.5494730000000  0.5619330000000 1.0
C      1  0.5553540000000  0.4505320000000  0.5619570000000 1.0
C      1  0.4397020000000  0.4253010000000  0.4972960000000 1.0
C      1  0.5602990000000  0.5746990000000  0.4973110000000 1.0
C      1  0.4628840000000  0.4309210000000  0.5437190000000 1.0
C      1  0.5371000000000  0.5690820000000  0.5437260000000 1.0
C      1  0.5456220000000  0.5472790000000  0.5611160000000 1.0
C      1  0.4543570000000  0.4527260000000  0.5611040000000 1.0
C      1  0.4923100000000  0.5342290000000  0.4746130000000 1.0
C      1  0.5076990000000  0.4657690000000  0.4746190000000 1.0
C      1  0.4871660000000  0.4825890000000  0.5334450000000 1.0
C      1  0.5128220000000  0.5174130000000  0.5334480000000 1.0
C      1  0.5265700000000  0.5408540000000  0.5824870000000 1.0
C      1  0.4734010000000  0.4591520000000  0.5824810000000 1.0
C      1  0.4064140000000  0.5300410000000  0.5314360000000 1.0
C      1  0.5935740000000  0.4699620000000  0.5314720000000 1.0
C      1  0.5027240000000  0.4135060000000  0.5260480000000 1.0
C      1  0.4972670000000  0.5864960000000  0.5260400000000 1.0
C      1  0.5527850000000  0.5723910000000  0.4689310000000 1.0
C      1  0.4472260000000  0.4276060000000  0.4689180000000 1.0
C      1  0.5530180000000  0.5228530000000  0.4604080000000 1.0
C      1  0.4469960000000  0.4771440000000  0.4603910000000 1.0
C      1  0.4838490000000  0.4579180000000  0.4864960000000 1.0
C      1  0.5161560000000  0.5420810000000  0.4864990000000 1.0
C      1  0.5127150000000  0.4298840000000  0.4334630000000 1.0
C      1  0.4873090000000  0.5701100000000  0.4334530000000 1.0
C      1  0.5899570000000  0.4442010000000  0.5209350000000 1.0
C      1  0.4100360000000  0.5558000000000  0.5208990000000 1.0
C      1  0.5746600000000  0.5345220000000  0.4427350000000 1.0
C      1  0.4253600000000  0.4654740000000  0.4427110000000 1.0
C      1  0.4405990000000  0.4909990000000  0.4853650000000 1.0
C      1  0.5594070000000  0.5090000000000  0.4853860000000 1.0
C      1  0.5134190000000  0.5323350000000  0.4203630000000 1.0
C      1  0.4866100000000  0.4676590000000  0.4203610000000 1.0
C      1  0.5853920000000  0.4931720000000  0.4892090000000 1.0
C      1  0.4146120000000  0.5068270000000  0.4891780000000 1.0
C      1  0.4395620000000  0.4704020000000  0.5102550000000 1.0
C      1  0.5604340000000  0.5295990000000  0.5102750000000 1.0
C      1  0.4650020000000  0.5668860000000  0.5523370000000 1.0
C      1  0.5349790000000  0.4331180000000  0.5523550000000 1.0
C      1  0.5921310000000  0.5118340000000  0.4449310000000 1.0
C      1  0.4078880000000  0.4881620000000  0.4449000000000 1.0
C      1  0.4180210000000  0.5093190000000  0.4323410000000 1.0
C      1  0.5820030000000  0.4906750000000  0.4323710000000 1.0
C      1  0.4716320000000  0.4487860000000  0.4345360000000 1.0
C      1  0.5283910000000  0.5512090000000  0.4345420000000 1.0
C      1  0.5767670000000  0.5517920000000  0.5018040000000 1.0
C      1  0.4232320000000  0.4482080000000  0.5017810000000 1.0
C      1  0.5888830000000  0.4947840000000  0.5194910000000 1.0
C      1  0.4111100000000  0.5052180000000  0.5194590000000 1.0
C      1  0.4668070000000  0.5217060000000  0.5165800000000 1.0
C      1  0.5331870000000  0.4782950000000  0.5165940000000 1.0
C      1  0.4849850000000  0.5136520000000  0.5357380000000 1.0
C      1  0.5150020000000  0.4863510000000  0.5357450000000 1.0
C      1  0.4866010000000  0.5033320000000  0.5992680000000 1.0
C      1  0.5133640000000  0.4966770000000  0.5992730000000 1.0
C      1  0.5014930000000  0.4520980000000  0.5843650000000 1.0
C      1  0.4984770000000  0.5479090000000  0.5843610000000 1.0
C      1  0.5824180000000  0.4404860000000  0.4942120000000 1.0
C      1  0.4175840000000  0.5595140000000  0.4941770000000 1.0
C      1  0.5274970000000  0.5885000000000  0.4601290000000 1.0
C      1  0.4725170000000  0.4114960000000  0.4601260000000 1.0
C      1  0.5580610000000  0.4767370000000  0.4348080000000 1.0
C      1  0.4419630000000  0.5232580000000  0.4347850000000 1.0
C      1  0.4795280000000  0.5949330000000  0.4757770000000 1.0
C      1  0.5204810000000  0.4050650000000  0.4757920000000 1.0
C      1  0.4898920000000  0.4227040000000  0.5488700000000 1.0
C      1  0.5100910000000  0.5773000000000  0.5488670000000 1.0
C      1  0.5087910000000  0.5964000000000  0.4799430000000 1.0
C      1  0.4912160000000  0.4035990000000  0.4799470000000 1.0
C      1  0.5323790000000  0.4545180000000  0.4791590000000 1.0
C      1  0.4676280000000  0.5454800000000  0.4791430000000 1.0
C      1  0.5472250000000  0.4730970000000  0.5786800000000 1.0
C      1  0.4527470000000  0.5269100000000  0.5786610000000 1.0
C      1  0.5539770000000  0.5025320000000  0.5778840000000 1.0
C      1  0.4459960000000  0.4974740000000  0.5778650000000 1.0
C      1  0.5118810000000  0.4930920000000  0.4759140000000 1.0
C      1  0.4881270000000  0.5069060000000  0.4759090000000 1.0
C      1  0.4900330000000  0.5668550000000  0.5655570000000 1.0
C      1  0.5099430000000  0.4331500000000  0.5655660000000 1.0
C      1  0.5569750000000  0.4278430000000  0.4578710000000 1.0
C      1  0.4430400000000  0.5721530000000  0.4578450000000 1.0
C      1  0.4667150000000  0.5007820000000  0.4952110000000 1.0
C      1  0.5332860000000  0.4992180000000  0.4952230000000 1.0
C      1  0.4831630000000  0.4070460000000  0.5071950000000 1.0
C      1  0.5168340000000  0.5929540000000  0.5071940000000 1.0
END
