TITL C-58283-7846-1 34.7397615091861 125000 -207.194374138503 0 0 32 (C1) n - 1
REM
REM in /rds/project/t2_vol4/rds-t2-cs072/BORA/CARBON/from-Arr/AIRSS/Generating-Clusters/GAP-ML-2020/Higher-Symm/SD-CG/HFTN-CG
REM
REM
REM
REM
REM
REM ./C.cell (b20cbc046b6831c77cfcea5457e17084)
REM AIRSS Version 0.9.1 bugfix July 2018 build 013d7b7c2542+ Fri, 06 Jul 2018 19:26:36 +0100
REM compiler GCC version 9.3.0
REM options -cpp -mtune=generic -march=x86-64 -g -O0
REM seed -455402302 -1309553764 1295290811 -729198072 -1968510652 -1455960183 -1247192099 -1087276136 1467439750 633574716 -1687976710 518688454 325661592 520087616 202849811 -743376006 -1728305749 1446230355 811066620 -2042621088 -952917048 228195939 -1601187139 1729783472 1404482170 427130360 -1250413623 -1399153874 589883641 -1055203083 -120075916 1023699085 1370061740
REM
CELL 1.54180   50.00000   50.00000   50.00000   90.00000   90.00000   90.00000
LATT -1
SFAC C  
C      1  0.5380460000000  0.5431630000000  0.5241060000000 1.0
C      1  0.4889850000000  0.5433830000000  0.5331690000000 1.0
C      1  0.4494410000000  0.5197820000000  0.5310810000000 1.0
C      1  0.4420060000000  0.4716710000000  0.5252700000000 1.0
C      1  0.4830010000000  0.4449950000000  0.5293420000000 1.0
C      1  0.5278500000000  0.4588700000000  0.5279760000000 1.0
C      1  0.5600910000000  0.5008140000000  0.5276550000000 1.0
C      1  0.4405510000000  0.4731240000000  0.4974150000000 1.0
C      1  0.4911480000000  0.4451730000000  0.5018240000000 1.0
C      1  0.5189550000000  0.4537300000000  0.5004480000000 1.0
C      1  0.5636970000000  0.5174010000000  0.5025610000000 1.0
C      1  0.5391380000000  0.5338160000000  0.4960910000000 1.0
C      1  0.4802580000000  0.5426200000000  0.5053480000000 1.0
C      1  0.4561590000000  0.5271750000000  0.5041640000000 1.0
C      1  0.5122720000000  0.4724440000000  0.4792500000000 1.0
C      1  0.5225320000000  0.4958300000000  0.4675440000000 1.0
C      1  0.5187820000000  0.5215250000000  0.4818650000000 1.0
C      1  0.4916880000000  0.5275890000000  0.4835370000000 1.0
C      1  0.4670640000000  0.5109090000000  0.4832500000000 1.0
C      1  0.4618280000000  0.4824940000000  0.4830670000000 1.0
C      1  0.4840970000000  0.4642620000000  0.4816280000000 1.0
C      1  0.5381590000000  0.4858690000000  0.5352850000000 1.0
C      1  0.5637180000000  0.5281690000000  0.5302030000000 1.0
C      1  0.5159940000000  0.5334890000000  0.5379590000000 1.0
C      1  0.4664290000000  0.5367250000000  0.5476130000000 1.0
C      1  0.4362150000000  0.4967230000000  0.5370960000000 1.0
C      1  0.4572610000000  0.4505610000000  0.5360920000000 1.0
C      1  0.5085330000000  0.4463740000000  0.5438620000000 1.0
C      1  0.5159210000000  0.5016220000000  0.4412780000000 1.0
C      1  0.4912880000000  0.4933280000000  0.5263630000000 1.0
C      1  0.5036370000000  0.5173180000000  0.4261420000000 1.0
C      1  0.5154570000000  0.5038670000000  0.5349550000000 1.0
END
