TITL C-58284-7641-6 0.195271834410925 125000 -894.943093935314 0 0 127 (C1) n - 1
REM
REM in /rds/project/t2_vol4/rds-t2-cs072/BORA/CARBON/from-Arr/AIRSS/Generating-Clusters/GAP-ML-2020/Higher-Symm/SD-CG/HFTN-CG
REM
REM
REM
REM
REM
REM ./C.cell (b20cbc046b6831c77cfcea5457e17084)
REM AIRSS Version 0.9.1 bugfix July 2018 build 013d7b7c2542+ Fri, 06 Jul 2018 19:26:36 +0100
REM compiler GCC version 9.3.0
REM options -cpp -mtune=generic -march=x86-64 -g -O0
REM seed 247867477 1052448214 -2119554996 -2133970411 1448849633 -320137898 -1109216789 -1039644392 -105315053 528442433 52947127 -1636961953 332483139 596186333 -1130293251 -1202441774 -1915992927 1533859125 2114487656 1193848717 -12357728 387516132 -1031098105 556286339 -812697878 1665358300 2109480324 2120620449 -772373840 -86990268 1082140060 -88915502 -1320116305
REM
CELL 1.54180   50.00000   50.00000   50.00000   90.00000   90.00000   90.00000
LATT -1
SFAC C  
C      1  0.5778710000000  0.4337970000000  0.4724960000000 1.0
C      1  0.5656540000000  0.4361990000000  0.5529000000000 1.0
C      1  0.4864550000000  0.4357970000000  0.5753480000000 1.0
C      1  0.4252190000000  0.4378290000000  0.5265920000000 1.0
C      1  0.4411850000000  0.4376110000000  0.4504280000000 1.0
C      1  0.5164120000000  0.4347150000000  0.4237690000000 1.0
C      1  0.5736980000000  0.4344160000000  0.5271220000000 1.0
C      1  0.5639710000000  0.4354270000000  0.4479230000000 1.0
C      1  0.4878740000000  0.4357170000000  0.4252560000000 1.0
C      1  0.4264620000000  0.4382590000000  0.4748760000000 1.0
C      1  0.4385840000000  0.4367260000000  0.5518470000000 1.0
C      1  0.5151270000000  0.4363110000000  0.5726840000000 1.0
C      1  0.4335680000000  0.4833530000000  0.4459020000000 1.0
C      1  0.5174380000000  0.4757340000000  0.4053900000000 1.0
C      1  0.5930190000000  0.4784680000000  0.4652230000000 1.0
C      1  0.5784210000000  0.4772490000000  0.5597380000000 1.0
C      1  0.4864730000000  0.4793540000000  0.5886190000000 1.0
C      1  0.4120860000000  0.4822090000000  0.5351510000000 1.0
C      1  0.4269430000000  0.4815000000000  0.5611050000000 1.0
C      1  0.5155600000000  0.4773710000000  0.5914440000000 1.0
C      1  0.5909090000000  0.4764500000000  0.5333510000000 1.0
C      1  0.5804050000000  0.4774940000000  0.4389630000000 1.0
C      1  0.4887290000000  0.4780500000000  0.4102750000000 1.0
C      1  0.4179000000000  0.4841170000000  0.4696930000000 1.0
C      1  0.5869080000000  0.5510500000000  0.5196950000000 1.0
C      1  0.5298600000000  0.5506910000000  0.5806090000000 1.0
C      1  0.4536950000000  0.5553460000000  0.5693020000000 1.0
C      1  0.4080490000000  0.5576380000000  0.4880200000000 1.0
C      1  0.4779310000000  0.5535250000000  0.4190860000000 1.0
C      1  0.5510820000000  0.5491060000000  0.4355830000000 1.0
C      1  0.5802910000000  0.5536650000000  0.4923160000000 1.0
C      1  0.5280330000000  0.5474440000000  0.4185510000000 1.0
C      1  0.4537440000000  0.5576530000000  0.4338120000000 1.0
C      1  0.4024010000000  0.5536340000000  0.5160700000000 1.0
C      1  0.4791980000000  0.5554290000000  0.5825780000000 1.0
C      1  0.5510420000000  0.5512880000000  0.5602350000000 1.0
C      1  0.5356490000000  0.5195580000000  0.4700290000000 1.0
C      1  0.5538980000000  0.5076330000000  0.5157420000000 1.0
C      1  0.5056300000000  0.5123050000000  0.5283130000000 1.0
C      1  0.4573740000000  0.5102790000000  0.5409240000000 1.0
C      1  0.4425340000000  0.5277090000000  0.4943330000000 1.0
C      1  0.4938580000000  0.5187380000000  0.4444600000000 1.0
C      1  0.5328550000000  0.5240140000000  0.5277620000000 1.0
C      1  0.5578590000000  0.5058040000000  0.4827050000000 1.0
C      1  0.5137340000000  0.5057070000000  0.4616510000000 1.0
C      1  0.4695700000000  0.5165740000000  0.4594600000000 1.0
C      1  0.4353640000000  0.5243630000000  0.5239640000000 1.0
C      1  0.4848020000000  0.5189390000000  0.5493650000000 1.0
C      1  0.5183710000000  0.5050110000000  0.4017970000000 1.0
C      1  0.5859350000000  0.5087600000000  0.4679290000000 1.0
C      1  0.5787530000000  0.5068980000000  0.5594290000000 1.0
C      1  0.4894930000000  0.5091940000000  0.5813910000000 1.0
C      1  0.4097130000000  0.5084480000000  0.5247640000000 1.0
C      1  0.4416840000000  0.5123440000000  0.4475590000000 1.0
C      1  0.5183530000000  0.5061480000000  0.5906690000000 1.0
C      1  0.5849350000000  0.5063220000000  0.5297740000000 1.0
C      1  0.5793040000000  0.5068430000000  0.4378670000000 1.0
C      1  0.4896410000000  0.5078650000000  0.4126740000000 1.0
C      1  0.4221120000000  0.5138870000000  0.4733970000000 1.0
C      1  0.4411230000000  0.5061490000000  0.5663100000000 1.0
C      1  0.4420840000000  0.4581330000000  0.5693180000000 1.0
C      1  0.4146230000000  0.4611290000000  0.4868430000000 1.0
C      1  0.4718220000000  0.4584580000000  0.4210800000000 1.0
C      1  0.5623800000000  0.4557280000000  0.4291210000000 1.0
C      1  0.5896160000000  0.4552550000000  0.5149630000000 1.0
C      1  0.5326520000000  0.4565730000000  0.5814040000000 1.0
C      1  0.4471740000000  0.4605580000000  0.4354570000000 1.0
C      1  0.4129240000000  0.4603400000000  0.5158540000000 1.0
C      1  0.4691840000000  0.4579310000000  0.5813710000000 1.0
C      1  0.5598430000000  0.4567450000000  0.5695800000000 1.0
C      1  0.5843150000000  0.4592000000000  0.4855100000000 1.0
C      1  0.5349350000000  0.4551340000000  0.4157280000000 1.0
C      1  0.4841900000000  0.4184770000000  0.5513540000000 1.0
C      1  0.4453570000000  0.4193390000000  0.5140580000000 1.0
C      1  0.4614260000000  0.4179790000000  0.4615630000000 1.0
C      1  0.5158600000000  0.4177150000000  0.4486240000000 1.0
C      1  0.5552320000000  0.4204410000000  0.4860560000000 1.0
C      1  0.5259780000000  0.4332830000000  0.5244400000000 1.0
C      1  0.4860590000000  0.4175330000000  0.4489670000000 1.0
C      1  0.4456790000000  0.4179730000000  0.4865820000000 1.0
C      1  0.4593760000000  0.4187790000000  0.5395580000000 1.0
C      1  0.5128960000000  0.4216740000000  0.5465860000000 1.0
C      1  0.5510650000000  0.4230880000000  0.5127220000000 1.0
C      1  0.5366670000000  0.4294510000000  0.4644660000000 1.0
C      1  0.4460980000000  0.5291940000000  0.5816520000000 1.0
C      1  0.3986740000000  0.5305180000000  0.4818430000000 1.0
C      1  0.4685770000000  0.5283790000000  0.4080130000000 1.0
C      1  0.5634970000000  0.5250610000000  0.4235410000000 1.0
C      1  0.5999090000000  0.5263040000000  0.5142290000000 1.0
C      1  0.5391780000000  0.5247970000000  0.5890580000000 1.0
C      1  0.4448350000000  0.5309100000000  0.4245460000000 1.0
C      1  0.3926750000000  0.5264990000000  0.5098110000000 1.0
C      1  0.4723640000000  0.5297900000000  0.5935540000000 1.0
C      1  0.5629110000000  0.5266210000000  0.5709480000000 1.0
C      1  0.5971020000000  0.5299110000000  0.4852630000000 1.0
C      1  0.5388500000000  0.5235220000000  0.4065730000000 1.0
C      1  0.5542040000000  0.5623860000000  0.4867520000000 1.0
C      1  0.5359850000000  0.5550420000000  0.5345680000000 1.0
C      1  0.5051520000000  0.5619790000000  0.5729190000000 1.0
C      1  0.4250990000000  0.5508240000000  0.5331070000000 1.0
C      1  0.4522480000000  0.5675950000000  0.4593570000000 1.0
C      1  0.5137390000000  0.5636480000000  0.4575310000000 1.0
C      1  0.5373260000000  0.5699890000000  0.5081290000000 1.0
C      1  0.5396570000000  0.5505290000000  0.4635790000000 1.0
C      1  0.5031030000000  0.5492300000000  0.4343390000000 1.0
C      1  0.4377590000000  0.5577360000000  0.4842360000000 1.0
C      1  0.4465400000000  0.5659220000000  0.5442270000000 1.0
C      1  0.5107250000000  0.5686280000000  0.5460160000000 1.0
C      1  0.5114960000000  0.4778140000000  0.4662990000000 1.0
C      1  0.5535010000000  0.4745250000000  0.4856200000000 1.0
C      1  0.5268250000000  0.4638460000000  0.5261570000000 1.0
C      1  0.4827860000000  0.4695980000000  0.5380520000000 1.0
C      1  0.4645590000000  0.4869880000000  0.4991290000000 1.0
C      1  0.4686260000000  0.4640610000000  0.4856640000000 1.0
C      1  0.5064160000000  0.4812110000000  0.5318800000000 1.0
C      1  0.5445150000000  0.4794250000000  0.5128220000000 1.0
C      1  0.5342450000000  0.4617880000000  0.4692980000000 1.0
C      1  0.4933780000000  0.4639250000000  0.4800110000000 1.0
C      1  0.4695030000000  0.5148520000000  0.4890700000000 1.0
C      1  0.4628890000000  0.4846380000000  0.5270130000000 1.0
C      1  0.4653580000000  0.5775260000000  0.5253840000000 1.0
C      1  0.4559190000000  0.5771510000000  0.4993600000000 1.0
C      1  0.4720130000000  0.5802450000000  0.4758910000000 1.0
C      1  0.5113180000000  0.5801360000000  0.5029550000000 1.0
C      1  0.4943750000000  0.5796850000000  0.5262200000000 1.0
C      1  0.5002590000000  0.5788240000000  0.4768380000000 1.0
C      1  0.4935960000000  0.5228140000000  0.5034660000000 1.0
END
