TITL C-58266-7659-10 -0.0634756789933367 125000 -124.45024389271 0 0 19 (C1) n - 1
REM
REM in /rds/project/t2_vol4/rds-t2-cs072/BORA/CARBON/from-Arr/AIRSS/Generating-Clusters/GAP-ML-2020/Higher-Symm/SD-CG/HFTN-CG
REM
REM
REM
REM
REM
REM ./C.cell (b20cbc046b6831c77cfcea5457e17084)
REM AIRSS Version 0.9.1 bugfix July 2018 build 013d7b7c2542+ Fri, 06 Jul 2018 19:26:36 +0100
REM compiler GCC version 9.3.0
REM options -cpp -mtune=generic -march=x86-64 -g -O0
REM seed -1841110854 -1523579075 604145909 -19427752 -1008433508 -1059816043 1040475069 1266030490 -1220044250 685340876 -1407652746 1775639300 1068787124 -970056399 -1904756990 2035524297 -1093550277 798992324 1295823578 -304843111 -193799431 -1926037693 2093015520 1806530141 -2004271695 -1707476950 -107365161 2094405106 -37791099 -1580851736 -222788986 60440454 1982232988
REM
CELL 1.54180   50.00000   50.00000   50.00000   90.00000   90.00000   90.00000
LATT -1
SFAC C  
C      1  0.5708410000000  0.4873720000000  0.4808920000000 1.0
C      1  0.4390880000000  0.5154330000000  0.4969580000000 1.0
C      1  0.5494050000000  0.4959540000000  0.4957810000000 1.0
C      1  0.4544260000000  0.4958730000000  0.4912830000000 1.0
C      1  0.5352630000000  0.4453140000000  0.5122360000000 1.0
C      1  0.4705970000000  0.5692050000000  0.5248650000000 1.0
C      1  0.5138560000000  0.5485930000000  0.5202290000000 1.0
C      1  0.4907380000000  0.4358850000000  0.4920540000000 1.0
C      1  0.4748430000000  0.4786890000000  0.4904790000000 1.0
C      1  0.5224670000000  0.5015300000000  0.4998910000000 1.0
C      1  0.4371800000000  0.5393600000000  0.5071420000000 1.0
C      1  0.5649600000000  0.4741840000000  0.5061140000000 1.0
C      1  0.5199700000000  0.5264580000000  0.5101710000000 1.0
C      1  0.4708660000000  0.4506540000000  0.4856690000000 1.0
C      1  0.5595650000000  0.4509940000000  0.5193530000000 1.0
C      1  0.4463410000000  0.5610260000000  0.5180160000000 1.0
C      1  0.5126360000000  0.4530610000000  0.5004300000000 1.0
C      1  0.4963320000000  0.5673570000000  0.5272350000000 1.0
C      1  0.5040100000000  0.4803480000000  0.4964040000000 1.0
END
