TITL C-58278-7713-8 -0.0181171883076865 125000 -238.949804526053 0 0 37 (C1) n - 1
REM
REM in /rds/project/t2_vol4/rds-t2-cs072/BORA/CARBON/from-Arr/AIRSS/Generating-Clusters/GAP-ML-2020/Higher-Symm/SD-CG/HFTN-CG
REM
REM
REM
REM
REM
REM ./C.cell (b20cbc046b6831c77cfcea5457e17084)
REM AIRSS Version 0.9.1 bugfix July 2018 build 013d7b7c2542+ Fri, 06 Jul 2018 19:26:36 +0100
REM compiler GCC version 9.3.0
REM options -cpp -mtune=generic -march=x86-64 -g -O0
REM seed -929292852 399350014 398286378 621924917 1291532631 1772429534 625620983 1325934288 -642495282 2089633752 -1321325058 211117116 1371998305 -501438768 1558949699 -462258209 1517031289 753969925 2070591897 -1605034466 1125579103 -946309043 -1121282257 1132552531 -1243418825 -256645500 2043002885 1859123214 1311030773 -1714951178 2072251304 627971717 1098595148
REM
CELL 1.54180   50.00000   50.00000   50.00000   90.00000   90.00000   90.00000
LATT -1
SFAC C  
C      1  0.4909060000000  0.4958290000000  0.5587680000000 1.0
C      1  0.4940900000000  0.5478210000000  0.4753360000000 1.0
C      1  0.4811550000000  0.4479250000000  0.4721910000000 1.0
C      1  0.4921260000000  0.5246450000000  0.4617330000000 1.0
C      1  0.4832500000000  0.4478280000000  0.4991520000000 1.0
C      1  0.4968120000000  0.5179060000000  0.5446340000000 1.0
C      1  0.5657230000000  0.5489480000000  0.5064310000000 1.0
C      1  0.5465360000000  0.5023130000000  0.4529780000000 1.0
C      1  0.5372440000000  0.4659920000000  0.5128350000000 1.0
C      1  0.5272150000000  0.5558730000000  0.5358860000000 1.0
C      1  0.5221410000000  0.4992330000000  0.4352530000000 1.0
C      1  0.5113450000000  0.4360090000000  0.5357700000000 1.0
C      1  0.5504320000000  0.5595110000000  0.5266100000000 1.0
C      1  0.5483140000000  0.4960450000000  0.4262120000000 1.0
C      1  0.5346030000000  0.4443950000000  0.5265030000000 1.0
C      1  0.4661800000000  0.4603100000000  0.4521230000000 1.0
C      1  0.4708810000000  0.4770040000000  0.5617270000000 1.0
C      1  0.4777360000000  0.5617780000000  0.4931460000000 1.0
C      1  0.5011210000000  0.5456210000000  0.5382010000000 1.0
C      1  0.4950860000000  0.5039220000000  0.4421360000000 1.0
C      1  0.4854600000000  0.4422390000000  0.5273930000000 1.0
C      1  0.4906990000000  0.4959540000000  0.5259090000000 1.0
C      1  0.4906060000000  0.5173730000000  0.4890310000000 1.0
C      1  0.4853750000000  0.4748060000000  0.4900990000000 1.0
C      1  0.4581960000000  0.5433270000000  0.5074320000000 1.0
C      1  0.4507040000000  0.4841360000000  0.4628040000000 1.0
C      1  0.4505640000000  0.4784000000000  0.5383670000000 1.0
C      1  0.4794100000000  0.5574550000000  0.5213750000000 1.0
C      1  0.4733340000000  0.4853320000000  0.4405880000000 1.0
C      1  0.4664440000000  0.4546220000000  0.5455840000000 1.0
C      1  0.5506040000000  0.5053940000000  0.4808820000000 1.0
C      1  0.5329030000000  0.4884100000000  0.4981560000000 1.0
C      1  0.5609910000000  0.5286480000000  0.4915220000000 1.0
C      1  0.4606810000000  0.4900620000000  0.4883340000000 1.0
C      1  0.4627690000000  0.4935680000000  0.5184720000000 1.0
C      1  0.4644060000000  0.5164160000000  0.5011930000000 1.0
C      1  0.5047150000000  0.4940340000000  0.4999780000000 1.0
END
