TITL C-58262-7671-4 -0.0460968078549145 125000 -639.878185323925 0 0 88 (Cs) n - 1
REM
REM in /rds/project/t2_vol4/rds-t2-cs072/BORA/CARBON/from-Arr/AIRSS/Generating-Clusters/GAP-ML-2020/Higher-Symm/SD-CG/HFTN-CG
REM
REM
REM
REM
REM
REM ./C.cell (b20cbc046b6831c77cfcea5457e17084)
REM AIRSS Version 0.9.1 bugfix July 2018 build 013d7b7c2542+ Fri, 06 Jul 2018 19:26:36 +0100
REM compiler GCC version 9.3.0
REM options -cpp -mtune=generic -march=x86-64 -g -O0
REM seed 1560726583 -447437341 -1495934575 -386780626 -517286446 -1378934612 -541059654 1828282250 -76024890 -2112089115 -930066729 12194038 1193573277 1248696548 1043560251 -174192325 -162969966 130245066 1301765481 -1161383524 1644901050 397789509 -675010846 1692543558 -1379573331 1079415788 1724799708 2005190717 -2077716279 -646461358 -1877187413 -1091209018 1662434525
REM
CELL 1.54180   50.00000   50.00000   50.00000   90.00000   90.00000   90.00000
LATT -1
SFAC C  
C      1  0.4634870000000  0.4304270000000  0.4765620000000 1.0
C      1  0.4640860000000  0.5141050000000  0.5704190000000 1.0
C      1  0.4638220000000  0.5555510000000  0.4523330000000 1.0
C      1  0.4634980000000  0.5699080000000  0.4765640000000 1.0
C      1  0.4640830000000  0.4862260000000  0.5704190000000 1.0
C      1  0.4638140000000  0.4447840000000  0.4523310000000 1.0
C      1  0.5628750000000  0.4732540000000  0.5007800000000 1.0
C      1  0.5676010000000  0.5144900000000  0.5278270000000 1.0
C      1  0.5680290000000  0.5144530000000  0.4744980000000 1.0
C      1  0.5628790000000  0.5270640000000  0.5007810000000 1.0
C      1  0.5675990000000  0.4858260000000  0.5278260000000 1.0
C      1  0.5680270000000  0.4858650000000  0.4744980000000 1.0
C      1  0.5487960000000  0.4463160000000  0.4997730000000 1.0
C      1  0.5543980000000  0.5278410000000  0.5498640000000 1.0
C      1  0.5490390000000  0.5270480000000  0.4545510000000 1.0
C      1  0.5488040000000  0.5540040000000  0.4997750000000 1.0
C      1  0.5543930000000  0.4724770000000  0.5498630000000 1.0
C      1  0.5490340000000  0.4732740000000  0.4545500000000 1.0
C      1  0.4536450000000  0.5145080000000  0.4332480000000 1.0
C      1  0.4536560000000  0.4338050000000  0.5217640000000 1.0
C      1  0.4537350000000  0.5513340000000  0.5456050000000 1.0
C      1  0.4536420000000  0.4858300000000  0.4332480000000 1.0
C      1  0.4536660000000  0.5665300000000  0.5217660000000 1.0
C      1  0.4537270000000  0.4489990000000  0.5456030000000 1.0
C      1  0.4880680000000  0.5156140000000  0.5175490000000 1.0
C      1  0.4945070000000  0.5143390000000  0.4726090000000 1.0
C      1  0.4788820000000  0.4746930000000  0.4930360000000 1.0
C      1  0.4880650000000  0.4847160000000  0.5175490000000 1.0
C      1  0.4945050000000  0.4859900000000  0.4726090000000 1.0
C      1  0.4788860000000  0.5256390000000  0.4930370000000 1.0
C      1  0.5439630000000  0.4311600000000  0.5238660000000 1.0
C      1  0.5452390000000  0.5551670000000  0.5482720000000 1.0
C      1  0.5436870000000  0.5141140000000  0.4290030000000 1.0
C      1  0.5439740000000  0.5691600000000  0.5238690000000 1.0
C      1  0.5452300000000  0.4451520000000  0.5482700000000 1.0
C      1  0.5436850000000  0.4862090000000  0.4290030000000 1.0
C      1  0.4852840000000  0.4672970000000  0.5762320000000 1.0
C      1  0.4843140000000  0.5845330000000  0.4904640000000 1.0
C      1  0.4844000000000  0.4487010000000  0.4318520000000 1.0
C      1  0.4852890000000  0.5330310000000  0.5762330000000 1.0
C      1  0.4843010000000  0.4157980000000  0.4904610000000 1.0
C      1  0.4844080000000  0.5516320000000  0.4318540000000 1.0
C      1  0.4988890000000  0.5724480000000  0.5573790000000 1.0
C      1  0.4981870000000  0.5140570000000  0.4088130000000 1.0
C      1  0.4985400000000  0.4121800000000  0.5345300000000 1.0
C      1  0.4988780000000  0.4278780000000  0.5573770000000 1.0
C      1  0.4981850000000  0.4862740000000  0.4088120000000 1.0
C      1  0.4985540000000  0.5881470000000  0.5345340000000 1.0
C      1  0.5347170000000  0.5677790000000  0.4775420000000 1.0
C      1  0.5353180000000  0.4457320000000  0.4525160000000 1.0
C      1  0.5373710000000  0.4859630000000  0.5701090000000 1.0
C      1  0.5347060000000  0.4325440000000  0.4775400000000 1.0
C      1  0.5353260000000  0.5545920000000  0.4525180000000 1.0
C      1  0.5373740000000  0.5143570000000  0.5701100000000 1.0
C      1  0.4752500000000  0.4727400000000  0.4187820000000 1.0
C      1  0.4761440000000  0.4437690000000  0.5631410000000 1.0
C      1  0.4754080000000  0.5851260000000  0.5178270000000 1.0
C      1  0.4752540000000  0.5275950000000  0.4187830000000 1.0
C      1  0.4761530000000  0.5565600000000  0.5631430000000 1.0
C      1  0.4753950000000  0.4152050000000  0.5178240000000 1.0
C      1  0.4469420000000  0.4772010000000  0.5486200000000 1.0
C      1  0.4471090000000  0.5554120000000  0.4959340000000 1.0
C      1  0.4483280000000  0.4689530000000  0.4560970000000 1.0
C      1  0.4469460000000  0.5231340000000  0.5486210000000 1.0
C      1  0.4471010000000  0.4449240000000  0.4959320000000 1.0
C      1  0.4483330000000  0.5313840000000  0.4560980000000 1.0
C      1  0.5138420000000  0.4165750000000  0.4907940000000 1.0
C      1  0.5151650000000  0.5330940000000  0.5762450000000 1.0
C      1  0.5144720000000  0.5512710000000  0.4318460000000 1.0
C      1  0.5138550000000  0.5837510000000  0.4907970000000 1.0
C      1  0.5151590000000  0.4672290000000  0.5762440000000 1.0
C      1  0.5144640000000  0.4490570000000  0.4318440000000 1.0
C      1  0.5242250000000  0.5154920000000  0.4746940000000 1.0
C      1  0.5313980000000  0.4735070000000  0.4995830000000 1.0
C      1  0.5164220000000  0.5154100000000  0.5201250000000 1.0
C      1  0.5242220000000  0.4848330000000  0.4746930000000 1.0
C      1  0.5314020000000  0.5268160000000  0.4995840000000 1.0
C      1  0.5164200000000  0.4849150000000  0.5201250000000 1.0
C      1  0.5217240000000  0.5278080000000  0.4172830000000 1.0
C      1  0.5220320000000  0.4138730000000  0.5182580000000 1.0
C      1  0.5223520000000  0.5580520000000  0.5648890000000 1.0
C      1  0.5217190000000  0.4725200000000  0.4172820000000 1.0
C      1  0.5220450000000  0.5864510000000  0.5182610000000 1.0
C      1  0.5223430000000  0.4422700000000  0.5648870000000 1.0
C      1  0.4384170000000  0.5001680000000  0.5315640000000 1.0
C      1  0.4471240000000  0.4742360000000  0.4868970000000 1.0
C      1  0.4471280000000  0.5261010000000  0.4868980000000 1.0
C      1  0.4371320000000  0.5001690000000  0.5016480000000 1.0
END
