TITL C-58278-7713-5 0.0806350746472907 125000 -381.530054201705 0 0 56 (C1) n - 1
REM
REM in /rds/project/t2_vol4/rds-t2-cs072/BORA/CARBON/from-Arr/AIRSS/Generating-Clusters/GAP-ML-2020/Higher-Symm/SD-CG/HFTN-CG
REM
REM
REM
REM
REM
REM ./C.cell (b20cbc046b6831c77cfcea5457e17084)
REM AIRSS Version 0.9.1 bugfix July 2018 build 013d7b7c2542+ Fri, 06 Jul 2018 19:26:36 +0100
REM compiler GCC version 9.3.0
REM options -cpp -mtune=generic -march=x86-64 -g -O0
REM seed 1017874559 456987721 -2049678311 -486220845 -725921980 -559368394 672546532 -2017938072 838056243 1221939796 -2035488402 -962041370 1950190904 -552498693 -1898579750 -1964244764 1023918320 -1637550784 -755651120 486070124 -1925205812 -355103797 -1030163482 36597901 -375223809 -2015060162 2093309390 709527222 -854484181 -764755265 -1736125836 -347170322 -639943803
REM
CELL 1.54180   50.00000   50.00000   50.00000   90.00000   90.00000   90.00000
LATT -1
SFAC C  
C      1  0.4836610000000  0.4720940000000  0.5780630000000 1.0
C      1  0.5159270000000  0.4873150000000  0.4849970000000 1.0
C      1  0.4919770000000  0.4497960000000  0.5336710000000 1.0
C      1  0.4361380000000  0.5167820000000  0.4971130000000 1.0
C      1  0.4933040000000  0.5387950000000  0.5574980000000 1.0
C      1  0.4661830000000  0.5048070000000  0.4329760000000 1.0
C      1  0.5090080000000  0.5541810000000  0.4547270000000 1.0
C      1  0.4661260000000  0.4615520000000  0.5312660000000 1.0
C      1  0.5438160000000  0.5395690000000  0.5483030000000 1.0
C      1  0.4760510000000  0.5314040000000  0.4319950000000 1.0
C      1  0.5234630000000  0.5139460000000  0.4369240000000 1.0
C      1  0.5088740000000  0.4674670000000  0.5823700000000 1.0
C      1  0.5526200000000  0.4898180000000  0.5486140000000 1.0
C      1  0.4539640000000  0.4544290000000  0.5070170000000 1.0
C      1  0.4770220000000  0.5113230000000  0.4915450000000 1.0
C      1  0.5434150000000  0.4989830000000  0.4796110000000 1.0
C      1  0.5256990000000  0.4835140000000  0.5613120000000 1.0
C      1  0.5391890000000  0.5200940000000  0.4612910000000 1.0
C      1  0.5303330000000  0.4566480000000  0.4483470000000 1.0
C      1  0.4962420000000  0.5537540000000  0.5085630000000 1.0
C      1  0.4618330000000  0.4908950000000  0.5366710000000 1.0
C      1  0.4825820000000  0.5626500000000  0.4633500000000 1.0
C      1  0.4863860000000  0.4842440000000  0.4302590000000 1.0
C      1  0.5315530000000  0.4645270000000  0.4240280000000 1.0
C      1  0.4694240000000  0.4941570000000  0.5651360000000 1.0
C      1  0.4377510000000  0.4970980000000  0.5188790000000 1.0
C      1  0.4970720000000  0.4356260000000  0.5098050000000 1.0
C      1  0.5219890000000  0.5357330000000  0.5642550000000 1.0
C      1  0.4655430000000  0.5552390000000  0.4421650000000 1.0
C      1  0.5597700000000  0.4984290000000  0.5024780000000 1.0
C      1  0.5248760000000  0.5516390000000  0.5003540000000 1.0
C      1  0.4851210000000  0.5068460000000  0.5198980000000 1.0
C      1  0.4866170000000  0.5150940000000  0.5724550000000 1.0
C      1  0.5367880000000  0.4572040000000  0.5192830000000 1.0
C      1  0.5618700000000  0.5162110000000  0.5460790000000 1.0
C      1  0.5085270000000  0.4899250000000  0.5149020000000 1.0
C      1  0.5149720000000  0.4573970000000  0.4731270000000 1.0
C      1  0.4370250000000  0.4755130000000  0.4987430000000 1.0
C      1  0.5151870000000  0.5092950000000  0.5743690000000 1.0
C      1  0.4746370000000  0.4415930000000  0.4918930000000 1.0
C      1  0.5220500000000  0.4434220000000  0.4988510000000 1.0
C      1  0.4949340000000  0.5042870000000  0.4721510000000 1.0
C      1  0.4750110000000  0.5562460000000  0.4898880000000 1.0
C      1  0.4846660000000  0.4526290000000  0.4684160000000 1.0
C      1  0.5050360000000  0.5345970000000  0.4337850000000 1.0
C      1  0.5287130000000  0.5450760000000  0.4721300000000 1.0
C      1  0.5147000000000  0.4880640000000  0.4284330000000 1.0
C      1  0.4573890000000  0.5329360000000  0.4906750000000 1.0
C      1  0.5444480000000  0.5441420000000  0.5191880000000 1.0
C      1  0.4875330000000  0.5364880000000  0.5301170000000 1.0
C      1  0.5638490000000  0.5222420000000  0.5167740000000 1.0
C      1  0.4716020000000  0.4670410000000  0.4489370000000 1.0
C      1  0.5148490000000  0.4691810000000  0.5363810000000 1.0
C      1  0.4507270000000  0.4885370000000  0.4522940000000 1.0
C      1  0.5564030000000  0.4769450000000  0.5218660000000 1.0
C      1  0.4355490000000  0.4925860000000  0.4757790000000 1.0
END
