TITL C-58281-7660-8 -0.0655882421470482 125000 -1259.37799803404 0 0 179 (C3h) n - 1
REM
REM in /rds/project/t2_vol4/rds-t2-cs072/BORA/CARBON/from-Arr/AIRSS/Generating-Clusters/GAP-ML-2020/Higher-Symm/SD-CG/HFTN-CG
REM
REM
REM
REM
REM
REM ./C.cell (b20cbc046b6831c77cfcea5457e17084)
REM AIRSS Version 0.9.1 bugfix July 2018 build 013d7b7c2542+ Fri, 06 Jul 2018 19:26:36 +0100
REM compiler GCC version 9.3.0
REM options -cpp -mtune=generic -march=x86-64 -g -O0
REM seed 1083346148 -1731865151 -1646276051 -492059804 1192779876 -795678421 886363338 -147554542 775472855 262906538 -878389167 -969263586 -1428320017 1442638917 -1231377389 114968919 -912987813 2118085261 -383640185 324099662 607565254 -2138932732 1751535149 490848029 1280785489 -964369126 1465290892 -1975124758 67365052 -593993925 453208434 1736941566 -1864430299
REM
CELL 1.54180   50.00000   50.00000   50.00000   90.00000   90.00000   90.00000
LATT -1
SFAC C  
C      1  0.5986170000000  0.5172100000000  0.5315390000000 1.0
C      1  0.4653440000000  0.4057800000000  0.5315400000000 1.0
C      1  0.4354790000000  0.5769120000000  0.5315440000000 1.0
C      1  0.5986150000000  0.5172110000000  0.4700450000000 1.0
C      1  0.4653420000000  0.4057810000000  0.4700460000000 1.0
C      1  0.4354780000000  0.5769140000000  0.4700500000000 1.0
C      1  0.4495050000000  0.4821510000000  0.4498060000000 1.0
C      1  0.5095330000000  0.5524440000000  0.4498050000000 1.0
C      1  0.5403950000000  0.4653120000000  0.4498030000000 1.0
C      1  0.4495080000000  0.4821490000000  0.5517840000000 1.0
C      1  0.5095360000000  0.5524420000000  0.5517840000000 1.0
C      1  0.5403980000000  0.4653100000000  0.5517810000000 1.0
C      1  0.5458100000000  0.4878590000000  0.5707830000000 1.0
C      1  0.4663310000000  0.4661870000000  0.5707840000000 1.0
C      1  0.4873020000000  0.5458540000000  0.5707850000000 1.0
C      1  0.5458060000000  0.4878620000000  0.4308020000000 1.0
C      1  0.4663280000000  0.4661900000000  0.4308040000000 1.0
C      1  0.4872980000000  0.5458560000000  0.4308050000000 1.0
C      1  0.5129560000000  0.5771500000000  0.4132970000000 1.0
C      1  0.5600780000000  0.4499950000000  0.4132930000000 1.0
C      1  0.4263980000000  0.4727640000000  0.4132970000000 1.0
C      1  0.5129600000000  0.5771470000000  0.5882930000000 1.0
C      1  0.5600820000000  0.4499920000000  0.5882900000000 1.0
C      1  0.4264020000000  0.4727600000000  0.5882940000000 1.0
C      1  0.4133300000000  0.4971570000000  0.5782460000000 1.0
C      1  0.5406230000000  0.5762690000000  0.5782450000000 1.0
C      1  0.5454900000000  0.4264730000000  0.5782420000000 1.0
C      1  0.4133260000000  0.4971600000000  0.4233460000000 1.0
C      1  0.5406200000000  0.5762720000000  0.4233440000000 1.0
C      1  0.5454860000000  0.4264760000000  0.4233410000000 1.0
C      1  0.5006860000000  0.4720720000000  0.6139620000000 1.0
C      1  0.4752230000000  0.5131590000000  0.6139630000000 1.0
C      1  0.5235370000000  0.5146670000000  0.6139620000000 1.0
C      1  0.5006800000000  0.4720770000000  0.3876250000000 1.0
C      1  0.4752180000000  0.5131630000000  0.3876260000000 1.0
C      1  0.5235310000000  0.5146710000000  0.3876250000000 1.0
C      1  0.5545950000000  0.4378250000000  0.4859170000000 1.0
C      1  0.4186030000000  0.4835970000000  0.4859210000000 1.0
C      1  0.5262380000000  0.5784830000000  0.4859210000000 1.0
C      1  0.5545960000000  0.4378250000000  0.5156650000000 1.0
C      1  0.4186040000000  0.4835960000000  0.5156700000000 1.0
C      1  0.5262390000000  0.5784820000000  0.5156690000000 1.0
C      1  0.4014250000000  0.4941180000000  0.4486410000000 1.0
C      1  0.5439370000000  0.5881000000000  0.4486390000000 1.0
C      1  0.5540720000000  0.4176890000000  0.4486350000000 1.0
C      1  0.4014270000000  0.4941160000000  0.5529520000000 1.0
C      1  0.5439400000000  0.5880980000000  0.5529500000000 1.0
C      1  0.5540740000000  0.4176870000000  0.5529470000000 1.0
C      1  0.4801000000000  0.5465510000000  0.4862830000000 1.0
C      1  0.5500100000000  0.4937490000000  0.4862800000000 1.0
C      1  0.4693270000000  0.4596060000000  0.4862810000000 1.0
C      1  0.4801000000000  0.5465500000000  0.5153080000000 1.0
C      1  0.5500110000000  0.4937480000000  0.5153050000000 1.0
C      1  0.4693280000000  0.4596050000000  0.5153060000000 1.0
C      1  0.5147460000000  0.4679460000000  0.4871370000000 1.0
C      1  0.4646130000000  0.5030460000000  0.4871390000000 1.0
C      1  0.5200770000000  0.5289120000000  0.4871380000000 1.0
C      1  0.5147470000000  0.4679450000000  0.5144480000000 1.0
C      1  0.4646140000000  0.5030460000000  0.5144500000000 1.0
C      1  0.5200780000000  0.5289120000000  0.5144490000000 1.0
C      1  0.4265840000000  0.4473590000000  0.5728890000000 1.0
C      1  0.4908700000000  0.5896890000000  0.5728900000000 1.0
C      1  0.5819890000000  0.4628510000000  0.5728850000000 1.0
C      1  0.4265810000000  0.4473620000000  0.4287000000000 1.0
C      1  0.4908670000000  0.5896920000000  0.4287020000000 1.0
C      1  0.5819850000000  0.4628540000000  0.4286970000000 1.0
C      1  0.4207420000000  0.4281100000000  0.4768480000000 1.0
C      1  0.4771160000000  0.6043750000000  0.4768500000000 1.0
C      1  0.6015790000000  0.4674210000000  0.4768450000000 1.0
C      1  0.4207430000000  0.4281090000000  0.5247410000000 1.0
C      1  0.4771170000000  0.6043740000000  0.5247430000000 1.0
C      1  0.6015800000000  0.4674200000000  0.5247370000000 1.0
C      1  0.5070800000000  0.5529510000000  0.5243650000000 1.0
C      1  0.5420650000000  0.4671830000000  0.5243630000000 1.0
C      1  0.4502950000000  0.4797690000000  0.5243650000000 1.0
C      1  0.5070790000000  0.5529520000000  0.4772240000000 1.0
C      1  0.5420630000000  0.4671840000000  0.4772210000000 1.0
C      1  0.4502940000000  0.4797700000000  0.4772240000000 1.0
C      1  0.5054480000000  0.5487360000000  0.5951990000000 1.0
C      1  0.5392350000000  0.4707030000000  0.5951970000000 1.0
C      1  0.4547620000000  0.4804590000000  0.5951990000000 1.0
C      1  0.5054430000000  0.5487400000000  0.4063900000000 1.0
C      1  0.5392300000000  0.4707060000000  0.4063870000000 1.0
C      1  0.4547570000000  0.4804630000000  0.4063900000000 1.0
C      1  0.5107540000000  0.4570850000000  0.5893020000000 1.0
C      1  0.4572090000000  0.5119340000000  0.5893050000000 1.0
C      1  0.5314820000000  0.5308800000000  0.5893030000000 1.0
C      1  0.5107490000000  0.4570880000000  0.4122830000000 1.0
C      1  0.4572040000000  0.5119370000000  0.4122860000000 1.0
C      1  0.5314770000000  0.5308840000000  0.4122840000000 1.0
C      1  0.5902740000000  0.4526700000000  0.4541930000000 1.0
C      1  0.4136180000000  0.4452750000000  0.4541970000000 1.0
C      1  0.4955420000000  0.6019610000000  0.4541980000000 1.0
C      1  0.5902760000000  0.4526680000000  0.5473880000000 1.0
C      1  0.4136210000000  0.4452740000000  0.5473930000000 1.0
C      1  0.4955440000000  0.6019590000000  0.5473940000000 1.0
C      1  0.5598270000000  0.5412950000000  0.4654890000000 1.0
C      1  0.5055940000000  0.4273300000000  0.4654880000000 1.0
C      1  0.4340140000000  0.5312800000000  0.4654920000000 1.0
C      1  0.5598290000000  0.5412940000000  0.5360970000000 1.0
C      1  0.5055950000000  0.4273290000000  0.5360970000000 1.0
C      1  0.4340160000000  0.5312790000000  0.5361000000000 1.0
C      1  0.4307570000000  0.5424080000000  0.5633230000000 1.0
C      1  0.5710980000000  0.5385510000000  0.5633190000000 1.0
C      1  0.4975870000000  0.4189410000000  0.5633190000000 1.0
C      1  0.4307540000000  0.5424110000000  0.4382700000000 1.0
C      1  0.5710950000000  0.5385530000000  0.4382660000000 1.0
C      1  0.4975840000000  0.4189430000000  0.4382660000000 1.0
C      1  0.5527620000000  0.5496240000000  0.5820770000000 1.0
C      1  0.5163450000000  0.4292840000000  0.5820750000000 1.0
C      1  0.4303360000000  0.5209920000000  0.5820790000000 1.0
C      1  0.5527580000000  0.5496270000000  0.4195100000000 1.0
C      1  0.5163410000000  0.4292870000000  0.4195090000000 1.0
C      1  0.4303320000000  0.5209950000000  0.4195130000000 1.0
C      1  0.5348310000000  0.4175190000000  0.4714770000000 1.0
C      1  0.4108990000000  0.5108650000000  0.4714810000000 1.0
C      1  0.5537050000000  0.5715210000000  0.4714790000000 1.0
C      1  0.5348330000000  0.4175180000000  0.5301060000000 1.0
C      1  0.4109000000000  0.5108640000000  0.5301110000000 1.0
C      1  0.5537070000000  0.5715200000000  0.5301090000000 1.0
C      1  0.4692540000000  0.4177750000000  0.4423090000000 1.0
C      1  0.4439080000000  0.5675290000000  0.4423120000000 1.0
C      1  0.5862720000000  0.5146020000000  0.4423080000000 1.0
C      1  0.4692570000000  0.4177730000000  0.5592770000000 1.0
C      1  0.4439110000000  0.5675270000000  0.5592810000000 1.0
C      1  0.5862750000000  0.5146000000000  0.5592760000000 1.0
C      1  0.5742270000000  0.4316260000000  0.5381640000000 1.0
C      1  0.4034220000000  0.4696940000000  0.5381690000000 1.0
C      1  0.5217920000000  0.5985810000000  0.5381680000000 1.0
C      1  0.5742250000000  0.4316280000000  0.4634180000000 1.0
C      1  0.4034200000000  0.4696950000000  0.4634230000000 1.0
C      1  0.5217900000000  0.5985830000000  0.4634220000000 1.0
C      1  0.4005560000000  0.5342020000000  0.4867840000000 1.0
C      1  0.5790880000000  0.5688090000000  0.4867800000000 1.0
C      1  0.5197920000000  0.3968930000000  0.4867780000000 1.0
C      1  0.4005570000000  0.5342020000000  0.5148100000000 1.0
C      1  0.5790890000000  0.5688090000000  0.5148060000000 1.0
C      1  0.5197930000000  0.3968920000000  0.5148050000000 1.0
C      1  0.5255480000000  0.4866520000000  0.6167300000000 1.0
C      1  0.4754190000000  0.4843370000000  0.6167310000000 1.0
C      1  0.4984790000000  0.5289080000000  0.6167310000000 1.0
C      1  0.5255420000000  0.4866560000000  0.3848560000000 1.0
C      1  0.4754130000000  0.4843420000000  0.3848570000000 1.0
C      1  0.4984730000000  0.5289120000000  0.3848580000000 1.0
C      1  0.5277000000000  0.5102310000000  0.4392420000000 1.0
C      1  0.4947540000000  0.4706850000000  0.4392420000000 1.0
C      1  0.4769790000000  0.5189910000000  0.4392430000000 1.0
C      1  0.5277030000000  0.5102290000000  0.5623450000000 1.0
C      1  0.4947570000000  0.4706830000000  0.5623450000000 1.0
C      1  0.4769820000000  0.5189880000000  0.5623460000000 1.0
C      1  0.5755510000000  0.4911640000000  0.4305070000000 1.0
C      1  0.4543150000000  0.4387790000000  0.4305090000000 1.0
C      1  0.4695660000000  0.5699650000000  0.4305110000000 1.0
C      1  0.5755540000000  0.4911620000000  0.5710770000000 1.0
C      1  0.4543190000000  0.4387760000000  0.5710790000000 1.0
C      1  0.4695700000000  0.5699620000000  0.5710810000000 1.0
C      1  0.4651590000000  0.5257010000000  0.4697900000000 1.0
C      1  0.5394230000000  0.5171120000000  0.4697880000000 1.0
C      1  0.4948530000000  0.4570920000000  0.4697880000000 1.0
C      1  0.4651610000000  0.5257000000000  0.5318000000000 1.0
C      1  0.5394240000000  0.5171110000000  0.5317980000000 1.0
C      1  0.4948550000000  0.4570910000000  0.5317980000000 1.0
C      1  0.4237260000000  0.5542960000000  0.5165520000000 1.0
C      1  0.5849060000000  0.5386970000000  0.5165470000000 1.0
C      1  0.4908070000000  0.4069100000000  0.5165470000000 1.0
C      1  0.4237250000000  0.5542970000000  0.4850420000000 1.0
C      1  0.5849050000000  0.5386970000000  0.4850380000000 1.0
C      1  0.4908060000000  0.4069110000000  0.4850380000000 1.0
C      1  0.4422850000000  0.4103470000000  0.4861250000000 1.0
C      1  0.4509610000000  0.5945990000000  0.4861280000000 1.0
C      1  0.6061900000000  0.4949590000000  0.4861220000000 1.0
C      1  0.4422860000000  0.4103460000000  0.5154620000000 1.0
C      1  0.4509620000000  0.5945990000000  0.5154660000000 1.0
C      1  0.6061910000000  0.4949580000000  0.5154600000000 1.0
C      1  0.4895510000000  0.6088250000000  0.5007960000000 1.0
C      1  0.5992160000000  0.4544260000000  0.5007900000000 1.0
C      1  0.4106700000000  0.4366530000000  0.5007950000000 1.0
C      1  0.4998110000000  0.4999690000000  0.4400580000000 1.0
C      1  0.4998140000000  0.4999670000000  0.5615290000000 1.0
END
