TITL C-58271-7580-6 -0.492522956671995 125000 -588.395300838282 0 0 84 (Cs) n - 1
REM
REM in /rds/project/t2_vol4/rds-t2-cs072/BORA/CARBON/from-Arr/AIRSS/Generating-Clusters/GAP-ML-2020/Higher-Symm/SD-CG/HFTN-CG
REM
REM
REM
REM
REM
REM ./C.cell (b20cbc046b6831c77cfcea5457e17084)
REM AIRSS Version 0.9.1 bugfix July 2018 build 013d7b7c2542+ Fri, 06 Jul 2018 19:26:36 +0100
REM compiler GCC version 9.3.0
REM options -cpp -mtune=generic -march=x86-64 -g -O0
REM seed 1809193802 -1597002205 -157858461 -1049896118 1744863854 -1617547223 -1257698808 -1178053162 1763907416 376275782 1525331704 -1883985159 -292954240 445846554 1520048510 771606542 -1124085329 -1232149810 -1894762016 -2094649416 1240245218 971910599 325374208 458172164 1938206080 528399235 1953549642 1301130094 -1939144194 1784481839 -556334362 2064119738 -1065061
REM
CELL 1.54180   50.00000   50.00000   50.00000   90.00000   90.00000   90.00000
LATT -1
SFAC C  
C      1  0.4436550000000  0.4679820000000  0.4625180000000 1.0
C      1  0.5563500000000  0.4679880000000  0.4625210000000 1.0
C      1  0.5143420000000  0.4545510000000  0.5814430000000 1.0
C      1  0.4856590000000  0.4545500000000  0.5814420000000 1.0
C      1  0.5533160000000  0.5561030000000  0.4742360000000 1.0
C      1  0.4466800000000  0.5560980000000  0.4742340000000 1.0
C      1  0.4475730000000  0.4880360000000  0.5569090000000 1.0
C      1  0.5524260000000  0.4880410000000  0.5569110000000 1.0
C      1  0.4851570000000  0.4486260000000  0.4426200000000 1.0
C      1  0.5148500000000  0.4486270000000  0.4426200000000 1.0
C      1  0.5503510000000  0.4598500000000  0.5524590000000 1.0
C      1  0.4496510000000  0.4598450000000  0.5524570000000 1.0
C      1  0.4864690000000  0.5568430000000  0.4531480000000 1.0
C      1  0.5135280000000  0.5568440000000  0.4531490000000 1.0
C      1  0.4845520000000  0.4787450000000  0.5035440000000 1.0
C      1  0.5154500000000  0.4787460000000  0.5035450000000 1.0
C      1  0.4619200000000  0.5618360000000  0.5337060000000 1.0
C      1  0.5380730000000  0.5618390000000  0.5337070000000 1.0
C      1  0.4836210000000  0.5409470000000  0.5431290000000 1.0
C      1  0.5163740000000  0.5409490000000  0.5431290000000 1.0
C      1  0.4853850000000  0.5189460000000  0.4250290000000 1.0
C      1  0.5146170000000  0.5189470000000  0.4250290000000 1.0
C      1  0.5603260000000  0.5489500000000  0.5194610000000 1.0
C      1  0.4396690000000  0.5489450000000  0.5194590000000 1.0
C      1  0.4864870000000  0.4957510000000  0.4586100000000 1.0
C      1  0.5135150000000  0.4957520000000  0.4586110000000 1.0
C      1  0.4460070000000  0.5386210000000  0.4505720000000 1.0
C      1  0.5539910000000  0.5386260000000  0.4505740000000 1.0
C      1  0.5676130000000  0.4794280000000  0.4870900000000 1.0
C      1  0.4323890000000  0.4794220000000  0.4870880000000 1.0
C      1  0.5139850000000  0.5777710000000  0.4988960000000 1.0
C      1  0.4860080000000  0.5777700000000  0.4988950000000 1.0
C      1  0.4755640000000  0.5563070000000  0.4805050000000 1.0
C      1  0.5244310000000  0.5563090000000  0.4805050000000 1.0
C      1  0.5288480000000  0.5404860000000  0.4363910000000 1.0
C      1  0.4711500000000  0.5404830000000  0.4363900000000 1.0
C      1  0.5249340000000  0.5007850000000  0.4835720000000 1.0
C      1  0.4750670000000  0.5007820000000  0.4835710000000 1.0
C      1  0.4858630000000  0.4944700000000  0.5285040000000 1.0
C      1  0.5141360000000  0.4944720000000  0.5285040000000 1.0
C      1  0.5138460000000  0.4365690000000  0.5350910000000 1.0
C      1  0.4861590000000  0.4365670000000  0.5350910000000 1.0
C      1  0.4873030000000  0.4085540000000  0.4820710000000 1.0
C      1  0.5127060000000  0.4085550000000  0.4820720000000 1.0
C      1  0.4851150000000  0.4829830000000  0.5875020000000 1.0
C      1  0.5148830000000  0.4829850000000  0.5875030000000 1.0
C      1  0.5144160000000  0.4691620000000  0.4221460000000 1.0
C      1  0.4855900000000  0.4691610000000  0.4221460000000 1.0
C      1  0.5709520000000  0.4745540000000  0.5146780000000 1.0
C      1  0.4290490000000  0.4745480000000  0.5146760000000 1.0
C      1  0.5565820000000  0.5059340000000  0.4867710000000 1.0
C      1  0.4434180000000  0.5059290000000  0.4867690000000 1.0
C      1  0.4381900000000  0.5131520000000  0.4576320000000 1.0
C      1  0.5618100000000  0.5131580000000  0.4576350000000 1.0
C      1  0.5688060000000  0.5608650000000  0.4957520000000 1.0
C      1  0.4311890000000  0.5608590000000  0.4957490000000 1.0
C      1  0.4697430000000  0.5841880000000  0.5203050000000 1.0
C      1  0.5302480000000  0.5841910000000  0.5203060000000 1.0
C      1  0.5661740000000  0.4971060000000  0.5326710000000 1.0
C      1  0.4338250000000  0.4971000000000  0.5326690000000 1.0
C      1  0.4690100000000  0.5011810000000  0.5736760000000 1.0
C      1  0.5309870000000  0.5011830000000  0.5736770000000 1.0
C      1  0.4855390000000  0.5247760000000  0.5683280000000 1.0
C      1  0.5144560000000  0.5247770000000  0.5683280000000 1.0
C      1  0.5553670000000  0.4538520000000  0.5252590000000 1.0
C      1  0.4446360000000  0.4538470000000  0.5252570000000 1.0
C      1  0.4750610000000  0.5217360000000  0.5222290000000 1.0
C      1  0.5249360000000  0.5217390000000  0.5222300000000 1.0
C      1  0.5273750000000  0.4448750000000  0.5593600000000 1.0
C      1  0.4726280000000  0.4448730000000  0.5593590000000 1.0
C      1  0.5290510000000  0.4473240000000  0.5113720000000 1.0
C      1  0.4709530000000  0.4473210000000  0.5113710000000 1.0
C      1  0.5146300000000  0.5270180000000  0.4943300000000 1.0
C      1  0.4853680000000  0.5270170000000  0.4943300000000 1.0
C      1  0.5356470000000  0.4473780000000  0.4618820000000 1.0
C      1  0.4643590000000  0.4473740000000  0.4618800000000 1.0
C      1  0.5290280000000  0.4322330000000  0.4853310000000 1.0
C      1  0.4709790000000  0.4322300000000  0.4853300000000 1.0
C      1  0.4455840000000  0.4895100000000  0.4436030000000 1.0
C      1  0.5544190000000  0.4895150000000  0.4436050000000 1.0
C      1  0.4725650000000  0.4926900000000  0.4309490000000 1.0
C      1  0.5274380000000  0.4926930000000  0.4309500000000 1.0
C      1  0.5553830000000  0.5193370000000  0.5167240000000 1.0
C      1  0.4446140000000  0.5193320000000  0.5167220000000 1.0
END
