TITL C-58266-7659-9 -0.0204431901923083 125000 -115.514698731568 0 0 18 (C3v) n - 1
REM
REM in /rds/project/t2_vol4/rds-t2-cs072/BORA/CARBON/from-Arr/AIRSS/Generating-Clusters/GAP-ML-2020/Higher-Symm/SD-CG/HFTN-CG
REM
REM
REM
REM
REM
REM ./C.cell (b20cbc046b6831c77cfcea5457e17084)
REM AIRSS Version 0.9.1 bugfix July 2018 build 013d7b7c2542+ Fri, 06 Jul 2018 19:26:36 +0100
REM compiler GCC version 9.3.0
REM options -cpp -mtune=generic -march=x86-64 -g -O0
REM seed -645863530 -1130751303 -2130956555 553952631 1617191431 1453976519 1584835894 2106949796 1904317688 2106843357 203731551 149823628 -528822277 2056349305 1138753887 -950074638 -1506763605 -672801563 2124487167 79222493 -2112942408 -1244778483 1939579683 -1718266803 368213236 -117075313 -810628231 -683036604 1535478028 237925842 1263612012 1022453456 -1987857452
REM
CELL 1.54180   50.00000   50.00000   50.00000   90.00000   90.00000   90.00000
LATT -1
SFAC C  
C      1  0.4573510000000  0.5105140000000  0.5324830000000 1.0
C      1  0.4933780000000  0.5099980000000  0.4467010000000 1.0
C      1  0.5496480000000  0.5093390000000  0.5207950000000 1.0
C      1  0.4595650000000  0.5362610000000  0.5310300000000 1.0
C      1  0.4940020000000  0.5357690000000  0.4490360000000 1.0
C      1  0.5477870000000  0.5351390000000  0.5198590000000 1.0
C      1  0.4932160000000  0.4843200000000  0.4480000000000 1.0
C      1  0.5481330000000  0.4836770000000  0.5203130000000 1.0
C      1  0.4580550000000  0.4848240000000  0.5317200000000 1.0
C      1  0.4661980000000  0.5606420000000  0.5262100000000 1.0
C      1  0.4953080000000  0.5602250000000  0.4568960000000 1.0
C      1  0.5407750000000  0.5596930000000  0.5167660000000 1.0
C      1  0.4682330000000  0.4626240000000  0.5237930000000 1.0
C      1  0.4945870000000  0.4622470000000  0.4610440000000 1.0
C      1  0.5357480000000  0.4617660000000  0.5152430000000 1.0
C      1  0.4857930000000  0.4478320000000  0.5103250000000 1.0
C      1  0.4972020000000  0.4476690000000  0.4831610000000 1.0
C      1  0.5150210000000  0.4474600000000  0.5066240000000 1.0
END
