TITL C-58264-7593-2 45.7291809324348 125000 -513.147898342576 0 0 73 (C1) n - 1
REM
REM in /rds/project/t2_vol4/rds-t2-cs072/BORA/CARBON/from-Arr/AIRSS/Generating-Clusters/GAP-ML-2020/Higher-Symm/SD-CG/HFTN-CG
REM
REM
REM
REM
REM
REM ./C.cell (b20cbc046b6831c77cfcea5457e17084)
REM AIRSS Version 0.9.1 bugfix July 2018 build 013d7b7c2542+ Fri, 06 Jul 2018 19:26:36 +0100
REM compiler GCC version 9.3.0
REM options -cpp -mtune=generic -march=x86-64 -g -O0
REM seed 809383221 2007601743 -462757503 -1691966498 1643744912 110469075 1606974760 -1415559979 1045297947 -779786818 -1372251652 -1095058061 -2110239900 1140607250 -403906827 2118770946 -392993802 -164929343 -855656889 -719315426 1790516431 720535838 -417806630 -1182551248 1922780683 -491863315 -1114903945 -1059664158 2040511198 -2126191349 134117670 371698073 1388855428
REM
CELL 1.54180   50.00000   50.00000   50.00000   90.00000   90.00000   90.00000
LATT -1
SFAC C  
C      1  0.4925200000000  0.4489210000000  0.5691070000000 1.0
C      1  0.5070060000000  0.5326510000000  0.4413990000000 1.0
C      1  0.5156070000000  0.4676500000000  0.5585850000000 1.0
C      1  0.4793160000000  0.5335690000000  0.4376660000000 1.0
C      1  0.5346860000000  0.4532470000000  0.5415210000000 1.0
C      1  0.4630760000000  0.5482750000000  0.4552210000000 1.0
C      1  0.5029740000000  0.5632780000000  0.4820740000000 1.0
C      1  0.4977300000000  0.4450390000000  0.5098690000000 1.0
C      1  0.4290830000000  0.5261320000000  0.5307520000000 1.0
C      1  0.5722990000000  0.4764740000000  0.4663710000000 1.0
C      1  0.4876210000000  0.4886190000000  0.4290520000000 1.0
C      1  0.5124670000000  0.5174300000000  0.5678890000000 1.0
C      1  0.5252450000000  0.4395170000000  0.5186030000000 1.0
C      1  0.4746630000000  0.5645740000000  0.4755700000000 1.0
C      1  0.4809960000000  0.4869260000000  0.4759390000000 1.0
C      1  0.5104350000000  0.5035110000000  0.5229570000000 1.0
C      1  0.4672450000000  0.5075750000000  0.4313350000000 1.0
C      1  0.5304520000000  0.4943590000000  0.5674550000000 1.0
C      1  0.5595730000000  0.4661380000000  0.5407760000000 1.0
C      1  0.4388260000000  0.5330660000000  0.4586130000000 1.0
C      1  0.5538110000000  0.5623440000000  0.4917570000000 1.0
C      1  0.4485040000000  0.4414960000000  0.5076520000000 1.0
C      1  0.5567130000000  0.4537700000000  0.4573100000000 1.0
C      1  0.4443390000000  0.5501870000000  0.5370540000000 1.0
C      1  0.5716190000000  0.5045660000000  0.5354880000000 1.0
C      1  0.4257650000000  0.4940990000000  0.4641330000000 1.0
C      1  0.5137060000000  0.5444690000000  0.5551810000000 1.0
C      1  0.4869460000000  0.4615720000000  0.4394020000000 1.0
C      1  0.4544950000000  0.4561040000000  0.5330270000000 1.0
C      1  0.5467300000000  0.5461640000000  0.4700980000000 1.0
C      1  0.5453300000000  0.4324140000000  0.5009390000000 1.0
C      1  0.4552280000000  0.5719200000000  0.4932080000000 1.0
C      1  0.4619220000000  0.5157780000000  0.5627550000000 1.0
C      1  0.5398010000000  0.4908960000000  0.4342490000000 1.0
C      1  0.5800390000000  0.4865890000000  0.4924900000000 1.0
C      1  0.4188010000000  0.5139840000000  0.5065680000000 1.0
C      1  0.5132930000000  0.5035850000000  0.4376940000000 1.0
C      1  0.4869120000000  0.5036200000000  0.5634290000000 1.0
C      1  0.5269220000000  0.4856960000000  0.4832530000000 1.0
C      1  0.4879310000000  0.5148250000000  0.5096570000000 1.0
C      1  0.5153600000000  0.4340450000000  0.4646390000000 1.0
C      1  0.4853320000000  0.5714350000000  0.5282990000000 1.0
C      1  0.5278670000000  0.5554460000000  0.5300000000000 1.0
C      1  0.4741740000000  0.4579670000000  0.4677700000000 1.0
C      1  0.5646980000000  0.5235120000000  0.4668060000000 1.0
C      1  0.4349440000000  0.4792750000000  0.5341960000000 1.0
C      1  0.5068230000000  0.4958430000000  0.4686040000000 1.0
C      1  0.4963760000000  0.4835110000000  0.5423840000000 1.0
C      1  0.4882250000000  0.5567960000000  0.5528170000000 1.0
C      1  0.5123910000000  0.4494600000000  0.4404710000000 1.0
C      1  0.5306280000000  0.4919970000000  0.5080560000000 1.0
C      1  0.4810910000000  0.4674830000000  0.5216260000000 1.0
C      1  0.4475070000000  0.4531050000000  0.4831260000000 1.0
C      1  0.5529780000000  0.5496300000000  0.5169500000000 1.0
C      1  0.4395230000000  0.5045600000000  0.5473290000000 1.0
C      1  0.5619390000000  0.4994620000000  0.4510540000000 1.0
C      1  0.4270040000000  0.4732810000000  0.4833820000000 1.0
C      1  0.5702860000000  0.5261680000000  0.5169380000000 1.0
C      1  0.5425680000000  0.4347770000000  0.4740690000000 1.0
C      1  0.4582210000000  0.5691380000000  0.5197570000000 1.0
C      1  0.5083440000000  0.5678960000000  0.5115500000000 1.0
C      1  0.4936080000000  0.4401970000000  0.4819420000000 1.0
C      1  0.4212590000000  0.4850770000000  0.5097400000000 1.0
C      1  0.5773090000000  0.5152890000000  0.4913320000000 1.0
C      1  0.5555710000000  0.4914970000000  0.5557280000000 1.0
C      1  0.4413440000000  0.5076780000000  0.4434770000000 1.0
C      1  0.5760790000000  0.4794610000000  0.5203280000000 1.0
C      1  0.4217310000000  0.5198820000000  0.4786000000000 1.0
C      1  0.4699930000000  0.4456440000000  0.5576780000000 1.0
C      1  0.5190660000000  0.5493290000000  0.4625670000000 1.0
C      1  0.4632560000000  0.5437980000000  0.5576450000000 1.0
C      1  0.5380000000000  0.4624680000000  0.4368560000000 1.0
C      1  0.4740450000000  0.4923920000000  0.5020880000000 1.0
END
