TITL C-58279-7827-6 -88.1740667856816 125000 -341.149750169067 0 0 52 (C1) n - 1
REM
REM in /rds/project/t2_vol4/rds-t2-cs072/BORA/CARBON/from-Arr/AIRSS/Generating-Clusters/GAP-ML-2020/Higher-Symm/SD-CG/HFTN-CG
REM
REM
REM
REM
REM
REM ./C.cell (b20cbc046b6831c77cfcea5457e17084)
REM AIRSS Version 0.9.1 bugfix July 2018 build 013d7b7c2542+ Fri, 06 Jul 2018 19:26:36 +0100
REM compiler GCC version 9.3.0
REM options -cpp -mtune=generic -march=x86-64 -g -O0
REM seed -2015165783 -1849314811 -890757757 808422815 -70795971 1413489455 -312770177 163650795 -1114746252 -453759905 -1222150952 2088447545 -2028281530 -63636915 -1915183365 -1280802351 728212971 1210905771 -1608362699 -24696165 -434747059 374072360 -1252052834 268383017 525618005 -766766237 1390070440 -60246288 -866633387 1302839936 1004411477 1911876346 1273682040
REM
CELL 1.54180   50.00000   50.00000   50.00000   90.00000   90.00000   90.00000
LATT -1
SFAC C  
C      1  0.5217520000000  0.4863280000000  0.5685060000000 1.0
C      1  0.5215340000000  0.5152520000000  0.5698850000000 1.0
C      1  0.5012870000000  0.5128330000000  0.4264120000000 1.0
C      1  0.5096180000000  0.4851530000000  0.4190140000000 1.0
C      1  0.5084790000000  0.5529070000000  0.5290240000000 1.0
C      1  0.5108140000000  0.4473910000000  0.5235340000000 1.0
C      1  0.4959600000000  0.5258910000000  0.5641980000000 1.0
C      1  0.4979600000000  0.4815160000000  0.5533360000000 1.0
C      1  0.5741490000000  0.5160720000000  0.5164300000000 1.0
C      1  0.5744270000000  0.4858000000000  0.5165470000000 1.0
C      1  0.5652480000000  0.5172910000000  0.4884220000000 1.0
C      1  0.5731450000000  0.4809900000000  0.4884420000000 1.0
C      1  0.4974720000000  0.4550830000000  0.4981320000000 1.0
C      1  0.4943240000000  0.5423500000000  0.5040220000000 1.0
C      1  0.5305180000000  0.4881330000000  0.5089730000000 1.0
C      1  0.5377940000000  0.5147190000000  0.5005810000000 1.0
C      1  0.5115720000000  0.5440320000000  0.4626610000000 1.0
C      1  0.5180620000000  0.4575050000000  0.4599220000000 1.0
C      1  0.5492640000000  0.5278060000000  0.5284430000000 1.0
C      1  0.5500380000000  0.4743610000000  0.5280330000000 1.0
C      1  0.4510470000000  0.4493870000000  0.4683620000000 1.0
C      1  0.4454830000000  0.5467260000000  0.4744280000000 1.0
C      1  0.5381030000000  0.4484230000000  0.5274160000000 1.0
C      1  0.5363750000000  0.5522280000000  0.5306440000000 1.0
C      1  0.5206480000000  0.4654680000000  0.4341600000000 1.0
C      1  0.5133720000000  0.5341190000000  0.4371450000000 1.0
C      1  0.5142180000000  0.5249170000000  0.4864080000000 1.0
C      1  0.5162870000000  0.4763360000000  0.4844530000000 1.0
C      1  0.4951920000000  0.5510780000000  0.5533900000000 1.0
C      1  0.4957540000000  0.4554680000000  0.5447240000000 1.0
C      1  0.4902200000000  0.5578370000000  0.4783300000000 1.0
C      1  0.4959310000000  0.4417970000000  0.4715000000000 1.0
C      1  0.4634810000000  0.5646650000000  0.4713920000000 1.0
C      1  0.4700650000000  0.4331830000000  0.4622630000000 1.0
C      1  0.5442960000000  0.5151300000000  0.5537480000000 1.0
C      1  0.5459000000000  0.4860150000000  0.5541920000000 1.0
C      1  0.4755040000000  0.5007840000000  0.4367880000000 1.0
C      1  0.4831090000000  0.4755440000000  0.4273270000000 1.0
C      1  0.4535330000000  0.5191900000000  0.4846540000000 1.0
C      1  0.4557660000000  0.4764220000000  0.4809180000000 1.0
C      1  0.4706180000000  0.5227220000000  0.5096680000000 1.0
C      1  0.4739000000000  0.4717030000000  0.5044000000000 1.0
C      1  0.5780880000000  0.5000210000000  0.4704360000000 1.0
C      1  0.4784020000000  0.5050000000000  0.5559410000000 1.0
C      1  0.4852440000000  0.4975600000000  0.5088450000000 1.0
C      1  0.4983820000000  0.5002410000000  0.4806340000000 1.0
C      1  0.4364450000000  0.4958750000000  0.4921210000000 1.0
C      1  0.4714640000000  0.5000920000000  0.4662050000000 1.0
C      1  0.5077690000000  0.4966100000000  0.5260390000000 1.0
C      1  0.4361770000000  0.4996310000000  0.5282130000000 1.0
C      1  0.4165010000000  0.4937540000000  0.5122200000000 1.0
C      1  0.4598520000000  0.5115950000000  0.5355250000000 1.0
END
