TITL C-58282-7697-1 -19.9710314270582 125000 -433.294064769203 0 0 65 (C1) n - 1
REM
REM in /rds/project/t2_vol4/rds-t2-cs072/BORA/CARBON/from-Arr/AIRSS/Generating-Clusters/GAP-ML-2020/Higher-Symm/SD-CG/HFTN-CG
REM
REM
REM
REM
REM
REM ./C.cell (b20cbc046b6831c77cfcea5457e17084)
REM AIRSS Version 0.9.1 bugfix July 2018 build 013d7b7c2542+ Fri, 06 Jul 2018 19:26:36 +0100
REM compiler GCC version 9.3.0
REM options -cpp -mtune=generic -march=x86-64 -g -O0
REM seed 2093639542 -1516537745 1589361940 -1745689710 2097423165 -906571655 -2127296241 -432791853 621492003 1239659990 542492420 -1890768506 -1240667128 -741689806 977509118 -846708335 -917331891 -1746636227 1696912291 -1508591436 -636619004 -2066529330 -1933989252 1326932293 160480015 -1028805067 405893916 2043607996 -733520758 -1396047375 1746634490 -1806013860 1802756797
REM
CELL 1.54180   50.00000   50.00000   50.00000   90.00000   90.00000   90.00000
LATT -1
SFAC C  
C      1  0.4450080000000  0.4927310000000  0.5341870000000 1.0
C      1  0.4553520000000  0.5005250000000  0.4601490000000 1.0
C      1  0.5396560000000  0.5028590000000  0.4660390000000 1.0
C      1  0.5435010000000  0.4997090000000  0.5376010000000 1.0
C      1  0.4596240000000  0.5543230000000  0.5147670000000 1.0
C      1  0.4591800000000  0.4396650000000  0.4862940000000 1.0
C      1  0.5418920000000  0.5582880000000  0.4862850000000 1.0
C      1  0.5350890000000  0.4433290000000  0.5164920000000 1.0
C      1  0.4775880000000  0.5674560000000  0.4534560000000 1.0
C      1  0.4773270000000  0.4298770000000  0.5397830000000 1.0
C      1  0.5284670000000  0.5669070000000  0.5360410000000 1.0
C      1  0.5268270000000  0.4353400000000  0.4628250000000 1.0
C      1  0.5212900000000  0.5609020000000  0.5636490000000 1.0
C      1  0.5134040000000  0.4456470000000  0.4388090000000 1.0
C      1  0.4908270000000  0.5558820000000  0.4308010000000 1.0
C      1  0.4946460000000  0.4441300000000  0.5571990000000 1.0
C      1  0.4484540000000  0.4547190000000  0.5079180000000 1.0
C      1  0.4440150000000  0.5306600000000  0.5058410000000 1.0
C      1  0.5439660000000  0.4666330000000  0.4973910000000 1.0
C      1  0.5471710000000  0.5338230000000  0.5040370000000 1.0
C      1  0.4558380000000  0.5497400000000  0.4576520000000 1.0
C      1  0.4551380000000  0.4472450000000  0.5344390000000 1.0
C      1  0.5491470000000  0.5468630000000  0.5299260000000 1.0
C      1  0.5462940000000  0.4562900000000  0.4701890000000 1.0
C      1  0.4810080000000  0.4778900000000  0.4614480000000 1.0
C      1  0.4884920000000  0.5310100000000  0.5446790000000 1.0
C      1  0.5339070000000  0.4761130000000  0.5543070000000 1.0
C      1  0.5225190000000  0.5274340000000  0.4540100000000 1.0
C      1  0.5248030000000  0.4708740000000  0.4323210000000 1.0
C      1  0.5329440000000  0.5357230000000  0.5709510000000 1.0
C      1  0.4813810000000  0.4703070000000  0.5644350000000 1.0
C      1  0.4802230000000  0.5313600000000  0.4262370000000 1.0
C      1  0.5474900000000  0.4564790000000  0.5383730000000 1.0
C      1  0.5463840000000  0.5440980000000  0.4625100000000 1.0
C      1  0.4581370000000  0.4569250000000  0.4636060000000 1.0
C      1  0.4614650000000  0.5403800000000  0.5409610000000 1.0
C      1  0.5187770000000  0.5731260000000  0.4887780000000 1.0
C      1  0.5183540000000  0.4220150000000  0.5108180000000 1.0
C      1  0.4810980000000  0.5685480000000  0.5052760000000 1.0
C      1  0.4817610000000  0.4223780000000  0.4909770000000 1.0
C      1  0.5581460000000  0.5230440000000  0.4775140000000 1.0
C      1  0.5584360000000  0.4778180000000  0.5213200000000 1.0
C      1  0.4427450000000  0.5206160000000  0.5335050000000 1.0
C      1  0.4407250000000  0.4758840000000  0.4544460000000 1.0
C      1  0.5450310000000  0.4784690000000  0.4508760000000 1.0
C      1  0.5502750000000  0.5257720000000  0.5504950000000 1.0
C      1  0.4573710000000  0.4716790000000  0.5496800000000 1.0
C      1  0.4582010000000  0.5249740000000  0.4443830000000 1.0
C      1  0.4963490000000  0.4841430000000  0.4886830000000 1.0
C      1  0.4996170000000  0.5201500000000  0.5198850000000 1.0
C      1  0.4939410000000  0.4664440000000  0.5111270000000 1.0
C      1  0.4982180000000  0.5318260000000  0.4735320000000 1.0
C      1  0.4928790000000  0.5623020000000  0.4778810000000 1.0
C      1  0.4900660000000  0.4181120000000  0.5184580000000 1.0
C      1  0.5085070000000  0.5746140000000  0.5159150000000 1.0
C      1  0.5106060000000  0.4229920000000  0.4826030000000 1.0
C      1  0.4968170000000  0.4677470000000  0.4392390000000 1.0
C      1  0.5038900000000  0.5396510000000  0.5662480000000 1.0
C      1  0.5090960000000  0.4663600000000  0.5648580000000 1.0
C      1  0.5087390000000  0.5351300000000  0.4285150000000 1.0
C      1  0.5263380000000  0.4909100000000  0.4901580000000 1.0
C      1  0.5272570000000  0.5114660000000  0.5141010000000 1.0
C      1  0.4462890000000  0.4838670000000  0.5074010000000 1.0
C      1  0.4553020000000  0.5074680000000  0.4903580000000 1.0
C      1  0.4863670000000  0.5127140000000  0.4945720000000 1.0
END
