TITL C-62924-3133-5 -24.9311523229859 125000 -432.352385429638 0 0 64 (C1) n - 1
REM
REM in /rds/project/t2_vol4/rds-t2-cs072/BORA/CARBON/from-Arr/AIRSS/Generating-Clusters/GAP-ML-2020/Higher-Symm/SD-CG/HFTN-CG
REM
REM
REM
REM
REM
REM ./C.cell (b20cbc046b6831c77cfcea5457e17084)
REM AIRSS Version 0.9.1 bugfix July 2018 build 013d7b7c2542+ Fri, 06 Jul 2018 19:26:36 +0100
REM compiler GCC version 9.3.0
REM options -cpp -mtune=generic -march=x86-64 -g -O0
REM seed -2098404380 1376291339 734382446 -2089433859 -1002759141 -539715238 1564144990 -309760707 -1733003355 -449528051 -1691602112 1760609356 296089528 751196334 913768529 -433460027 -1273183491 -1106930980 106895098 -991802959 -39439483 118498661 -162601468 761927582 -768224104 1765852982 261221403 84787363 -1814813616 1489644317 573155898 -562499143 1159279287
REM
CELL 1.54180   50.00000   50.00000   50.00000   90.00000   90.00000   90.00000
LATT -1
SFAC C  
C      1  0.4308260000000  0.5190770000000  0.4655000000000 1.0
C      1  0.4871450000000  0.5196540000000  0.4261090000000 1.0
C      1  0.5447370000000  0.5211350000000  0.4414020000000 1.0
C      1  0.5784560000000  0.5193200000000  0.5043190000000 1.0
C      1  0.5444510000000  0.5215760000000  0.5568370000000 1.0
C      1  0.4768850000000  0.5207110000000  0.5723090000000 1.0
C      1  0.4289030000000  0.5180250000000  0.5284060000000 1.0
C      1  0.4867660000000  0.4787800000000  0.4368550000000 1.0
C      1  0.5400750000000  0.4802080000000  0.4518980000000 1.0
C      1  0.5615510000000  0.4802030000000  0.5014970000000 1.0
C      1  0.5356770000000  0.4809290000000  0.5498020000000 1.0
C      1  0.4822240000000  0.4799690000000  0.5608670000000 1.0
C      1  0.4395710000000  0.4773310000000  0.5251670000000 1.0
C      1  0.4423700000000  0.4783110000000  0.4693100000000 1.0
C      1  0.5302300000000  0.4902620000000  0.5008670000000 1.0
C      1  0.5169400000000  0.4886540000000  0.5248430000000 1.0
C      1  0.4897930000000  0.4884570000000  0.5302110000000 1.0
C      1  0.4688970000000  0.4873560000000  0.5122160000000 1.0
C      1  0.4700480000000  0.4883040000000  0.4847590000000 1.0
C      1  0.4925650000000  0.4881560000000  0.4686150000000 1.0
C      1  0.5188940000000  0.4892420000000  0.4756350000000 1.0
C      1  0.4429120000000  0.4987920000000  0.4470240000000 1.0
C      1  0.5053420000000  0.4970140000000  0.4222140000000 1.0
C      1  0.5611800000000  0.5020940000000  0.4575020000000 1.0
C      1  0.5733930000000  0.4973320000000  0.5230040000000 1.0
C      1  0.5252080000000  0.5023100000000  0.5689660000000 1.0
C      1  0.4584990000000  0.4980660000000  0.5657180000000 1.0
C      1  0.4213470000000  0.4957190000000  0.5099530000000 1.0
C      1  0.5593760000000  0.4991140000000  0.5458600000000 1.0
C      1  0.4989050000000  0.5006490000000  0.5755470000000 1.0
C      1  0.4382580000000  0.4971270000000  0.5478040000000 1.0
C      1  0.4225180000000  0.4962880000000  0.4830380000000 1.0
C      1  0.4653080000000  0.5001710000000  0.4317870000000 1.0
C      1  0.5313980000000  0.4976890000000  0.4293720000000 1.0
C      1  0.5737040000000  0.5005800000000  0.4817510000000 1.0
C      1  0.5101280000000  0.4410810000000  0.5589420000000 1.0
C      1  0.4603200000000  0.4407450000000  0.5453330000000 1.0
C      1  0.4395920000000  0.4402140000000  0.4972670000000 1.0
C      1  0.4638400000000  0.4392810000000  0.4516590000000 1.0
C      1  0.5146890000000  0.4419980000000  0.4414560000000 1.0
C      1  0.5528310000000  0.4399650000000  0.4762020000000 1.0
C      1  0.5517090000000  0.4425950000000  0.5279690000000 1.0
C      1  0.4866400000000  0.5538320000000  0.5338190000000 1.0
C      1  0.4649120000000  0.5525770000000  0.5130930000000 1.0
C      1  0.4662830000000  0.5534170000000  0.4829360000000 1.0
C      1  0.4907740000000  0.5544890000000  0.4671840000000 1.0
C      1  0.5192630000000  0.5556000000000  0.4746730000000 1.0
C      1  0.5541730000000  0.5480550000000  0.5148330000000 1.0
C      1  0.5147920000000  0.5546210000000  0.5265250000000 1.0
C      1  0.4978760000000  0.5408910000000  0.4418110000000 1.0
C      1  0.5266040000000  0.5416340000000  0.4493470000000 1.0
C      1  0.5811460000000  0.5463230000000  0.5090960000000 1.0
C      1  0.5388150000000  0.5430640000000  0.5393230000000 1.0
C      1  0.4801340000000  0.5442950000000  0.5599680000000 1.0
C      1  0.4413610000000  0.5400960000000  0.5209030000000 1.0
C      1  0.4428980000000  0.5420420000000  0.4715930000000 1.0
C      1  0.4874530000000  0.4493040000000  0.4401630000000 1.0
C      1  0.5382580000000  0.4502390000000  0.4543400000000 1.0
C      1  0.5583820000000  0.4505170000000  0.5017510000000 1.0
C      1  0.5343330000000  0.4509230000000  0.5485620000000 1.0
C      1  0.4834360000000  0.4501160000000  0.5581850000000 1.0
C      1  0.4436850000000  0.4481040000000  0.5239250000000 1.0
C      1  0.4459550000000  0.4486430000000  0.4712620000000 1.0
C      1  0.5293740000000  0.5573520000000  0.5012650000000 1.0
END
