TITL C-62903-3126-2 -11.0948448549005 125000 -694.754322647271 0 0 100 (C1) n - 1
REM
REM in /rds/project/t2_vol4/rds-t2-cs072/BORA/CARBON/from-Arr/AIRSS/Generating-Clusters/GAP-ML-2020/Higher-Symm/SD-CG/HFTN-CG
REM
REM
REM
REM
REM
REM ./C.cell (b20cbc046b6831c77cfcea5457e17084)
REM AIRSS Version 0.9.1 bugfix July 2018 build 013d7b7c2542+ Fri, 06 Jul 2018 19:26:36 +0100
REM compiler GCC version 9.3.0
REM options -cpp -mtune=generic -march=x86-64 -g -O0
REM seed 566452206 -1789944418 465340729 150506047 1798471424 611175293 670641067 -182091808 -928088408 471393323 -1579553424 -1571576937 349080166 361240207 -1612887505 173300837 227343104 725265746 654744721 -625132088 910844399 -1041839646 -1598337887 -984016251 155261544 -805695276 -1178487904 -1870411663 1883410642 -1323276386 1731138409 -638640109 1266430544
REM
CELL 1.54180   50.00000   50.00000   50.00000   90.00000   90.00000   90.00000
LATT -1
SFAC C  
C      1  0.4724530000000  0.5604590000000  0.5468100000000 1.0
C      1  0.4722080000000  0.5607140000000  0.4529390000000 1.0
C      1  0.5531260000000  0.5603960000000  0.4994980000000 1.0
C      1  0.5270200000000  0.4768980000000  0.4926470000000 1.0
C      1  0.4941650000000  0.4787340000000  0.5267680000000 1.0
C      1  0.4806000000000  0.4771320000000  0.4814760000000 1.0
C      1  0.4648600000000  0.5017740000000  0.4147700000000 1.0
C      1  0.5917890000000  0.5021200000000  0.5116920000000 1.0
C      1  0.4428320000000  0.5020050000000  0.5726000000000 1.0
C      1  0.5088640000000  0.5403230000000  0.4222790000000 1.0
C      1  0.5625440000000  0.5395510000000  0.5470340000000 1.0
C      1  0.4276400000000  0.5403930000000  0.5306420000000 1.0
C      1  0.5135830000000  0.5127880000000  0.4132860000000 1.0
C      1  0.5697340000000  0.5122760000000  0.5551830000000 1.0
C      1  0.4177690000000  0.5127630000000  0.5310310000000 1.0
C      1  0.4107900000000  0.5000090000000  0.5081160000000 1.0
C      1  0.5371430000000  0.5000530000000  0.4184250000000 1.0
C      1  0.5544930000000  0.4990120000000  0.5733390000000 1.0
C      1  0.5218190000000  0.5562620000000  0.5335750000000 1.0
C      1  0.4525310000000  0.5699680000000  0.5062500000000 1.0
C      1  0.5174090000000  0.5701130000000  0.4558930000000 1.0
C      1  0.4885800000000  0.4090770000000  0.4891960000000 1.0
C      1  0.5157090000000  0.4090080000000  0.4961880000000 1.0
C      1  0.4961980000000  0.4093060000000  0.5159900000000 1.0
C      1  0.4870290000000  0.4488670000000  0.4892180000000 1.0
C      1  0.5166460000000  0.4486480000000  0.4944320000000 1.0
C      1  0.4973310000000  0.4493610000000  0.5173210000000 1.0
C      1  0.5142330000000  0.4579570000000  0.4446650000000 1.0
C      1  0.5416280000000  0.4583810000000  0.5402860000000 1.0
C      1  0.4451290000000  0.4583900000000  0.5156910000000 1.0
C      1  0.5290850000000  0.5527840000000  0.4381810000000 1.0
C      1  0.5376720000000  0.5494760000000  0.5564970000000 1.0
C      1  0.4312920000000  0.5527090000000  0.5050960000000 1.0
C      1  0.5142650000000  0.5103680000000  0.5848220000000 1.0
C      1  0.4196080000000  0.5108280000000  0.4713820000000 1.0
C      1  0.5646780000000  0.5110720000000  0.4443940000000 1.0
C      1  0.5237140000000  0.4590680000000  0.5651540000000 1.0
C      1  0.4324820000000  0.4584110000000  0.4878530000000 1.0
C      1  0.5447950000000  0.4582660000000  0.4473360000000 1.0
C      1  0.4282460000000  0.5395040000000  0.4792710000000 1.0
C      1  0.5532500000000  0.5396780000000  0.4481710000000 1.0
C      1  0.5174530000000  0.5385720000000  0.5739600000000 1.0
C      1  0.4613140000000  0.5296720000000  0.4191850000000 1.0
C      1  0.5887800000000  0.5300900000000  0.5068110000000 1.0
C      1  0.4483870000000  0.5299860000000  0.5734610000000 1.0
C      1  0.5884050000000  0.4871630000000  0.4863950000000 1.0
C      1  0.4662970000000  0.4869500000000  0.5828480000000 1.0
C      1  0.4445220000000  0.4868150000000  0.4303100000000 1.0
C      1  0.5309760000000  0.4865740000000  0.5773420000000 1.0
C      1  0.4184400000000  0.4852380000000  0.4872490000000 1.0
C      1  0.5516880000000  0.4853890000000  0.4353760000000 1.0
C      1  0.4900150000000  0.5510200000000  0.5703040000000 1.0
C      1  0.4440290000000  0.5509880000000  0.4568220000000 1.0
C      1  0.5644920000000  0.5510630000000  0.4730970000000 1.0
C      1  0.5711180000000  0.4678860000000  0.5376620000000 1.0
C      1  0.4320040000000  0.4678620000000  0.5418690000000 1.0
C      1  0.4976170000000  0.4679080000000  0.4203490000000 1.0
C      1  0.4714830000000  0.4593140000000  0.5734230000000 1.0
C      1  0.4504850000000  0.4591550000000  0.4390860000000 1.0
C      1  0.5781800000000  0.4592760000000  0.4873490000000 1.0
C      1  0.4858150000000  0.5076580000000  0.5903830000000 1.0
C      1  0.4284010000000  0.5076930000000  0.4437480000000 1.0
C      1  0.5842850000000  0.5080570000000  0.4658060000000 1.0
C      1  0.4696510000000  0.4803930000000  0.5091970000000 1.0
C      1  0.5084300000000  0.4790270000000  0.4694670000000 1.0
C      1  0.5235680000000  0.4801280000000  0.5228020000000 1.0
C      1  0.4461930000000  0.5475730000000  0.5509400000000 1.0
C      1  0.4819810000000  0.5473180000000  0.4285760000000 1.0
C      1  0.5699010000000  0.5470360000000  0.5202740000000 1.0
C      1  0.4266700000000  0.4937010000000  0.5507870000000 1.0
C      1  0.4919730000000  0.4936390000000  0.4112240000000 1.0
C      1  0.5820570000000  0.4935290000000  0.5369770000000 1.0
C      1  0.5267290000000  0.5690280000000  0.5088480000000 1.0
C      1  0.4764820000000  0.5715840000000  0.5189150000000 1.0
C      1  0.4938230000000  0.5721510000000  0.4697910000000 1.0
C      1  0.4916510000000  0.4365090000000  0.4459830000000 1.0
C      1  0.5515280000000  0.4367900000000  0.5198850000000 1.0
C      1  0.4574290000000  0.4368080000000  0.5345660000000 1.0
C      1  0.4389430000000  0.5330510000000  0.4356840000000 1.0
C      1  0.5855910000000  0.5334260000000  0.4791940000000 1.0
C      1  0.4737740000000  0.5331660000000  0.5847510000000 1.0
C      1  0.4779360000000  0.5062130000000  0.4710530000000 1.0
C      1  0.5369230000000  0.5061030000000  0.4940640000000 1.0
C      1  0.4885540000000  0.5102610000000  0.5316010000000 1.0
C      1  0.5112450000000  0.5259280000000  0.5277200000000 1.0
C      1  0.4693580000000  0.5230930000000  0.4905240000000 1.0
C      1  0.5224760000000  0.5226720000000  0.4776280000000 1.0
C      1  0.4467900000000  0.4466200000000  0.4655470000000 1.0
C      1  0.5571480000000  0.4466230000000  0.4709480000000 1.0
C      1  0.4968990000000  0.4475280000000  0.5637350000000 1.0
C      1  0.5753380000000  0.4505140000000  0.5145580000000 1.0
C      1  0.4493110000000  0.4503600000000  0.5576610000000 1.0
C      1  0.4754360000000  0.4504700000000  0.4279120000000 1.0
C      1  0.4868740000000  0.4314250000000  0.5363750000000 1.0
C      1  0.4756790000000  0.4306840000000  0.4705860000000 1.0
C      1  0.5383370000000  0.4305360000000  0.4938650000000 1.0
C      1  0.4669580000000  0.5105020000000  0.5143420000000 1.0
C      1  0.5043990000000  0.5087970000000  0.4630740000000 1.0
C      1  0.5323800000000  0.5090530000000  0.5215160000000 1.0
C      1  0.4992540000000  0.5738790000000  0.4990920000000 1.0
END
