TITL C-62919-3108-5 0.147409738504449 125000 -571.911323523635 0 0 84 (C1) n - 1
REM
REM in /rds/project/t2_vol4/rds-t2-cs072/BORA/CARBON/from-Arr/AIRSS/Generating-Clusters/GAP-ML-2020/Higher-Symm/SD-CG/HFTN-CG
REM
REM
REM
REM
REM
REM ./C.cell (b20cbc046b6831c77cfcea5457e17084)
REM AIRSS Version 0.9.1 bugfix July 2018 build 013d7b7c2542+ Fri, 06 Jul 2018 19:26:36 +0100
REM compiler GCC version 9.3.0
REM options -cpp -mtune=generic -march=x86-64 -g -O0
REM seed 499368342 -1036974267 562920241 1129164916 -1012578856 -1866200943 -1464761296 -453704334 -581961847 1925683828 1396145827 1257034376 83142076 -489466257 -1236050899 1068934967 1862867355 614575669 1462262268 -305931998 404114839 -1148778054 -318611970 1046586439 1846333822 -520899050 11138806 1045890868 -1606585634 -1096819738 -1582913832 2016072941 -1882011585
REM
CELL 1.54180   50.00000   50.00000   50.00000   90.00000   90.00000   90.00000
LATT -1
SFAC C  
C      1  0.4772980000000  0.5536240000000  0.5536960000000 1.0
C      1  0.5552750000000  0.5539660000000  0.4942270000000 1.0
C      1  0.4668250000000  0.5544410000000  0.4546070000000 1.0
C      1  0.4946090000000  0.5152390000000  0.5845180000000 1.0
C      1  0.5739020000000  0.5160860000000  0.4633000000000 1.0
C      1  0.4308490000000  0.5170030000000  0.4532030000000 1.0
C      1  0.5724810000000  0.4644400000000  0.4815000000000 1.0
C      1  0.4483760000000  0.4654010000000  0.4457070000000 1.0
C      1  0.4794640000000  0.4642330000000  0.5716300000000 1.0
C      1  0.4950870000000  0.5572170000000  0.4486410000000 1.0
C      1  0.4588950000000  0.5565750000000  0.5307100000000 1.0
C      1  0.5454360000000  0.5561450000000  0.5219290000000 1.0
C      1  0.5547500000000  0.4699230000000  0.4575410000000 1.0
C      1  0.4378570000000  0.4712250000000  0.4731590000000 1.0
C      1  0.5088380000000  0.4690490000000  0.5686470000000 1.0
C      1  0.4517110000000  0.5331280000000  0.4407970000000 1.0
C      1  0.4738030000000  0.5310510000000  0.5716130000000 1.0
C      1  0.5726700000000  0.5314890000000  0.4879410000000 1.0
C      1  0.5576710000000  0.5250810000000  0.4414730000000 1.0
C      1  0.4211320000000  0.5249500000000  0.4788680000000 1.0
C      1  0.5216550000000  0.5237060000000  0.5810630000000 1.0
C      1  0.4334950000000  0.5044310000000  0.5468100000000 1.0
C      1  0.5720160000000  0.5042440000000  0.5338300000000 1.0
C      1  0.4923210000000  0.5057950000000  0.4172440000000 1.0
C      1  0.4914380000000  0.4865480000000  0.5830710000000 1.0
C      1  0.5760610000000  0.4872120000000  0.4657830000000 1.0
C      1  0.4332810000000  0.4883150000000  0.4505840000000 1.0
C      1  0.5219130000000  0.4305980000000  0.4861470000000 1.0
C      1  0.4773780000000  0.4316050000000  0.4875570000000 1.0
C      1  0.5012090000000  0.4311410000000  0.5254080000000 1.0
C      1  0.5593870000000  0.5177940000000  0.5552160000000 1.0
C      1  0.5172500000000  0.5198870000000  0.4189430000000 1.0
C      1  0.4226680000000  0.5186590000000  0.5247530000000 1.0
C      1  0.4716030000000  0.5147800000000  0.4334310000000 1.0
C      1  0.4580130000000  0.5128860000000  0.5566960000000 1.0
C      1  0.5649360000000  0.5137470000000  0.5086240000000 1.0
C      1  0.4578820000000  0.5580440000000  0.4814300000000 1.0
C      1  0.5047990000000  0.5585550000000  0.5495470000000 1.0
C      1  0.5380770000000  0.5580760000000  0.4722260000000 1.0
C      1  0.5264670000000  0.4243880000000  0.5141820000000 1.0
C      1  0.4992760000000  0.4259830000000  0.4694940000000 1.0
C      1  0.4746010000000  0.4256110000000  0.5151500000000 1.0
C      1  0.5668330000000  0.4579520000000  0.5088600000000 1.0
C      1  0.4745590000000  0.4590880000000  0.4364030000000 1.0
C      1  0.4585340000000  0.4579730000000  0.5532890000000 1.0
C      1  0.5476560000000  0.4421610000000  0.5238920000000 1.0
C      1  0.4969810000000  0.4437390000000  0.4463830000000 1.0
C      1  0.4555640000000  0.4428850000000  0.5287520000000 1.0
C      1  0.4328150000000  0.5480150000000  0.4909340000000 1.0
C      1  0.5257910000000  0.5470190000000  0.5653170000000 1.0
C      1  0.5420840000000  0.5484480000000  0.4453880000000 1.0
C      1  0.4613310000000  0.4774350000000  0.4938360000000 1.0
C      1  0.5155000000000  0.4761450000000  0.5380230000000 1.0
C      1  0.5256200000000  0.4757210000000  0.4682180000000 1.0
C      1  0.4340330000000  0.5447960000000  0.5196800000000 1.0
C      1  0.5492550000000  0.5439680000000  0.5486270000000 1.0
C      1  0.5166450000000  0.5464390000000  0.4311070000000 1.0
C      1  0.5430930000000  0.4777290000000  0.4315770000000 1.0
C      1  0.4203720000000  0.4769930000000  0.4959130000000 1.0
C      1  0.5371040000000  0.4755860000000  0.5718480000000 1.0
C      1  0.5099030000000  0.5521790000000  0.4734330000000 1.0
C      1  0.4733430000000  0.5535310000000  0.5059690000000 1.0
C      1  0.5169720000000  0.5537400000000  0.5233540000000 1.0
C      1  0.5065980000000  0.5204970000000  0.4679410000000 1.0
C      1  0.4815540000000  0.5215410000000  0.5099720000000 1.0
C      1  0.5132700000000  0.5229330000000  0.5160780000000 1.0
C      1  0.5448740000000  0.4645730000000  0.5445200000000 1.0
C      1  0.5157530000000  0.4664460000000  0.4387380000000 1.0
C      1  0.4395720000000  0.4656290000000  0.5163790000000 1.0
C      1  0.4817070000000  0.5087500000000  0.4646800000000 1.0
C      1  0.4791390000000  0.5065500000000  0.5357610000000 1.0
C      1  0.5348410000000  0.5097980000000  0.5016020000000 1.0
C      1  0.4382580000000  0.4769120000000  0.5432530000000 1.0
C      1  0.5682970000000  0.4764380000000  0.5316710000000 1.0
C      1  0.4931670000000  0.4782350000000  0.4239930000000 1.0
C      1  0.5416790000000  0.5059630000000  0.4260870000000 1.0
C      1  0.4164000000000  0.5053860000000  0.5000080000000 1.0
C      1  0.5421590000000  0.5040770000000  0.5736580000000 1.0
C      1  0.5155250000000  0.4591450000000  0.4896360000000 1.0
C      1  0.4842310000000  0.4600520000000  0.4927870000000 1.0
C      1  0.5026410000000  0.4598600000000  0.5177160000000 1.0
C      1  0.4690070000000  0.5052750000000  0.4896470000000 1.0
C      1  0.5082550000000  0.5044860000000  0.5383320000000 1.0
C      1  0.5264360000000  0.5036410000000  0.4758400000000 1.0
END
