TITL C-62907-3070-3 272.685547846132 125000 -421.991698298219 0 0 63 (C1) n - 1
REM
REM in /rds/project/t2_vol4/rds-t2-cs072/BORA/CARBON/from-Arr/AIRSS/Generating-Clusters/GAP-ML-2020/Higher-Symm/SD-CG/HFTN-CG
REM
REM
REM
REM
REM
REM ./C.cell (b20cbc046b6831c77cfcea5457e17084)
REM AIRSS Version 0.9.1 bugfix July 2018 build 013d7b7c2542+ Fri, 06 Jul 2018 19:26:36 +0100
REM compiler GCC version 9.3.0
REM options -cpp -mtune=generic -march=x86-64 -g -O0
REM seed -2008726815 -432468695 -709666010 -1271341780 -1551313274 742907300 1404036269 -572257351 1446338115 -860901317 -1900661967 1479738838 1616607227 779601540 -1451862446 350863867 1604659134 540889077 1589992658 -36749312 -1161272589 -702595220 1227652585 -2013332256 1695636312 820171587 208453746 2130813935 -1586000167 -89769298 -148262122 2094429123 1630648336
REM
CELL 1.54180   50.00000   50.00000   50.00000   90.00000   90.00000   90.00000
LATT -1
SFAC C  
C      1  0.4807020000000  0.5165170000000  0.4727580000000 1.0
C      1  0.4804880000000  0.5202110000000  0.5035530000000 1.0
C      1  0.4870870000000  0.4917580000000  0.5391270000000 1.0
C      1  0.4845300000000  0.4710970000000  0.4957830000000 1.0
C      1  0.4832470000000  0.4839720000000  0.4675620000000 1.0
C      1  0.4963630000000  0.5365210000000  0.5646730000000 1.0
C      1  0.5064510000000  0.4465060000000  0.5570550000000 1.0
C      1  0.5069420000000  0.4291950000000  0.4656730000000 1.0
C      1  0.5028940000000  0.5107970000000  0.4211080000000 1.0
C      1  0.4952820000000  0.5736070000000  0.4889780000000 1.0
C      1  0.4913790000000  0.5107180000000  0.5780000000000 1.0
C      1  0.4943820000000  0.4406510000000  0.5319140000000 1.0
C      1  0.5019400000000  0.4468120000000  0.4436260000000 1.0
C      1  0.4959650000000  0.5363350000000  0.4324400000000 1.0
C      1  0.4926150000000  0.5699340000000  0.5175130000000 1.0
C      1  0.5768820000000  0.5175000000000  0.4783570000000 1.0
C      1  0.5757840000000  0.5284140000000  0.5046530000000 1.0
C      1  0.5776130000000  0.5066610000000  0.5230530000000 1.0
C      1  0.5792170000000  0.4821180000000  0.5083350000000 1.0
C      1  0.5791380000000  0.4888270000000  0.4804900000000 1.0
C      1  0.5136770000000  0.5563720000000  0.4750660000000 1.0
C      1  0.5140840000000  0.5375290000000  0.5422310000000 1.0
C      1  0.5258030000000  0.4691040000000  0.5577020000000 1.0
C      1  0.5229650000000  0.4398410000000  0.4874780000000 1.0
C      1  0.5210680000000  0.4939710000000  0.4360190000000 1.0
C      1  0.4672440000000  0.5311880000000  0.4309400000000 1.0
C      1  0.4643800000000  0.5680030000000  0.5178110000000 1.0
C      1  0.4634860000000  0.5128410000000  0.5700490000000 1.0
C      1  0.4656080000000  0.4473170000000  0.5333470000000 1.0
C      1  0.4730700000000  0.4439250000000  0.4452830000000 1.0
C      1  0.4653800000000  0.5698270000000  0.4891270000000 1.0
C      1  0.4675230000000  0.5395300000000  0.5585120000000 1.0
C      1  0.4857730000000  0.4617640000000  0.5710940000000 1.0
C      1  0.4769040000000  0.4281050000000  0.4682970000000 1.0
C      1  0.4737060000000  0.5060580000000  0.4205190000000 1.0
C      1  0.4576120000000  0.5325510000000  0.4582020000000 1.0
C      1  0.4520140000000  0.5228410000000  0.5167860000000 1.0
C      1  0.4561730000000  0.4918620000000  0.5496420000000 1.0
C      1  0.4601670000000  0.4532150000000  0.5056390000000 1.0
C      1  0.4630260000000  0.4709230000000  0.4478520000000 1.0
C      1  0.4546980000000  0.5465540000000  0.5334640000000 1.0
C      1  0.4612840000000  0.4632360000000  0.5563800000000 1.0
C      1  0.4594390000000  0.4320310000000  0.4882860000000 1.0
C      1  0.4575210000000  0.4850830000000  0.4252770000000 1.0
C      1  0.4517790000000  0.5555780000000  0.4711040000000 1.0
C      1  0.4987720000000  0.5414840000000  0.5190530000000 1.0
C      1  0.5017820000000  0.4863890000000  0.5655540000000 1.0
C      1  0.5043410000000  0.4486880000000  0.5065430000000 1.0
C      1  0.5062600000000  0.4746600000000  0.4498510000000 1.0
C      1  0.5015870000000  0.5358230000000  0.4603460000000 1.0
C      1  0.5411470000000  0.5325290000000  0.5357380000000 1.0
C      1  0.5470880000000  0.4772670000000  0.5417930000000 1.0
C      1  0.5467780000000  0.4555970000000  0.4882980000000 1.0
C      1  0.5445820000000  0.4991720000000  0.4510850000000 1.0
C      1  0.5395200000000  0.5463210000000  0.4817520000000 1.0
C      1  0.5538290000000  0.5253120000000  0.4633360000000 1.0
C      1  0.5517750000000  0.5434050000000  0.5091070000000 1.0
C      1  0.5559580000000  0.5064770000000  0.5411870000000 1.0
C      1  0.5581380000000  0.4645050000000  0.5153500000000 1.0
C      1  0.5575590000000  0.4759670000000  0.4673100000000 1.0
C      1  0.4399700000000  0.5007080000000  0.5276670000000 1.0
C      1  0.4946360000000  0.4947270000000  0.5114110000000 1.0
C      1  0.5272820000000  0.4997420000000  0.5008130000000 1.0
END
