TITL C-62910-3147-9 -0.165338445370025 125000 -669.316119474038 0 0 92 (Ci) n - 1
REM
REM in /rds/project/t2_vol4/rds-t2-cs072/BORA/CARBON/from-Arr/AIRSS/Generating-Clusters/GAP-ML-2020/Higher-Symm/SD-CG/HFTN-CG
REM
REM
REM
REM
REM
REM ./C.cell (b20cbc046b6831c77cfcea5457e17084)
REM AIRSS Version 0.9.1 bugfix July 2018 build 013d7b7c2542+ Fri, 06 Jul 2018 19:26:36 +0100
REM compiler GCC version 9.3.0
REM options -cpp -mtune=generic -march=x86-64 -g -O0
REM seed -151350724 1310740701 -379551194 -1474435826 -1617298311 -2045836746 2023127233 -869580619 -549285941 821859099 1563167618 2129818273 -1424956831 385805957 1761822473 940975982 -792938718 1242377168 -439050629 1660492400 -547121513 -300411315 290235165 1929517228 -1438725223 -1671628483 -756501076 -1402576014 -730705241 -151572245 -1991270360 516412972 715443668
REM
CELL 1.54180   50.00000   50.00000   50.00000   90.00000   90.00000   90.00000
LATT -1
SFAC C  
C      1  0.5405020000000  0.4999840000000  0.4330620000000 1.0
C      1  0.4594980000000  0.5000160000000  0.5669380000000 1.0
C      1  0.4401130000000  0.5244750000000  0.4361330000000 1.0
C      1  0.5598870000000  0.4755250000000  0.5638670000000 1.0
C      1  0.4797650000000  0.4332280000000  0.5443250000000 1.0
C      1  0.5202350000000  0.5667720000000  0.4556750000000 1.0
C      1  0.4744750000000  0.5057240000000  0.4112940000000 1.0
C      1  0.5255250000000  0.4942760000000  0.5887060000000 1.0
C      1  0.5379010000000  0.5704310000000  0.4781240000000 1.0
C      1  0.4620990000000  0.4295690000000  0.5218760000000 1.0
C      1  0.5272070000000  0.5465510000000  0.4366120000000 1.0
C      1  0.4727930000000  0.4534490000000  0.5633880000000 1.0
C      1  0.4596010000000  0.5500930000000  0.4929570000000 1.0
C      1  0.5403990000000  0.4499070000000  0.5070430000000 1.0
C      1  0.4264520000000  0.4554860000000  0.4957590000000 1.0
C      1  0.5735480000000  0.5445140000000  0.5042410000000 1.0
C      1  0.5480240000000  0.5271940000000  0.4407560000000 1.0
C      1  0.4519760000000  0.4728060000000  0.5592440000000 1.0
C      1  0.5209730000000  0.5796010000000  0.5006200000000 1.0
C      1  0.4790270000000  0.4203990000000  0.4993800000000 1.0
C      1  0.4616900000000  0.5434330000000  0.4382170000000 1.0
C      1  0.5383100000000  0.4565670000000  0.5617830000000 1.0
C      1  0.4261780000000  0.4716610000000  0.4500430000000 1.0
C      1  0.5738220000000  0.5283390000000  0.5499570000000 1.0
C      1  0.5095650000000  0.5321980000000  0.4198970000000 1.0
C      1  0.4904350000000  0.4678020000000  0.5801030000000 1.0
C      1  0.4905070000000  0.5633970000000  0.5336300000000 1.0
C      1  0.5094930000000  0.4366030000000  0.4663700000000 1.0
C      1  0.5277400000000  0.5003100000000  0.5180920000000 1.0
C      1  0.4722600000000  0.4996900000000  0.4819080000000 1.0
C      1  0.4488760000000  0.5008660000000  0.4207250000000 1.0
C      1  0.5511240000000  0.4991340000000  0.5792750000000 1.0
C      1  0.5395110000000  0.5583890000000  0.5424640000000 1.0
C      1  0.4604890000000  0.4416110000000  0.4575360000000 1.0
C      1  0.4813880000000  0.4955020000000  0.5836270000000 1.0
C      1  0.5186120000000  0.5044980000000  0.4163730000000 1.0
C      1  0.5048920000000  0.5372030000000  0.5724260000000 1.0
C      1  0.4951080000000  0.4627970000000  0.4275740000000 1.0
C      1  0.4760340000000  0.5695610000000  0.5090330000000 1.0
C      1  0.5239660000000  0.4304390000000  0.4909670000000 1.0
C      1  0.4164530000000  0.5261730000000  0.4835600000000 1.0
C      1  0.5835470000000  0.4738270000000  0.5164400000000 1.0
C      1  0.5758610000000  0.5071300000000  0.4732660000000 1.0
C      1  0.4241390000000  0.4928700000000  0.5267340000000 1.0
C      1  0.5248740000000  0.5144510000000  0.4927330000000 1.0
C      1  0.4751260000000  0.4855490000000  0.5072670000000 1.0
C      1  0.5654120000000  0.5312960000000  0.4611940000000 1.0
C      1  0.4345880000000  0.4687040000000  0.5388060000000 1.0
C      1  0.5545410000000  0.5255960000000  0.5703930000000 1.0
C      1  0.4454590000000  0.4744040000000  0.4296070000000 1.0
C      1  0.4830980000000  0.5445990000000  0.5538190000000 1.0
C      1  0.5169020000000  0.4554010000000  0.4461810000000 1.0
C      1  0.5200790000000  0.4730160000000  0.5027660000000 1.0
C      1  0.4799210000000  0.5269840000000  0.4972340000000 1.0
C      1  0.4674690000000  0.4563400000000  0.4338300000000 1.0
C      1  0.5325310000000  0.5436600000000  0.5661700000000 1.0
C      1  0.4198330000000  0.5212850000000  0.4543450000000 1.0
C      1  0.5801670000000  0.4787150000000  0.5456550000000 1.0
C      1  0.5056020000000  0.4186060000000  0.5085970000000 1.0
C      1  0.4943980000000  0.5813940000000  0.4914030000000 1.0
C      1  0.5649040000000  0.5482580000000  0.5315040000000 1.0
C      1  0.4350960000000  0.4517420000000  0.4684960000000 1.0
C      1  0.5321650000000  0.4417820000000  0.5378530000000 1.0
C      1  0.4678350000000  0.5582180000000  0.4621470000000 1.0
C      1  0.5854370000000  0.5186060000000  0.4973650000000 1.0
C      1  0.4145630000000  0.4813940000000  0.5026350000000 1.0
C      1  0.5184050000000  0.5705050000000  0.5280550000000 1.0
C      1  0.4815950000000  0.4294950000000  0.4719450000000 1.0
C      1  0.5186790000000  0.4897750000000  0.4758520000000 1.0
C      1  0.4813210000000  0.5102250000000  0.5241480000000 1.0
C      1  0.5892310000000  0.5063240000000  0.5430540000000 1.0
C      1  0.4107690000000  0.4936760000000  0.4569460000000 1.0
C      1  0.4387110000000  0.4462970000000  0.5199290000000 1.0
C      1  0.5612890000000  0.5537030000000  0.4800710000000 1.0
C      1  0.4964860000000  0.4873500000000  0.4128510000000 1.0
C      1  0.5035140000000  0.5126500000000  0.5871490000000 1.0
C      1  0.4056500000000  0.4992480000000  0.4845130000000 1.0
C      1  0.5943500000000  0.5007520000000  0.5154870000000 1.0
C      1  0.5642760000000  0.4801500000000  0.4720970000000 1.0
C      1  0.4357240000000  0.5198500000000  0.5279030000000 1.0
C      1  0.5075040000000  0.5061370000000  0.5348080000000 1.0
C      1  0.4924960000000  0.4938630000000  0.4651920000000 1.0
C      1  0.5074960000000  0.4274950000000  0.5353710000000 1.0
C      1  0.4925040000000  0.5725050000000  0.4646290000000 1.0
C      1  0.4339770000000  0.5360970000000  0.5031920000000 1.0
C      1  0.5660230000000  0.4639030000000  0.4968080000000 1.0
C      1  0.5386540000000  0.4785940000000  0.4541070000000 1.0
C      1  0.4613460000000  0.5214060000000  0.5458930000000 1.0
C      1  0.5184720000000  0.4675650000000  0.5806250000000 1.0
C      1  0.4815280000000  0.5324350000000  0.4193750000000 1.0
C      1  0.4935940000000  0.4664980000000  0.5102220000000 1.0
C      1  0.5064060000000  0.5335020000000  0.4897780000000 1.0
END
