TITL C-62904-580-8 200.975259520785 125000 -149.237280647218 0 0 24 (C1) n - 1
REM
REM in /rds/project/t2_vol4/rds-t2-cs072/BORA/CARBON/from-Arr/AIRSS/Generating-Clusters/GAP-ML-2020/Higher-Symm/SD-CG/HFTN-CG
REM
REM
REM
REM
REM
REM ./C.cell (b20cbc046b6831c77cfcea5457e17084)
REM AIRSS Version 0.9.1 bugfix July 2018 build 013d7b7c2542+ Fri, 06 Jul 2018 19:26:36 +0100
REM compiler GCC version 9.3.0
REM options -cpp -mtune=generic -march=x86-64 -g -O0
REM seed 960857398 -117328220 -1876442401 1741248240 -1287758514 1738211742 -77461219 1991143700 1047421745 -783351494 -1874041458 1590695635 -683377955 844280901 -559382883 1395520730 -1763343439 -758840003 -686413341 1793268350 -1768919203 -1534376437 997770797 -1650128844 -1857355317 -2040080167 -94801371 -176889957 636092807 -848415977 1866995875 1514847216 2140134511
REM
CELL 1.54180   50.00000   50.00000   50.00000   90.00000   90.00000   90.00000
LATT -1
SFAC C  
C      1  0.4839920000000  0.4844540000000  0.4382340000000 1.0
C      1  0.4753110000000  0.4508790000000  0.4955240000000 1.0
C      1  0.4848280000000  0.4781010000000  0.5562110000000 1.0
C      1  0.4862000000000  0.5447810000000  0.5372900000000 1.0
C      1  0.4823540000000  0.5495150000000  0.4657270000000 1.0
C      1  0.4997830000000  0.5512190000000  0.5129510000000 1.0
C      1  0.4980640000000  0.5304090000000  0.4502690000000 1.0
C      1  0.4991920000000  0.4665670000000  0.4554390000000 1.0
C      1  0.4966450000000  0.4518750000000  0.5172060000000 1.0
C      1  0.5006110000000  0.5026580000000  0.5565260000000 1.0
C      1  0.5271470000000  0.5003380000000  0.5484190000000 1.0
C      1  0.5259400000000  0.5435700000000  0.5098630000000 1.0
C      1  0.5250450000000  0.5255910000000  0.4548290000000 1.0
C      1  0.5251990000000  0.4735420000000  0.4651210000000 1.0
C      1  0.5229040000000  0.4600370000000  0.5122220000000 1.0
C      1  0.4831500000000  0.5091410000000  0.4365500000000 1.0
C      1  0.4828620000000  0.4486450000000  0.4696560000000 1.0
C      1  0.4852650000000  0.4574210000000  0.5427340000000 1.0
C      1  0.4857280000000  0.5280720000000  0.5556910000000 1.0
C      1  0.4837100000000  0.5560530000000  0.4896720000000 1.0
C      1  0.5382970000000  0.5211530000000  0.5034750000000 1.0
C      1  0.4432000000000  0.4893010000000  0.4981060000000 1.0
C      1  0.4515780000000  0.4651490000000  0.4994860000000 1.0
C      1  0.5559790000000  0.5030150000000  0.4988660000000 1.0
END
