TITL C-62931-3293-10 -42.0659342350257 125000 -135.627190069173 0 0 20 (Ih) n - 1
REM
REM in /rds/project/t2_vol4/rds-t2-cs072/BORA/CARBON/from-Arr/AIRSS/Generating-Clusters/GAP-ML-2020/Higher-Symm/SD-CG/HFTN-CG
REM
REM
REM
REM
REM
REM ./C.cell (b20cbc046b6831c77cfcea5457e17084)
REM AIRSS Version 0.9.1 bugfix July 2018 build 013d7b7c2542+ Fri, 06 Jul 2018 19:26:36 +0100
REM compiler GCC version 9.3.0
REM options -cpp -mtune=generic -march=x86-64 -g -O0
REM seed 1427867396 -2121747729 -1022563164 -81525250 1304731182 1609213034 502211942 -532393454 -1326792051 1747533984 1828928100 717911718 -1678070076 1855351857 -132349337 976670212 1787475530 -1908481710 1117501723 -2078843427 674516849 1095800599 -82105196 -1512890104 -1101879243 -1032525764 -1041865706 1154892252 -1245773959 836876924 -1773489231 -1537486254 -833586163
REM
CELL 1.54180   50.00000   50.00000   50.00000   90.00000   90.00000   90.00000
LATT -1
SFAC C  
C      1  0.4688460000000  0.4768050000000  0.4892930000000 1.0
C      1  0.5352180000000  0.4858510000000  0.4892940000000 1.0
C      1  0.4941980000000  0.5388080000000  0.4892930000000 1.0
C      1  0.5299950000000  0.4768050000000  0.5166410000000 1.0
C      1  0.4636220000000  0.4858510000000  0.5166400000000 1.0
C      1  0.5046430000000  0.5388080000000  0.5166400000000 1.0
C      1  0.5299950000000  0.5241710000000  0.5166400000000 1.0
C      1  0.4636220000000  0.5151250000000  0.5166400000000 1.0
C      1  0.5046430000000  0.4621680000000  0.5166410000000 1.0
C      1  0.4688460000000  0.5241710000000  0.4892930000000 1.0
C      1  0.5352180000000  0.5151250000000  0.4892930000000 1.0
C      1  0.4941980000000  0.4621680000000  0.4892940000000 1.0
C      1  0.5130940000000  0.5241710000000  0.4723920000000 1.0
C      1  0.4857460000000  0.4768050000000  0.5335420000000 1.0
C      1  0.4857460000000  0.5241710000000  0.5335410000000 1.0
C      1  0.5130940000000  0.4768040000000  0.4723920000000 1.0
C      1  0.5267670000000  0.5004880000000  0.5335420000000 1.0
C      1  0.4720740000000  0.5004880000000  0.4723920000000 1.0
C      1  0.4994200000000  0.5004880000000  0.5439870000000 1.0
C      1  0.4994210000000  0.5004870000000  0.4619460000000 1.0
END
