TITL C-62931-3293-4 -15.8622453413659 125000 -713.542673367197 0 0 105 (C1) n - 1
REM
REM in /rds/project/t2_vol4/rds-t2-cs072/BORA/CARBON/from-Arr/AIRSS/Generating-Clusters/GAP-ML-2020/Higher-Symm/SD-CG/HFTN-CG
REM
REM
REM
REM
REM
REM ./C.cell (b20cbc046b6831c77cfcea5457e17084)
REM AIRSS Version 0.9.1 bugfix July 2018 build 013d7b7c2542+ Fri, 06 Jul 2018 19:26:36 +0100
REM compiler GCC version 9.3.0
REM options -cpp -mtune=generic -march=x86-64 -g -O0
REM seed -566666615 -641050391 -1739772419 -1091026166 1499020803 -1924249317 -347330946 -772516535 1513644915 1155662376 -478022836 1394004261 -556501799 -453826915 -1729979675 -1445955120 -2041264868 -1254714991 -1476402159 692486673 392930996 -455615093 -674418530 -1317897979 -1093381622 -402715086 -1580556496 1069143647 1645381099 -1589171601 43799908 900514186 -709212859
REM
CELL 1.54180   50.00000   50.00000   50.00000   90.00000   90.00000   90.00000
LATT -1
SFAC C  
C      1  0.5742970000000  0.4923830000000  0.5246260000000 1.0
C      1  0.4988090000000  0.4913440000000  0.5764910000000 1.0
C      1  0.4257460000000  0.4927780000000  0.5231430000000 1.0
C      1  0.4558110000000  0.4903150000000  0.4381220000000 1.0
C      1  0.5475050000000  0.4926670000000  0.4382340000000 1.0
C      1  0.5741840000000  0.4934290000000  0.4751050000000 1.0
C      1  0.5001190000000  0.4906560000000  0.4233050000000 1.0
C      1  0.4264260000000  0.4918080000000  0.4779740000000 1.0
C      1  0.4540590000000  0.4926850000000  0.5637380000000 1.0
C      1  0.5459220000000  0.4908530000000  0.5608900000000 1.0
C      1  0.4993450000000  0.5822300000000  0.5466870000000 1.0
C      1  0.4550320000000  0.5840380000000  0.5136590000000 1.0
C      1  0.4730770000000  0.5821580000000  0.4619010000000 1.0
C      1  0.5280180000000  0.5827720000000  0.4625360000000 1.0
C      1  0.5439050000000  0.5825060000000  0.5151420000000 1.0
C      1  0.4994460000000  0.5823590000000  0.4533940000000 1.0
C      1  0.4552950000000  0.5824160000000  0.4860010000000 1.0
C      1  0.4732930000000  0.5825940000000  0.5379670000000 1.0
C      1  0.5279130000000  0.5821710000000  0.5374610000000 1.0
C      1  0.5444620000000  0.5841910000000  0.4847960000000 1.0
C      1  0.5452730000000  0.4877910000000  0.4854060000000 1.0
C      1  0.5278080000000  0.4961780000000  0.5373990000000 1.0
C      1  0.4706920000000  0.4970510000000  0.5372920000000 1.0
C      1  0.4563410000000  0.4974890000000  0.4880910000000 1.0
C      1  0.5007840000000  0.4964760000000  0.4531430000000 1.0
C      1  0.5454090000000  0.4972900000000  0.5127420000000 1.0
C      1  0.5290310000000  0.4980480000000  0.4640450000000 1.0
C      1  0.4726230000000  0.4967010000000  0.4625660000000 1.0
C      1  0.4553490000000  0.4866060000000  0.5149380000000 1.0
C      1  0.4994400000000  0.4966620000000  0.5467990000000 1.0
C      1  0.5003830000000  0.5285340000000  0.4544510000000 1.0
C      1  0.5398530000000  0.5401700000000  0.4876570000000 1.0
C      1  0.5268690000000  0.5281960000000  0.5363280000000 1.0
C      1  0.4722780000000  0.5280760000000  0.5356720000000 1.0
C      1  0.4580890000000  0.5278320000000  0.4881610000000 1.0
C      1  0.4996230000000  0.5282490000000  0.5451710000000 1.0
C      1  0.5433490000000  0.5280060000000  0.5125290000000 1.0
C      1  0.5272720000000  0.5282160000000  0.4654420000000 1.0
C      1  0.4733470000000  0.5282840000000  0.4633570000000 1.0
C      1  0.4606700000000  0.5400390000000  0.5133780000000 1.0
C      1  0.5821680000000  0.4684890000000  0.4848280000000 1.0
C      1  0.5356990000000  0.4645180000000  0.5630940000000 1.0
C      1  0.4425500000000  0.4675270000000  0.5600450000000 1.0
C      1  0.4292790000000  0.4651680000000  0.4690710000000 1.0
C      1  0.5123080000000  0.4650780000000  0.4226790000000 1.0
C      1  0.5808000000000  0.4672410000000  0.5142350000000 1.0
C      1  0.5405450000000  0.4659270000000  0.4325010000000 1.0
C      1  0.4472970000000  0.4640830000000  0.4454600000000 1.0
C      1  0.4249550000000  0.4678940000000  0.5360140000000 1.0
C      1  0.5080550000000  0.4648140000000  0.5730230000000 1.0
C      1  0.4595440000000  0.5138520000000  0.4214640000000 1.0
C      1  0.5628790000000  0.5169270000000  0.4365470000000 1.0
C      1  0.5796280000000  0.5159170000000  0.5399740000000 1.0
C      1  0.4866280000000  0.5151390000000  0.5878110000000 1.0
C      1  0.4142840000000  0.5171200000000  0.5146400000000 1.0
C      1  0.4590260000000  0.5163180000000  0.5791600000000 1.0
C      1  0.5623180000000  0.5147560000000  0.5631110000000 1.0
C      1  0.5784990000000  0.5177470000000  0.4613830000000 1.0
C      1  0.4870030000000  0.5142680000000  0.4124170000000 1.0
C      1  0.4126140000000  0.5159380000000  0.4852920000000 1.0
C      1  0.5479480000000  0.5404170000000  0.5547540000000 1.0
C      1  0.4625770000000  0.5413850000000  0.5624550000000 1.0
C      1  0.4289500000000  0.5410810000000  0.4835680000000 1.0
C      1  0.4932900000000  0.5404420000000  0.4269010000000 1.0
C      1  0.5671740000000  0.5436050000000  0.4711740000000 1.0
C      1  0.5482270000000  0.5417470000000  0.4449360000000 1.0
C      1  0.4626690000000  0.5401740000000  0.4368830000000 1.0
C      1  0.4288320000000  0.5432240000000  0.5158670000000 1.0
C      1  0.4933700000000  0.5406490000000  0.5725110000000 1.0
C      1  0.5670260000000  0.5412530000000  0.5286530000000 1.0
C      1  0.4975180000000  0.4260830000000  0.5431340000000 1.0
C      1  0.4339750000000  0.4213890000000  0.5295870000000 1.0
C      1  0.4697760000000  0.4250490000000  0.4660200000000 1.0
C      1  0.5335220000000  0.4234760000000  0.4548150000000 1.0
C      1  0.5606980000000  0.4247280000000  0.5052050000000 1.0
C      1  0.5081170000000  0.4219860000000  0.4419500000000 1.0
C      1  0.4511410000000  0.4247480000000  0.4870130000000 1.0
C      1  0.4518240000000  0.4211500000000  0.5515360000000 1.0
C      1  0.5232980000000  0.4275330000000  0.5314890000000 1.0
C      1  0.5772710000000  0.4216290000000  0.4839000000000 1.0
C      1  0.5353410000000  0.5650900000000  0.5620540000000 1.0
C      1  0.4522320000000  0.5663790000000  0.5529700000000 1.0
C      1  0.4353880000000  0.5651590000000  0.4703950000000 1.0
C      1  0.5074520000000  0.5653220000000  0.4290520000000 1.0
C      1  0.5709230000000  0.5675430000000  0.4858260000000 1.0
C      1  0.5350740000000  0.5656900000000  0.4380850000000 1.0
C      1  0.4523850000000  0.5650000000000  0.4468440000000 1.0
C      1  0.4343040000000  0.5672410000000  0.5298960000000 1.0
C      1  0.5078580000000  0.5652220000000  0.5710690000000 1.0
C      1  0.5697950000000  0.5663400000000  0.5149980000000 1.0
C      1  0.4896380000000  0.4451820000000  0.5637340000000 1.0
C      1  0.4231930000000  0.4449670000000  0.5184710000000 1.0
C      1  0.4682020000000  0.4443620000000  0.4446500000000 1.0
C      1  0.5511510000000  0.4448490000000  0.4497790000000 1.0
C      1  0.5656360000000  0.4452240000000  0.5247870000000 1.0
C      1  0.4946960000000  0.4438190000000  0.4309470000000 1.0
C      1  0.4313720000000  0.4453040000000  0.4896190000000 1.0
C      1  0.4600460000000  0.4450940000000  0.5642750000000 1.0
C      1  0.5430580000000  0.4453240000000  0.5428580000000 1.0
C      1  0.5727180000000  0.4451520000000  0.4699590000000 1.0
C      1  0.4739730000000  0.4115730000000  0.5343710000000 1.0
C      1  0.5329490000000  0.4166170000000  0.5059690000000 1.0
C      1  0.5215140000000  0.4130050000000  0.4803890000000 1.0
C      1  0.4552360000000  0.4110780000000  0.5117980000000 1.0
C      1  0.4954410000000  0.4125740000000  0.4663680000000 1.0
END
