TITL C-62917-3089-4 0.0850401809376368 125000 -637.726042731198 0 0 91 (C1) n - 1
REM
REM in /rds/project/t2_vol4/rds-t2-cs072/BORA/CARBON/from-Arr/AIRSS/Generating-Clusters/GAP-ML-2020/Higher-Symm/SD-CG/HFTN-CG
REM
REM
REM
REM
REM
REM ./C.cell (b20cbc046b6831c77cfcea5457e17084)
REM AIRSS Version 0.9.1 bugfix July 2018 build 013d7b7c2542+ Fri, 06 Jul 2018 19:26:36 +0100
REM compiler GCC version 9.3.0
REM options -cpp -mtune=generic -march=x86-64 -g -O0
REM seed -1737874171 1047084197 -2126156371 -1818022950 -312592522 -1120180470 -1612326827 264449560 355661544 897502778 877166752 -552357772 -2098791937 1219830020 1920974574 -326138601 100866464 -1650989952 281267521 1378576479 821194627 -1050369831 -1956855646 -1553737173 1235070749 -322528563 119261212 -1141821537 1658947545 608038580 960477218 601054729 890799538
REM
CELL 1.54180   50.00000   50.00000   50.00000   90.00000   90.00000   90.00000
LATT -1
SFAC C  
C      1  0.4787330000000  0.5755010000000  0.4402810000000 1.0
C      1  0.5240450000000  0.5737240000000  0.4393230000000 1.0
C      1  0.5613020000000  0.5700120000000  0.4629630000000 1.0
C      1  0.5568750000000  0.5819390000000  0.5062260000000 1.0
C      1  0.5398310000000  0.5797220000000  0.5478480000000 1.0
C      1  0.4963240000000  0.5805930000000  0.5585530000000 1.0
C      1  0.4530610000000  0.5746780000000  0.5481160000000 1.0
C      1  0.4315880000000  0.5715820000000  0.5090380000000 1.0
C      1  0.4421110000000  0.5685290000000  0.4651110000000 1.0
C      1  0.5143430000000  0.4967320000000  0.4664030000000 1.0
C      1  0.5263350000000  0.5055490000000  0.4891090000000 1.0
C      1  0.5227220000000  0.4895360000000  0.5115220000000 1.0
C      1  0.5290290000000  0.5063820000000  0.5414260000000 1.0
C      1  0.5027300000000  0.5084680000000  0.5540250000000 1.0
C      1  0.4803930000000  0.5003610000000  0.5348430000000 1.0
C      1  0.4825980000000  0.4872620000000  0.5100820000000 1.0
C      1  0.4727210000000  0.4972440000000  0.4862590000000 1.0
C      1  0.4881310000000  0.4911010000000  0.4651870000000 1.0
C      1  0.4789510000000  0.4445770000000  0.4373810000000 1.0
C      1  0.5243190000000  0.4448080000000  0.4393180000000 1.0
C      1  0.5572870000000  0.4424040000000  0.4690080000000 1.0
C      1  0.5637900000000  0.4381480000000  0.5127990000000 1.0
C      1  0.5406650000000  0.4341880000000  0.5507070000000 1.0
C      1  0.4975410000000  0.4351040000000  0.5654240000000 1.0
C      1  0.4566390000000  0.4408060000000  0.5481910000000 1.0
C      1  0.4356200000000  0.4431600000000  0.5096430000000 1.0
C      1  0.4439340000000  0.4436420000000  0.4653640000000 1.0
C      1  0.4353810000000  0.4846040000000  0.5361770000000 1.0
C      1  0.4248140000000  0.4832150000000  0.4859290000000 1.0
C      1  0.4516850000000  0.4854060000000  0.4420570000000 1.0
C      1  0.5025510000000  0.4844540000000  0.4249460000000 1.0
C      1  0.5513480000000  0.4856570000000  0.4474020000000 1.0
C      1  0.5755340000000  0.4811910000000  0.4914490000000 1.0
C      1  0.5651450000000  0.4765540000000  0.5412380000000 1.0
C      1  0.5250010000000  0.4728460000000  0.5730300000000 1.0
C      1  0.4734200000000  0.4786900000000  0.5719880000000 1.0
C      1  0.5440650000000  0.4870410000000  0.5568570000000 1.0
C      1  0.5004060000000  0.4874940000000  0.5735930000000 1.0
C      1  0.4571540000000  0.4972410000000  0.5527430000000 1.0
C      1  0.4284000000000  0.4971650000000  0.5116480000000 1.0
C      1  0.4368700000000  0.4971270000000  0.4637350000000 1.0
C      1  0.4785210000000  0.4982420000000  0.4371130000000 1.0
C      1  0.5256260000000  0.4984020000000  0.4390640000000 1.0
C      1  0.5643720000000  0.4972480000000  0.4706500000000 1.0
C      1  0.5716430000000  0.4929010000000  0.5176970000000 1.0
C      1  0.4279460000000  0.4556010000000  0.4856770000000 1.0
C      1  0.4540630000000  0.4573890000000  0.4427370000000 1.0
C      1  0.5021980000000  0.4570820000000  0.4266560000000 1.0
C      1  0.5488660000000  0.4574210000000  0.4467100000000 1.0
C      1  0.5720880000000  0.4531940000000  0.4903560000000 1.0
C      1  0.5621380000000  0.4486380000000  0.5386430000000 1.0
C      1  0.5236170000000  0.4449320000000  0.5707870000000 1.0
C      1  0.4736450000000  0.4508230000000  0.5681430000000 1.0
C      1  0.4371680000000  0.4562420000000  0.5346300000000 1.0
C      1  0.4627830000000  0.5272080000000  0.5551290000000 1.0
C      1  0.4375750000000  0.5224910000000  0.5035330000000 1.0
C      1  0.4513720000000  0.5182290000000  0.4787970000000 1.0
C      1  0.4874910000000  0.5258450000000  0.4366850000000 1.0
C      1  0.5158540000000  0.5251130000000  0.4388010000000 1.0
C      1  0.5516430000000  0.5207700000000  0.4857510000000 1.0
C      1  0.5621510000000  0.5189670000000  0.5139330000000 1.0
C      1  0.5421420000000  0.5296720000000  0.5315850000000 1.0
C      1  0.4905200000000  0.5331620000000  0.5617600000000 1.0
C      1  0.4976840000000  0.4194090000000  0.5408360000000 1.0
C      1  0.4709400000000  0.4222480000000  0.5303890000000 1.0
C      1  0.4574420000000  0.4245380000000  0.5051670000000 1.0
C      1  0.4636380000000  0.4257890000000  0.4769050000000 1.0
C      1  0.4862640000000  0.4266870000000  0.4589520000000 1.0
C      1  0.5151580000000  0.4263460000000  0.4597320000000 1.0
C      1  0.5367890000000  0.4237810000000  0.4785160000000 1.0
C      1  0.5408460000000  0.4209810000000  0.5068940000000 1.0
C      1  0.5254020000000  0.4188200000000  0.5313300000000 1.0
C      1  0.4853330000000  0.5493550000000  0.4573100000000 1.0
C      1  0.5176200000000  0.5492300000000  0.4564770000000 1.0
C      1  0.5390280000000  0.5485140000000  0.4776860000000 1.0
C      1  0.5340400000000  0.5650170000000  0.5019400000000 1.0
C      1  0.5246150000000  0.5537380000000  0.5275920000000 1.0
C      1  0.4969480000000  0.5554690000000  0.5414950000000 1.0
C      1  0.4670700000000  0.5502790000000  0.5338900000000 1.0
C      1  0.4528200000000  0.5483690000000  0.5080990000000 1.0
C      1  0.4621300000000  0.5468700000000  0.4766890000000 1.0
C      1  0.4232420000000  0.5766880000000  0.4835320000000 1.0
C      1  0.4525050000000  0.5823930000000  0.4436140000000 1.0
C      1  0.5015910000000  0.5867360000000  0.4298900000000 1.0
C      1  0.5511620000000  0.5788000000000  0.4393490000000 1.0
C      1  0.5732500000000  0.5830150000000  0.4833540000000 1.0
C      1  0.5588200000000  0.5908670000000  0.5327240000000 1.0
C      1  0.5216530000000  0.5884940000000  0.5653350000000 1.0
C      1  0.4702550000000  0.5891470000000  0.5639630000000 1.0
C      1  0.4308800000000  0.5830390000000  0.5340140000000 1.0
C      1  0.5037040000000  0.4702230000000  0.5058820000000 1.0
END
