TITL C-62903-3126-4 -0.125291199790838 125000 -359.589308838395 0 0 52 (C1) n - 1
REM
REM in /rds/project/t2_vol4/rds-t2-cs072/BORA/CARBON/from-Arr/AIRSS/Generating-Clusters/GAP-ML-2020/Higher-Symm/SD-CG/HFTN-CG
REM
REM
REM
REM
REM
REM ./C.cell (b20cbc046b6831c77cfcea5457e17084)
REM AIRSS Version 0.9.1 bugfix July 2018 build 013d7b7c2542+ Fri, 06 Jul 2018 19:26:36 +0100
REM compiler GCC version 9.3.0
REM options -cpp -mtune=generic -march=x86-64 -g -O0
REM seed -471359478 1135426042 -1220304973 1585268135 -1560462336 1110656675 -994916858 553323644 -331379196 -1738546147 1174627552 88322693 -753834920 1178609444 711752929 -693041713 467094542 1741138041 -155978892 -1917191297 529759091 1544006671 1090493874 1205595348 -1703566627 491424865 -1457422092 1593243113 -763313893 -1924175152 -1066230654 -1727064994 -1895513297
REM
CELL 1.54180   50.00000   50.00000   50.00000   90.00000   90.00000   90.00000
LATT -1
SFAC C  
C      1  0.5601340000000  0.4727270000000  0.4856130000000 1.0
C      1  0.4575540000000  0.4742330000000  0.4546360000000 1.0
C      1  0.4814330000000  0.4706290000000  0.5613080000000 1.0
C      1  0.4628960000000  0.5444510000000  0.5223970000000 1.0
C      1  0.5370590000000  0.5436960000000  0.5240100000000 1.0
C      1  0.5025630000000  0.5471720000000  0.4571610000000 1.0
C      1  0.5473310000000  0.5257790000000  0.4611760000000 1.0
C      1  0.4453740000000  0.5254370000000  0.4809600000000 1.0
C      1  0.5106340000000  0.5232500000000  0.5606400000000 1.0
C      1  0.5000210000000  0.5266840000000  0.4354550000000 1.0
C      1  0.4445460000000  0.5245050000000  0.5356960000000 1.0
C      1  0.5573690000000  0.5232860000000  0.5320210000000 1.0
C      1  0.5603970000000  0.5281490000000  0.4864470000000 1.0
C      1  0.4589010000000  0.5304490000000  0.4564330000000 1.0
C      1  0.4824520000000  0.5275310000000  0.5613850000000 1.0
C      1  0.5410380000000  0.5020740000000  0.4469310000000 1.0
C      1  0.4442610000000  0.5004310000000  0.4951270000000 1.0
C      1  0.5224900000000  0.4981500000000  0.5530840000000 1.0
C      1  0.4435000000000  0.4765420000000  0.4793390000000 1.0
C      1  0.5099580000000  0.4736210000000  0.5617350000000 1.0
C      1  0.5469820000000  0.4775260000000  0.4605050000000 1.0
C      1  0.4844200000000  0.4512270000000  0.5388470000000 1.0
C      1  0.5386950000000  0.4536670000000  0.4934020000000 1.0
C      1  0.4754260000000  0.4533280000000  0.4665130000000 1.0
C      1  0.4581310000000  0.5140060000000  0.5590760000000 1.0
C      1  0.5710530000000  0.5141310000000  0.5082960000000 1.0
C      1  0.4731530000000  0.5171130000000  0.4366870000000 1.0
C      1  0.5203100000000  0.4919940000000  0.5208980000000 1.0
C      1  0.5008650000000  0.5033350000000  0.4765950000000 1.0
C      1  0.4736360000000  0.4931550000000  0.5122240000000 1.0
C      1  0.4723780000000  0.4891460000000  0.4361150000000 1.0
C      1  0.4575660000000  0.4853910000000  0.5587170000000 1.0
C      1  0.5712320000000  0.4855330000000  0.5081830000000 1.0
C      1  0.4332450000000  0.5012490000000  0.5222670000000 1.0
C      1  0.5513920000000  0.4997400000000  0.5479940000000 1.0
C      1  0.5167770000000  0.5029540000000  0.4323230000000 1.0
C      1  0.4610680000000  0.5473590000000  0.4944600000000 1.0
C      1  0.5145310000000  0.5450230000000  0.5406290000000 1.0
C      1  0.5280480000000  0.5471310000000  0.4689800000000 1.0
C      1  0.5269550000000  0.4562550000000  0.4668350000000 1.0
C      1  0.4602680000000  0.4542610000000  0.4912100000000 1.0
C      1  0.5131920000000  0.4520700000000  0.5409780000000 1.0
C      1  0.5319540000000  0.4624370000000  0.5213500000000 1.0
C      1  0.5016780000000  0.4580400000000  0.4543310000000 1.0
C      1  0.4659820000000  0.4626070000000  0.5185370000000 1.0
C      1  0.4856870000000  0.5474500000000  0.5395290000000 1.0
C      1  0.5401570000000  0.5477960000000  0.4956850000000 1.0
C      1  0.4765460000000  0.5503560000000  0.4698010000000 1.0
C      1  0.4427690000000  0.4768040000000  0.5356250000000 1.0
C      1  0.5583310000000  0.4763330000000  0.5319400000000 1.0
C      1  0.4992320000000  0.4795510000000  0.4345280000000 1.0
C      1  0.4994440000000  0.4998750000000  0.5026790000000 1.0
END
