TITL C-62918-3138-7 0.226704247933232 125000 -1130.26668758438 0 0 160 (Cs) n - 1
REM
REM in /rds/project/t2_vol4/rds-t2-cs072/BORA/CARBON/from-Arr/AIRSS/Generating-Clusters/GAP-ML-2020/Higher-Symm/SD-CG/HFTN-CG
REM
REM
REM
REM
REM
REM ./C.cell (b20cbc046b6831c77cfcea5457e17084)
REM AIRSS Version 0.9.1 bugfix July 2018 build 013d7b7c2542+ Fri, 06 Jul 2018 19:26:36 +0100
REM compiler GCC version 9.3.0
REM options -cpp -mtune=generic -march=x86-64 -g -O0
REM seed -9487328 -1043488098 -1988710825 -1293422704 -1052990746 1917019366 -1948128019 -2063020278 -375464233 734928497 -1743223461 224694660 -797771024 1575845175 1090227647 258499253 2077871739 1304212607 -849045726 619221528 2051543664 1083419287 2139749321 674222794 1841665735 -1452952438 1877818437 -1354242850 -684310488 -847146129 1085368896 -2019294564 1403504574
REM
CELL 1.54180   50.00000   50.00000   50.00000   90.00000   90.00000   90.00000
LATT -1
SFAC C  
C      1  0.5541620000000  0.5874030000000  0.4708290000000 1.0
C      1  0.5541640000000  0.5874060000000  0.5291600000000 1.0
C      1  0.5558930000000  0.5737960000000  0.4450730000000 1.0
C      1  0.5558960000000  0.5738010000000  0.5549180000000 1.0
C      1  0.5503020000000  0.5361900000000  0.5132890000000 1.0
C      1  0.5503010000000  0.5361890000000  0.4867050000000 1.0
C      1  0.5136550000000  0.5339060000000  0.3931390000000 1.0
C      1  0.5136620000000  0.5339140000000  0.6068570000000 1.0
C      1  0.4622450000000  0.4448300000000  0.5678830000000 1.0
C      1  0.4622410000000  0.4448250000000  0.4321240000000 1.0
C      1  0.4618740000000  0.5489460000000  0.4467180000000 1.0
C      1  0.4618770000000  0.5489500000000  0.5532810000000 1.0
C      1  0.5112140000000  0.5797310000000  0.4472530000000 1.0
C      1  0.5112170000000  0.5797360000000  0.5527400000000 1.0
C      1  0.4859300000000  0.5142590000000  0.5307450000000 1.0
C      1  0.4859280000000  0.5142560000000  0.4692550000000 1.0
C      1  0.4896610000000  0.5116300000000  0.4379640000000 1.0
C      1  0.4896650000000  0.5116350000000  0.5620360000000 1.0
C      1  0.4008520000000  0.5563560000000  0.4516410000000 1.0
C      1  0.4008550000000  0.5563600000000  0.5483610000000 1.0
C      1  0.4779960000000  0.6057830000000  0.5413890000000 1.0
C      1  0.4779940000000  0.6057800000000  0.4586040000000 1.0
C      1  0.4456060000000  0.4566310000000  0.5159960000000 1.0
C      1  0.4456050000000  0.4566300000000  0.4840100000000 1.0
C      1  0.5407530000000  0.4441320000000  0.4717970000000 1.0
C      1  0.5407550000000  0.4441340000000  0.5282050000000 1.0
C      1  0.5528990000000  0.4967340000000  0.5954880000000 1.0
C      1  0.5528930000000  0.4967270000000  0.4045090000000 1.0
C      1  0.5376400000000  0.4550100000000  0.4440240000000 1.0
C      1  0.5376440000000  0.4550150000000  0.5559770000000 1.0
C      1  0.4700680000000  0.5323960000000  0.4237840000000 1.0
C      1  0.4700730000000  0.5324020000000  0.5762150000000 1.0
C      1  0.5609030000000  0.4588470000000  0.4273210000000 1.0
C      1  0.5609080000000  0.4588530000000  0.5726790000000 1.0
C      1  0.4898400000000  0.5445830000000  0.5962210000000 1.0
C      1  0.4898340000000  0.5445750000000  0.4037760000000 1.0
C      1  0.5192770000000  0.5126840000000  0.5669020000000 1.0
C      1  0.5192720000000  0.5126780000000  0.4330960000000 1.0
C      1  0.4872880000000  0.3943750000000  0.5280530000000 1.0
C      1  0.4872860000000  0.3943730000000  0.4719560000000 1.0
C      1  0.4917750000000  0.4647230000000  0.5276030000000 1.0
C      1  0.4917730000000  0.4647210000000  0.4724000000000 1.0
C      1  0.4096020000000  0.5381320000000  0.5645080000000 1.0
C      1  0.4095980000000  0.5381270000000  0.4354950000000 1.0
C      1  0.4641420000000  0.3877090000000  0.5142620000000 1.0
C      1  0.4641410000000  0.3877080000000  0.4857490000000 1.0
C      1  0.5066840000000  0.4839390000000  0.4021400000000 1.0
C      1  0.5066900000000  0.4839470000000  0.5978600000000 1.0
C      1  0.5491950000000  0.4689870000000  0.5965430000000 1.0
C      1  0.5491890000000  0.4689790000000  0.4034560000000 1.0
C      1  0.4563150000000  0.4867430000000  0.4150930000000 1.0
C      1  0.4563210000000  0.4867500000000  0.5849110000000 1.0
C      1  0.4774860000000  0.4899630000000  0.4829210000000 1.0
C      1  0.4774880000000  0.4899650000000  0.5170810000000 1.0
C      1  0.4221770000000  0.4664490000000  0.4428410000000 1.0
C      1  0.4221810000000  0.4664530000000  0.5571670000000 1.0
C      1  0.5760960000000  0.5541810000000  0.4481580000000 1.0
C      1  0.5761000000000  0.5541850000000  0.5518330000000 1.0
C      1  0.4670170000000  0.5379300000000  0.4730690000000 1.0
C      1  0.4670180000000  0.5379320000000  0.5269300000000 1.0
C      1  0.5216310000000  0.4608700000000  0.4032460000000 1.0
C      1  0.5216370000000  0.4608780000000  0.5967560000000 1.0
C      1  0.5927550000000  0.5621400000000  0.4703270000000 1.0
C      1  0.5927570000000  0.5621430000000  0.5296620000000 1.0
C      1  0.4485740000000  0.4855610000000  0.5153980000000 1.0
C      1  0.4485730000000  0.4855600000000  0.4846060000000 1.0
C      1  0.5673110000000  0.4523430000000  0.4851970000000 1.0
C      1  0.5673120000000  0.4523440000000  0.5148020000000 1.0
C      1  0.5818360000000  0.4719650000000  0.5312910000000 1.0
C      1  0.5818340000000  0.4719630000000  0.4687060000000 1.0
C      1  0.5642520000000  0.5255410000000  0.4451750000000 1.0
C      1  0.5642560000000  0.5255450000000  0.5548190000000 1.0
C      1  0.5783180000000  0.4770500000000  0.4404340000000 1.0
C      1  0.5783220000000  0.4770550000000  0.5595620000000 1.0
C      1  0.4187730000000  0.4942760000000  0.4476320000000 1.0
C      1  0.4187760000000  0.4942800000000  0.5523740000000 1.0
C      1  0.4829080000000  0.4074720000000  0.4470650000000 1.0
C      1  0.4829120000000  0.4074760000000  0.5529440000000 1.0
C      1  0.4216080000000  0.4478050000000  0.5336450000000 1.0
C      1  0.4216060000000  0.4478030000000  0.4663640000000 1.0
C      1  0.5099290000000  0.5681320000000  0.5260650000000 1.0
C      1  0.5099270000000  0.5681300000000  0.4739290000000 1.0
C      1  0.4259180000000  0.5027780000000  0.5252400000000 1.0
C      1  0.4259170000000  0.5027760000000  0.4747650000000 1.0
C      1  0.4455680000000  0.5704450000000  0.4560370000000 1.0
C      1  0.4455710000000  0.5704480000000  0.5439610000000 1.0
C      1  0.6081220000000  0.5152220000000  0.5146680000000 1.0
C      1  0.6081210000000  0.5152200000000  0.4853240000000 1.0
C      1  0.5301330000000  0.5642650000000  0.5681310000000 1.0
C      1  0.5301280000000  0.5642590000000  0.4318620000000 1.0
C      1  0.4429410000000  0.4637270000000  0.4247770000000 1.0
C      1  0.4429460000000  0.4637330000000  0.5752300000000 1.0
C      1  0.5086790000000  0.4159130000000  0.5642390000000 1.0
C      1  0.5086750000000  0.4159080000000  0.4357670000000 1.0
C      1  0.4014370000000  0.4597630000000  0.4852070000000 1.0
C      1  0.4014380000000  0.4597640000000  0.5148020000000 1.0
C      1  0.4878620000000  0.4591190000000  0.4393090000000 1.0
C      1  0.4878650000000  0.4591240000000  0.5606950000000 1.0
C      1  0.4471620000000  0.5130830000000  0.4158340000000 1.0
C      1  0.4471670000000  0.5130890000000  0.5841680000000 1.0
C      1  0.4808440000000  0.5649370000000  0.5151510000000 1.0
C      1  0.4808430000000  0.5649360000000  0.4848450000000 1.0
C      1  0.5307940000000  0.4141160000000  0.4683510000000 1.0
C      1  0.5307960000000  0.4141180000000  0.5316530000000 1.0
C      1  0.4214250000000  0.5148060000000  0.4276410000000 1.0
C      1  0.4214290000000  0.5148120000000  0.5723630000000 1.0
C      1  0.5597520000000  0.5116140000000  0.5263480000000 1.0
C      1  0.5597500000000  0.5116120000000  0.4736470000000 1.0
C      1  0.5308330000000  0.4003270000000  0.4436540000000 1.0
C      1  0.5308370000000  0.4003310000000  0.5563520000000 1.0
C      1  0.4635780000000  0.5862540000000  0.5296440000000 1.0
C      1  0.4635770000000  0.5862520000000  0.4703520000000 1.0
C      1  0.5843430000000  0.4968060000000  0.4842470000000 1.0
C      1  0.5843440000000  0.4968070000000  0.5157480000000 1.0
C      1  0.5119580000000  0.4001380000000  0.4859000000000 1.0
C      1  0.5119590000000  0.4001390000000  0.5141070000000 1.0
C      1  0.4998260000000  0.6052220000000  0.4451700000000 1.0
C      1  0.4998300000000  0.6052260000000  0.5548210000000 1.0
C      1  0.4363900000000  0.5324770000000  0.5158450000000 1.0
C      1  0.4363890000000  0.5324760000000  0.4841570000000 1.0
C      1  0.4844060000000  0.4851870000000  0.5775740000000 1.0
C      1  0.4844010000000  0.4851810000000  0.4224280000000 1.0
C      1  0.5283660000000  0.4883960000000  0.4471600000000 1.0
C      1  0.5283690000000  0.4884000000000  0.5528390000000 1.0
C      1  0.5338850000000  0.5358300000000  0.4439400000000 1.0
C      1  0.5338890000000  0.5358340000000  0.5560550000000 1.0
C      1  0.4345650000000  0.4194830000000  0.5371860000000 1.0
C      1  0.4345620000000  0.4194800000000  0.4628250000000 1.0
C      1  0.4237670000000  0.5567010000000  0.4683960000000 1.0
C      1  0.4237690000000  0.5567040000000  0.5316040000000 1.0
C      1  0.4016940000000  0.4886390000000  0.4858000000000 1.0
C      1  0.4016950000000  0.4886410000000  0.5142070000000 1.0
C      1  0.5208060000000  0.4663250000000  0.4849200000000 1.0
C      1  0.5208070000000  0.4663260000000  0.5150810000000 1.0
C      1  0.5299050000000  0.5870500000000  0.4860290000000 1.0
C      1  0.5299060000000  0.5870510000000  0.5139620000000 1.0
C      1  0.4571580000000  0.4200820000000  0.5562410000000 1.0
C      1  0.4571540000000  0.4200770000000  0.4437680000000 1.0
C      1  0.5707920000000  0.5028610000000  0.5732280000000 1.0
C      1  0.5707870000000  0.5028550000000  0.4267670000000 1.0
C      1  0.4391080000000  0.4021600000000  0.5153990000000 1.0
C      1  0.4391070000000  0.4021580000000  0.4846130000000 1.0
C      1  0.5313200000000  0.4945210000000  0.4748040000000 1.0
C      1  0.5313210000000  0.4945230000000  0.5251940000000 1.0
C      1  0.4743710000000  0.4459750000000  0.4858010000000 1.0
C      1  0.4743720000000  0.4459770000000  0.5142050000000 1.0
C      1  0.5244080000000  0.5082910000000  0.4032560000000 1.0
C      1  0.5244140000000  0.5082990000000  0.5967420000000 1.0
C      1  0.5136950000000  0.4447730000000  0.5713550000000 1.0
C      1  0.5136900000000  0.4447670000000  0.4286480000000 1.0
C      1  0.6078640000000  0.5440010000000  0.5149220000000 1.0
C      1  0.6078630000000  0.5440000000000  0.4850680000000 1.0
C      1  0.5139810000000  0.5579790000000  0.4075750000000 1.0
C      1  0.5139860000000  0.5579870000000  0.5924190000000 1.0
C      1  0.5252330000000  0.5410360000000  0.5275900000000 1.0
C      1  0.5252310000000  0.5410330000000  0.4724050000000 1.0
C      1  0.5784650000000  0.5824540000000  0.4856730000000 1.0
C      1  0.5784650000000  0.5824550000000  0.5143150000000 1.0
C      1  0.5121750000000  0.5170760000000  0.5162130000000 1.0
C      1  0.5121740000000  0.5170750000000  0.4837850000000 1.0
END
