TITL C-62927-3055-1 -0.053786989871352 125000 -386.618799245579 0 0 54 (C1) n - 1
REM
REM in /rds/project/t2_vol4/rds-t2-cs072/BORA/CARBON/from-Arr/AIRSS/Generating-Clusters/GAP-ML-2020/Higher-Symm/SD-CG/HFTN-CG
REM
REM
REM
REM
REM
REM ./C.cell (b20cbc046b6831c77cfcea5457e17084)
REM AIRSS Version 0.9.1 bugfix July 2018 build 013d7b7c2542+ Fri, 06 Jul 2018 19:26:36 +0100
REM compiler GCC version 9.3.0
REM options -cpp -mtune=generic -march=x86-64 -g -O0
REM seed 1872264775 -1838384827 -1217241228 908512234 -511486444 -153679022 -978710710 1616467557 -1543381947 804835544 704226678 -2018658109 971186242 -1145855806 170997786 1148417791 -1766022083 262227934 1142412996 -1275422689 1371445592 973970527 451622429 351233009 -1137797664 135787314 1522310063 -1424608704 -965530899 -376254547 -1159307434 -1865738185 1208892109
REM
CELL 1.54180   50.00000   50.00000   50.00000   90.00000   90.00000   90.00000
LATT -1
SFAC C  
C      1  0.4835680000000  0.4816750000000  0.4492510000000 1.0
C      1  0.4810150000000  0.4449670000000  0.4827030000000 1.0
C      1  0.4471310000000  0.4814660000000  0.4827200000000 1.0
C      1  0.5191590000000  0.4810430000000  0.5547040000000 1.0
C      1  0.5217260000000  0.5194920000000  0.4445760000000 1.0
C      1  0.4814210000000  0.5186180000000  0.5549490000000 1.0
C      1  0.5189110000000  0.4448310000000  0.5206530000000 1.0
C      1  0.5190230000000  0.5525150000000  0.4812380000000 1.0
C      1  0.4814670000000  0.5521400000000  0.5188530000000 1.0
C      1  0.5525210000000  0.4813000000000  0.5182650000000 1.0
C      1  0.5553190000000  0.5192930000000  0.4810770000000 1.0
C      1  0.4449260000000  0.5188210000000  0.5213680000000 1.0
C      1  0.4682260000000  0.5342980000000  0.4343320000000 1.0
C      1  0.4740110000000  0.5621820000000  0.4739170000000 1.0
C      1  0.4345030000000  0.5344170000000  0.4678250000000 1.0
C      1  0.5339370000000  0.5333200000000  0.5675950000000 1.0
C      1  0.5286340000000  0.4736700000000  0.4379900000000 1.0
C      1  0.4734450000000  0.4728670000000  0.5632580000000 1.0
C      1  0.5335320000000  0.5669720000000  0.5335400000000 1.0
C      1  0.5349550000000  0.4345590000000  0.4666090000000 1.0
C      1  0.4730870000000  0.4376180000000  0.5285020000000 1.0
C      1  0.5676260000000  0.5332520000000  0.5336230000000 1.0
C      1  0.5635970000000  0.4736220000000  0.4731480000000 1.0
C      1  0.4383240000000  0.4728710000000  0.5283760000000 1.0
C      1  0.5187930000000  0.5505040000000  0.5510000000000 1.0
C      1  0.5509260000000  0.5505240000000  0.5187010000000 1.0
C      1  0.5512420000000  0.5183090000000  0.5509960000000 1.0
C      1  0.4841520000000  0.5505740000000  0.4498570000000 1.0
C      1  0.4842170000000  0.4492470000000  0.5519840000000 1.0
C      1  0.5185810000000  0.4499360000000  0.4505850000000 1.0
C      1  0.4499870000000  0.5504990000000  0.4840060000000 1.0
C      1  0.4496600000000  0.4493330000000  0.5173960000000 1.0
C      1  0.5509940000000  0.4498720000000  0.4830420000000 1.0
C      1  0.4508110000000  0.5191010000000  0.4504750000000 1.0
C      1  0.4497780000000  0.4836630000000  0.5520470000000 1.0
C      1  0.5525680000000  0.4847220000000  0.4492560000000 1.0
C      1  0.5118030000000  0.4545520000000  0.5465600000000 1.0
C      1  0.5426990000000  0.4552650000000  0.5098550000000 1.0
C      1  0.5427060000000  0.4925700000000  0.5427120000000 1.0
C      1  0.4918170000000  0.4555220000000  0.4589550000000 1.0
C      1  0.4929140000000  0.5421510000000  0.5430930000000 1.0
C      1  0.5111650000000  0.5432980000000  0.4548100000000 1.0
C      1  0.4551890000000  0.4549030000000  0.4898750000000 1.0
C      1  0.4550540000000  0.5428100000000  0.5109310000000 1.0
C      1  0.5432280000000  0.5425460000000  0.4926900000000 1.0
C      1  0.4590350000000  0.4930170000000  0.4590230000000 1.0
C      1  0.4548430000000  0.5113540000000  0.5470620000000 1.0
C      1  0.5477020000000  0.5123550000000  0.4542300000000 1.0
C      1  0.5078010000000  0.4943120000000  0.4377280000000 1.0
C      1  0.4943940000000  0.4938490000000  0.5639570000000 1.0
C      1  0.4945470000000  0.5616970000000  0.4944280000000 1.0
C      1  0.5633510000000  0.4942200000000  0.4941560000000 1.0
C      1  0.4939280000000  0.4358510000000  0.5076660000000 1.0
C      1  0.4370820000000  0.4939020000000  0.5076210000000 1.0
END
