TITL C-62919-3108-2 0.000446014152104515 125000 -53.2621429737997 0 0 9 (C1) n - 1
REM
REM in /rds/project/t2_vol4/rds-t2-cs072/BORA/CARBON/from-Arr/AIRSS/Generating-Clusters/GAP-ML-2020/Higher-Symm/SD-CG/HFTN-CG
REM
REM
REM
REM
REM
REM ./C.cell (b20cbc046b6831c77cfcea5457e17084)
REM AIRSS Version 0.9.1 bugfix July 2018 build 013d7b7c2542+ Fri, 06 Jul 2018 19:26:36 +0100
REM compiler GCC version 9.3.0
REM options -cpp -mtune=generic -march=x86-64 -g -O0
REM seed 1743606130 2112772737 915433464 188110121 -2023999225 618557567 1045184333 -1310779587 1530526298 1653578236 1891193751 -1051820463 484103789 334355888 1164782828 -1508143391 -1160017134 1523885583 -1264064913 -2080105743 -74507190 -1254263996 -524205036 1032995903 25029531 -1306804484 -1503872300 -2134745541 -359791020 -456454290 1231149887 1380273158 -1795286088
REM
CELL 1.54180   50.00000   50.00000   50.00000   90.00000   90.00000   90.00000
LATT -1
SFAC C  
C      1  0.5065080000000  0.4875720000000  0.4891790000000 1.0
C      1  0.5088110000000  0.5123110000000  0.5045180000000 1.0
C      1  0.4619110000000  0.4682470000000  0.4986560000000 1.0
C      1  0.5097730000000  0.5068010000000  0.5320040000000 1.0
C      1  0.5058980000000  0.5343830000000  0.4882260000000 1.0
C      1  0.5127840000000  0.4665110000000  0.4744210000000 1.0
C      1  0.5108300000000  0.5023490000000  0.5564710000000 1.0
C      1  0.4998210000000  0.5522620000000  0.4720460000000 1.0
C      1  0.4836640000000  0.4695630000000  0.4844790000000 1.0
END
