TITL C-62909-3195-8 -0.17163311623612 125000 -423.825533805655 0 0 64 (C2h) n - 1
REM
REM in /rds/project/t2_vol4/rds-t2-cs072/BORA/CARBON/from-Arr/AIRSS/Generating-Clusters/GAP-ML-2020/Higher-Symm/SD-CG/HFTN-CG
REM
REM
REM
REM
REM
REM ./C.cell (b20cbc046b6831c77cfcea5457e17084)
REM AIRSS Version 0.9.1 bugfix July 2018 build 013d7b7c2542+ Fri, 06 Jul 2018 19:26:36 +0100
REM compiler GCC version 9.3.0
REM options -cpp -mtune=generic -march=x86-64 -g -O0
REM seed 1474112071 -985558954 -994132525 -1752241049 -62416257 -740821239 -1937510921 -1213421870 -429506969 2042677545 2058761142 -792588035 -1363917415 -722508177 1129262068 -407877721 -240364276 551733519 -24738413 208168694 564675309 -2066073197 2087105286 2022664198 1097369784 -154194964 813188742 -2035728172 205455142 -1069050138 -640431693 -1563893415 2105338353
REM
CELL 1.54180   50.00000   50.00000   50.00000   90.00000   90.00000   90.00000
LATT -1
SFAC C  
C      1  0.5348410000000  0.5647650000000  0.4654560000000 1.0
C      1  0.4650360000000  0.5647750000000  0.5344010000000 1.0
C      1  0.5349640000000  0.4352250000000  0.4655990000000 1.0
C      1  0.4651590000000  0.4352350000000  0.5345440000000 1.0
C      1  0.5470270000000  0.5137770000000  0.5070840000000 1.0
C      1  0.4529460000000  0.5136720000000  0.4928850000000 1.0
C      1  0.5470540000000  0.4863280000000  0.5071150000000 1.0
C      1  0.4529730000000  0.4862230000000  0.4929160000000 1.0
C      1  0.4392630000000  0.4678500000000  0.5582980000000 1.0
C      1  0.5607980000000  0.4678370000000  0.4417730000000 1.0
C      1  0.4392020000000  0.5321630000000  0.5582270000000 1.0
C      1  0.5607370000000  0.5321500000000  0.4417020000000 1.0
C      1  0.5256950000000  0.4532320000000  0.5382250000000 1.0
C      1  0.4743940000000  0.4530990000000  0.4618790000000 1.0
C      1  0.5256060000000  0.5469010000000  0.5381210000000 1.0
C      1  0.4743050000000  0.5467680000000  0.4617750000000 1.0
C      1  0.5037260000000  0.5381500000000  0.5559050000000 1.0
C      1  0.4962020000000  0.5380190000000  0.4440110000000 1.0
C      1  0.5037980000000  0.4619810000000  0.5559890000000 1.0
C      1  0.4962740000000  0.4618500000000  0.4440950000000 1.0
C      1  0.4398290000000  0.4639800000000  0.5065710000000 1.0
C      1  0.5602400000000  0.4640800000000  0.4935080000000 1.0
C      1  0.4397600000000  0.5359200000000  0.5064920000000 1.0
C      1  0.5601710000000  0.5360200000000  0.4934290000000 1.0
C      1  0.5100080000000  0.4714000000000  0.4828530000000 1.0
C      1  0.4900460000000  0.4714190000000  0.5172100000000 1.0
C      1  0.5099540000000  0.5285810000000  0.4827900000000 1.0
C      1  0.4899920000000  0.5286000000000  0.5171470000000 1.0
C      1  0.4897050000000  0.5624940000000  0.5481220000000 1.0
C      1  0.5101770000000  0.5624070000000  0.4517400000000 1.0
C      1  0.4898230000000  0.4375930000000  0.5482600000000 1.0
C      1  0.5102950000000  0.4375060000000  0.4518780000000 1.0
C      1  0.5552690000000  0.5600470000000  0.5055750000000 1.0
C      1  0.4446170000000  0.5599290000000  0.4942930000000 1.0
C      1  0.5553830000000  0.4400710000000  0.5057070000000 1.0
C      1  0.4447310000000  0.4399530000000  0.4944250000000 1.0
C      1  0.5123150000000  0.4177880000000  0.5073170000000 1.0
C      1  0.4878410000000  0.4177490000000  0.4928650000000 1.0
C      1  0.5121590000000  0.5822510000000  0.5071350000000 1.0
C      1  0.4876850000000  0.5822120000000  0.4926830000000 1.0
C      1  0.5404100000000  0.4856670000000  0.4425680000000 1.0
C      1  0.4596170000000  0.4857170000000  0.5574640000000 1.0
C      1  0.5403830000000  0.5142830000000  0.4425360000000 1.0
C      1  0.4595900000000  0.5143330000000  0.5574320000000 1.0
C      1  0.4879070000000  0.4847320000000  0.5458510000000 1.0
C      1  0.5121220000000  0.4846530000000  0.4541830000000 1.0
C      1  0.4878780000000  0.5153470000000  0.5458170000000 1.0
C      1  0.5120930000000  0.5152680000000  0.4541490000000 1.0
C      1  0.5360760000000  0.4248860000000  0.4929610000000 1.0
C      1  0.4640670000000  0.4248330000000  0.5072050000000 1.0
C      1  0.5359330000000  0.5751670000000  0.4927950000000 1.0
C      1  0.4639240000000  0.5751140000000  0.5070390000000 1.0
C      1  0.5547140000000  0.4558560000000  0.4654580000000 1.0
C      1  0.4453700000000  0.4558290000000  0.5346400000000 1.0
C      1  0.5546300000000  0.5441710000000  0.4653600000000 1.0
C      1  0.4452860000000  0.5441440000000  0.5345420000000 1.0
C      1  0.5203410000000  0.4720760000000  0.5115790000000 1.0
C      1  0.4797120000000  0.4720120000000  0.4884820000000 1.0
C      1  0.5202880000000  0.5279880000000  0.5115180000000 1.0
C      1  0.4796590000000  0.5279240000000  0.4884210000000 1.0
C      1  0.5125440000000  0.5724140000000  0.5340620000000 1.0
C      1  0.4873180000000  0.5723150000000  0.4657780000000 1.0
C      1  0.5126820000000  0.4276850000000  0.5342220000000 1.0
C      1  0.4874560000000  0.4275860000000  0.4659380000000 1.0
END
