TITL C-62913-3167-4 -76.4500940992154 125000 -779.424279806084 0 0 112 (C1) n - 1
REM
REM in /rds/project/t2_vol4/rds-t2-cs072/BORA/CARBON/from-Arr/AIRSS/Generating-Clusters/GAP-ML-2020/Higher-Symm/SD-CG/HFTN-CG
REM
REM
REM
REM
REM
REM ./C.cell (b20cbc046b6831c77cfcea5457e17084)
REM AIRSS Version 0.9.1 bugfix July 2018 build 013d7b7c2542+ Fri, 06 Jul 2018 19:26:36 +0100
REM compiler GCC version 9.3.0
REM options -cpp -mtune=generic -march=x86-64 -g -O0
REM seed -585390800 479535299 672708781 -785716580 -20282255 924330593 -168549405 1071774967 -1346509985 1404648285 1672735654 1142167341 -193374361 357424315 -1215286638 2139189482 2104116070 1328151059 1521868667 1207256512 -685312888 -513242931 -1240616300 2146818569 720946010 530657964 -1158349525 1495348759 755595904 -2907311 -107598498 -1789275894 709259939
REM
CELL 1.54180   50.00000   50.00000   50.00000   90.00000   90.00000   90.00000
LATT -1
SFAC C  
C      1  0.5049330000000  0.4062830000000  0.4544260000000 1.0
C      1  0.5027350000000  0.5149450000000  0.3972970000000 1.0
C      1  0.5033340000000  0.6026910000000  0.4818670000000 1.0
C      1  0.5026330000000  0.5485400000000  0.5909340000000 1.0
C      1  0.5034390000000  0.4263870000000  0.5746320000000 1.0
C      1  0.5426480000000  0.4622540000000  0.4281830000000 1.0
C      1  0.5413310000000  0.5576080000000  0.4421040000000 1.0
C      1  0.5413680000000  0.5738740000000  0.5365180000000 1.0
C      1  0.5410990000000  0.4885070000000  0.5810770000000 1.0
C      1  0.5427960000000  0.4190880000000  0.5138100000000 1.0
C      1  0.4699500000000  0.4806700000000  0.5460130000000 1.0
C      1  0.4673360000000  0.4730160000000  0.5008200000000 1.0
C      1  0.4703450000000  0.4868520000000  0.4537000000000 1.0
C      1  0.4662780000000  0.5205920000000  0.4858790000000 1.0
C      1  0.4687040000000  0.5369300000000  0.5307690000000 1.0
C      1  0.4210650000000  0.4897780000000  0.5257860000000 1.0
C      1  0.4350730000000  0.4728140000000  0.5052960000000 1.0
C      1  0.4239950000000  0.4878800000000  0.4815840000000 1.0
C      1  0.4346000000000  0.5179820000000  0.4797260000000 1.0
C      1  0.4181360000000  0.5294530000000  0.5012680000000 1.0
C      1  0.4340180000000  0.4441530000000  0.5122280000000 1.0
C      1  0.4319500000000  0.4713060000000  0.4586380000000 1.0
C      1  0.4333490000000  0.5358600000000  0.4569470000000 1.0
C      1  0.4292980000000  0.5499340000000  0.5162250000000 1.0
C      1  0.4303810000000  0.4943380000000  0.5519970000000 1.0
C      1  0.5151680000000  0.5518800000000  0.4288650000000 1.0
C      1  0.5157550000000  0.5855420000000  0.5267460000000 1.0
C      1  0.5154660000000  0.5012000000000  0.5895820000000 1.0
C      1  0.5166360000000  0.4150690000000  0.5275740000000 1.0
C      1  0.5171450000000  0.4467100000000  0.4288750000000 1.0
C      1  0.4781130000000  0.4658310000000  0.4737210000000 1.0
C      1  0.4795700000000  0.5135880000000  0.4600680000000 1.0
C      1  0.4763220000000  0.5439170000000  0.5024630000000 1.0
C      1  0.4779130000000  0.5076620000000  0.5315260000000 1.0
C      1  0.4801760000000  0.4618900000000  0.5259690000000 1.0
C      1  0.4720450000000  0.4409250000000  0.4533560000000 1.0
C      1  0.4716690000000  0.5265660000000  0.4324280000000 1.0
C      1  0.4710270000000  0.5755360000000  0.5037000000000 1.0
C      1  0.4674320000000  0.5193900000000  0.5767020000000 1.0
C      1  0.4721840000000  0.4357490000000  0.5397720000000 1.0
C      1  0.4817870000000  0.5866540000000  0.4783540000000 1.0
C      1  0.4808160000000  0.5459400000000  0.5746110000000 1.0
C      1  0.4831660000000  0.4428330000000  0.5672100000000 1.0
C      1  0.4830840000000  0.4167010000000  0.4666650000000 1.0
C      1  0.4829790000000  0.5058350000000  0.4136060000000 1.0
C      1  0.5547920000000  0.4674820000000  0.5654260000000 1.0
C      1  0.5561640000000  0.4280830000000  0.4894000000000 1.0
C      1  0.5552260000000  0.4887430000000  0.4289400000000 1.0
C      1  0.5547190000000  0.5651010000000  0.4670210000000 1.0
C      1  0.5544280000000  0.5523050000000  0.5514580000000 1.0
C      1  0.5600610000000  0.4534490000000  0.4495860000000 1.0
C      1  0.5586240000000  0.5344290000000  0.4402140000000 1.0
C      1  0.5588330000000  0.5685420000000  0.5139900000000 1.0
C      1  0.5583390000000  0.5083900000000  0.5690590000000 1.0
C      1  0.5594690000000  0.4371560000000  0.5293080000000 1.0
C      1  0.5076210000000  0.5121340000000  0.4631120000000 1.0
C      1  0.5059470000000  0.5406570000000  0.5003660000000 1.0
C      1  0.5057370000000  0.5104220000000  0.5353760000000 1.0
C      1  0.5083460000000  0.4660110000000  0.5240610000000 1.0
C      1  0.5069400000000  0.4674350000000  0.4771270000000 1.0
C      1  0.5228910000000  0.5932570000000  0.4989890000000 1.0
C      1  0.5223700000000  0.5298680000000  0.5878640000000 1.0
C      1  0.5230710000000  0.4251160000000  0.5548440000000 1.0
C      1  0.5244720000000  0.4241990000000  0.4466800000000 1.0
C      1  0.5220010000000  0.5279450000000  0.4127410000000 1.0
C      1  0.4714510000000  0.5688550000000  0.4569990000000 1.0
C      1  0.4765190000000  0.5583800000000  0.5482640000000 1.0
C      1  0.4768920000000  0.4711670000000  0.5722800000000 1.0
C      1  0.4727070000000  0.4177440000000  0.4943860000000 1.0
C      1  0.4769140000000  0.4801410000000  0.4261650000000 1.0
C      1  0.5494630000000  0.4305580000000  0.4621480000000 1.0
C      1  0.5476320000000  0.5152670000000  0.4229840000000 1.0
C      1  0.5478930000000  0.5792920000000  0.4903380000000 1.0
C      1  0.5473500000000  0.5340720000000  0.5717590000000 1.0
C      1  0.5482840000000  0.4422190000000  0.5545210000000 1.0
C      1  0.4468580000000  0.4309840000000  0.4906960000000 1.0
C      1  0.4450840000000  0.4890830000000  0.4401140000000 1.0
C      1  0.4457880000000  0.5599270000000  0.4671010000000 1.0
C      1  0.4424440000000  0.5412890000000  0.5406710000000 1.0
C      1  0.4446400000000  0.4699210000000  0.5546300000000 1.0
C      1  0.5481200000000  0.4742690000000  0.5012930000000 1.0
C      1  0.5479510000000  0.4912610000000  0.4763610000000 1.0
C      1  0.5474180000000  0.5207520000000  0.4847880000000 1.0
C      1  0.5471830000000  0.5218720000000  0.5150930000000 1.0
C      1  0.5478300000000  0.4931270000000  0.5254590000000 1.0
C      1  0.4453880000000  0.4452730000000  0.4644830000000 1.0
C      1  0.4435220000000  0.5191410000000  0.4368010000000 1.0
C      1  0.4445280000000  0.5658890000000  0.4968420000000 1.0
C      1  0.4422070000000  0.5193390000000  0.5611370000000 1.0
C      1  0.4438850000000  0.4441660000000  0.5390400000000 1.0
C      1  0.5195690000000  0.5313810000000  0.4782670000000 1.0
C      1  0.5190340000000  0.5307370000000  0.5226630000000 1.0
C      1  0.5201680000000  0.4875000000000  0.5363300000000 1.0
C      1  0.5204820000000  0.4611640000000  0.5000520000000 1.0
C      1  0.5202440000000  0.4879170000000  0.4645170000000 1.0
C      1  0.5893750000000  0.4761530000000  0.5025270000000 1.0
C      1  0.5894030000000  0.4913560000000  0.4779490000000 1.0
C      1  0.5889350000000  0.5193870000000  0.4847380000000 1.0
C      1  0.5887590000000  0.5215440000000  0.5135150000000 1.0
C      1  0.5890380000000  0.4948450000000  0.5245270000000 1.0
C      1  0.4858390000000  0.5540360000000  0.4363990000000 1.0
C      1  0.4872340000000  0.5787940000000  0.5307330000000 1.0
C      1  0.4860090000000  0.4952150000000  0.5854010000000 1.0
C      1  0.4870940000000  0.4168630000000  0.5200450000000 1.0
C      1  0.4882440000000  0.4538320000000  0.4291610000000 1.0
C      1  0.5679350000000  0.5366990000000  0.4689830000000 1.0
C      1  0.5677260000000  0.5417680000000  0.5251410000000 1.0
C      1  0.5681800000000  0.4894830000000  0.5474990000000 1.0
C      1  0.5688120000000  0.4524520000000  0.5048590000000 1.0
C      1  0.5686930000000  0.4817270000000  0.4564110000000 1.0
C      1  0.4082630000000  0.5037590000000  0.5051160000000 1.0
C      1  0.4746100000000  0.5002180000000  0.5040830000000 1.0
END
