TITL C-62908-3065-6 32.2915019034438 125000 -468.337820878012 0 0 69 (C1) n - 1
REM
REM in /rds/project/t2_vol4/rds-t2-cs072/BORA/CARBON/from-Arr/AIRSS/Generating-Clusters/GAP-ML-2020/Higher-Symm/SD-CG/HFTN-CG
REM
REM
REM
REM
REM
REM ./C.cell (b20cbc046b6831c77cfcea5457e17084)
REM AIRSS Version 0.9.1 bugfix July 2018 build 013d7b7c2542+ Fri, 06 Jul 2018 19:26:36 +0100
REM compiler GCC version 9.3.0
REM options -cpp -mtune=generic -march=x86-64 -g -O0
REM seed 321248222 -1730542744 1825310877 1543637134 2067337456 528718119 850756902 40152171 -1957824109 1855067706 1227828013 -362783645 -1401324398 -1542585878 -520551979 -294002889 -175896951 -172532873 -1965803081 -1621044100 -59468270 -224034974 1427414755 907249708 1011473918 -1098562876 1542543548 2091176849 -1207932956 243462285 181728211 -1096356199 2139004934
REM
CELL 1.54180   50.00000   50.00000   50.00000   90.00000   90.00000   90.00000
LATT -1
SFAC C  
C      1  0.5600450000000  0.5274070000000  0.4572360000000 1.0
C      1  0.5581670000000  0.5192480000000  0.5308170000000 1.0
C      1  0.5617290000000  0.4491410000000  0.5053330000000 1.0
C      1  0.4575910000000  0.4902700000000  0.4848810000000 1.0
C      1  0.4574290000000  0.5182320000000  0.4996990000000 1.0
C      1  0.4579230000000  0.4912210000000  0.5161050000000 1.0
C      1  0.4543860000000  0.4434170000000  0.5020210000000 1.0
C      1  0.4532790000000  0.5254740000000  0.4499550000000 1.0
C      1  0.4545700000000  0.5301290000000  0.5480720000000 1.0
C      1  0.4198550000000  0.4968440000000  0.5399210000000 1.0
C      1  0.4195080000000  0.4660140000000  0.4779470000000 1.0
C      1  0.4186100000000  0.5338570000000  0.4831350000000 1.0
C      1  0.5271560000000  0.5601860000000  0.4589430000000 1.0
C      1  0.5315070000000  0.5034740000000  0.5665790000000 1.0
C      1  0.5320860000000  0.4409710000000  0.4717870000000 1.0
C      1  0.4928310000000  0.5341390000000  0.4395080000000 1.0
C      1  0.4943040000000  0.5336500000000  0.5596030000000 1.0
C      1  0.4940940000000  0.4315960000000  0.4998320000000 1.0
C      1  0.5211640000000  0.4297810000000  0.4970440000000 1.0
C      1  0.5196690000000  0.5389820000000  0.4391250000000 1.0
C      1  0.5216910000000  0.5304610000000  0.5601960000000 1.0
C      1  0.4866910000000  0.4937610000000  0.5805090000000 1.0
C      1  0.4878940000000  0.4346910000000  0.4544450000000 1.0
C      1  0.4825690000000  0.5731300000000  0.4651200000000 1.0
C      1  0.5556460000000  0.4564830000000  0.4776160000000 1.0
C      1  0.5518200000000  0.5520470000000  0.4696770000000 1.0
C      1  0.5538690000000  0.4970410000000  0.5493270000000 1.0
C      1  0.5403350000000  0.5178860000000  0.4390310000000 1.0
C      1  0.5354090000000  0.5381900000000  0.5354430000000 1.0
C      1  0.5384200000000  0.4363680000000  0.5185350000000 1.0
C      1  0.4757460000000  0.4453080000000  0.4779290000000 1.0
C      1  0.4734480000000  0.5463670000000  0.4628720000000 1.0
C      1  0.4752650000000  0.5083890000000  0.5588170000000 1.0
C      1  0.5387480000000  0.4887730000000  0.4426710000000 1.0
C      1  0.5357940000000  0.5603650000000  0.5159140000000 1.0
C      1  0.5346260000000  0.4501540000000  0.5437180000000 1.0
C      1  0.4296260000000  0.4565640000000  0.5033080000000 1.0
C      1  0.4288230000000  0.5173270000000  0.4615920000000 1.0
C      1  0.4297040000000  0.5237600000000  0.5360050000000 1.0
C      1  0.5064450000000  0.4829740000000  0.4837990000000 1.0
C      1  0.5071320000000  0.5274000000000  0.4927640000000 1.0
C      1  0.5082780000000  0.4947000000000  0.5264120000000 1.0
C      1  0.5104820000000  0.5703330000000  0.5059390000000 1.0
C      1  0.5103700000000  0.4576080000000  0.5563560000000 1.0
C      1  0.5138270000000  0.4738590000000  0.4386510000000 1.0
C      1  0.5555920000000  0.5506440000000  0.4973900000000 1.0
C      1  0.5581120000000  0.4692570000000  0.5440770000000 1.0
C      1  0.5581290000000  0.4822540000000  0.4650980000000 1.0
C      1  0.4313150000000  0.5304260000000  0.5065240000000 1.0
C      1  0.4321240000000  0.4788700000000  0.5240560000000 1.0
C      1  0.4316670000000  0.4888490000000  0.4705320000000 1.0
C      1  0.5674160000000  0.5082300000000  0.4768910000000 1.0
C      1  0.5665010000000  0.5238750000000  0.5032270000000 1.0
C      1  0.5769590000000  0.4595570000000  0.5255850000000 1.0
C      1  0.5150270000000  0.5206050000000  0.5191140000000 1.0
C      1  0.5173700000000  0.4762230000000  0.5076020000000 1.0
C      1  0.5142040000000  0.5085500000000  0.4756770000000 1.0
C      1  0.4795440000000  0.4754800000000  0.4718980000000 1.0
C      1  0.4782470000000  0.5380080000000  0.4926150000000 1.0
C      1  0.4797120000000  0.4876240000000  0.5357780000000 1.0
C      1  0.4767500000000  0.4404410000000  0.5210020000000 1.0
C      1  0.4759800000000  0.5109040000000  0.4376930000000 1.0
C      1  0.4770810000000  0.5478970000000  0.5408980000000 1.0
C      1  0.5080250000000  0.5737240000000  0.4763280000000 1.0
C      1  0.5111420000000  0.4827290000000  0.5731830000000 1.0
C      1  0.5131680000000  0.4467780000000  0.4505020000000 1.0
C      1  0.4867830000000  0.4850040000000  0.4429930000000 1.0
C      1  0.4851790000000  0.5584180000000  0.5155100000000 1.0
C      1  0.4854130000000  0.4576900000000  0.5416410000000 1.0
END
