TITL C-62924-3133-9 -195.007953332494 125000 -1367.59138004933 0 0 194 (Ci) n - 1
REM
REM in /rds/project/t2_vol4/rds-t2-cs072/BORA/CARBON/from-Arr/AIRSS/Generating-Clusters/GAP-ML-2020/Higher-Symm/SD-CG/HFTN-CG
REM
REM
REM
REM
REM
REM ./C.cell (b20cbc046b6831c77cfcea5457e17084)
REM AIRSS Version 0.9.1 bugfix July 2018 build 013d7b7c2542+ Fri, 06 Jul 2018 19:26:36 +0100
REM compiler GCC version 9.3.0
REM options -cpp -mtune=generic -march=x86-64 -g -O0
REM seed -328759487 1576229852 -1459685579 984048263 -1739242182 658814365 -292488281 -303799715 1431251758 -75330821 -1307800165 100406831 -964339864 -1009670750 1525167164 107214381 1318609042 1900115784 403496847 -661290062 1645457573 1279615590 1889669426 -381427601 596011357 414838663 216191447 873453474 1477249799 -86689457 1811291576 -1608306715 2136544601
REM
CELL 1.54180   50.00000   50.00000   50.00000   90.00000   90.00000   90.00000
LATT -1
SFAC C  
C      1  0.5366790000000  0.4579450000000  0.4070040000000 1.0
C      1  0.5619860000000  0.4578600000000  0.5786750000000 1.0
C      1  0.4007040000000  0.4581810000000  0.5140030000000 1.0
C      1  0.4626020000000  0.5420870000000  0.4071430000000 1.0
C      1  0.4385140000000  0.5416430000000  0.5784770000000 1.0
C      1  0.5992680000000  0.5411790000000  0.5142560000000 1.0
C      1  0.4631510000000  0.5413300000000  0.5927520000000 1.0
C      1  0.4378430000000  0.5414140000000  0.4210800000000 1.0
C      1  0.5991260000000  0.5410930000000  0.4857520000000 1.0
C      1  0.5372270000000  0.4571870000000  0.5926130000000 1.0
C      1  0.5613160000000  0.4576310000000  0.4212780000000 1.0
C      1  0.4005620000000  0.4580960000000  0.4855000000000 1.0
C      1  0.5625860000000  0.4952390000000  0.5133400000000 1.0
C      1  0.4573510000000  0.4958670000000  0.5469370000000 1.0
C      1  0.4802060000000  0.4957050000000  0.4390920000000 1.0
C      1  0.4374800000000  0.5042540000000  0.5132520000000 1.0
C      1  0.5428400000000  0.5038220000000  0.5472690000000 1.0
C      1  0.5193340000000  0.5038930000000  0.4392850000000 1.0
C      1  0.4372430000000  0.5040350000000  0.4864150000000 1.0
C      1  0.5424780000000  0.5034080000000  0.4528190000000 1.0
C      1  0.5196230000000  0.5035690000000  0.5606630000000 1.0
C      1  0.5623490000000  0.4950200000000  0.4865040000000 1.0
C      1  0.4569890000000  0.4954530000000  0.4524870000000 1.0
C      1  0.4804950000000  0.4953820000000  0.5604710000000 1.0
C      1  0.4510510000000  0.5476770000000  0.4478160000000 1.0
C      1  0.5693950000000  0.5481600000000  0.4845180000000 1.0
C      1  0.4792430000000  0.5484910000000  0.5677880000000 1.0
C      1  0.5475160000000  0.4501690000000  0.4476170000000 1.0
C      1  0.4302930000000  0.4510840000000  0.4840700000000 1.0
C      1  0.5212880000000  0.4504340000000  0.5674410000000 1.0
C      1  0.5487790000000  0.4515970000000  0.5519390000000 1.0
C      1  0.4304350000000  0.4511140000000  0.5152380000000 1.0
C      1  0.5205860000000  0.4507840000000  0.4319680000000 1.0
C      1  0.4523130000000  0.5491060000000  0.5521380000000 1.0
C      1  0.5695360000000  0.5481910000000  0.5156850000000 1.0
C      1  0.4785410000000  0.5488410000000  0.4323150000000 1.0
C      1  0.5447310000000  0.3784710000000  0.5269980000000 1.0
C      1  0.4736450000000  0.3879620000000  0.5128820000000 1.0
C      1  0.4975400000000  0.3875050000000  0.4693930000000 1.0
C      1  0.4779640000000  0.6140490000000  0.5163500000000 1.0
C      1  0.5263670000000  0.6112630000000  0.5155200000000 1.0
C      1  0.5017350000000  0.6131730000000  0.4728970000000 1.0
C      1  0.4550990000000  0.6208030000000  0.4727580000000 1.0
C      1  0.5261850000000  0.6113130000000  0.4868740000000 1.0
C      1  0.5022890000000  0.6117700000000  0.5303630000000 1.0
C      1  0.5218650000000  0.3852260000000  0.4834050000000 1.0
C      1  0.4734620000000  0.3880110000000  0.4842350000000 1.0
C      1  0.4980940000000  0.3861010000000  0.5268580000000 1.0
C      1  0.4998100000000  0.5301590000000  0.5289790000000 1.0
C      1  0.4745280000000  0.5308190000000  0.4849450000000 1.0
C      1  0.5253230000000  0.5299500000000  0.4854510000000 1.0
C      1  0.5002120000000  0.4688480000000  0.5289970000000 1.0
C      1  0.5249830000000  0.4687260000000  0.4852990000000 1.0
C      1  0.4743130000000  0.4693980000000  0.4854320000000 1.0
C      1  0.5000190000000  0.4691160000000  0.4707770000000 1.0
C      1  0.5253010000000  0.4684550000000  0.5148100000000 1.0
C      1  0.4745060000000  0.4693250000000  0.5143040000000 1.0
C      1  0.4996170000000  0.5304260000000  0.4707590000000 1.0
C      1  0.4748460000000  0.5305480000000  0.5144560000000 1.0
C      1  0.5255160000000  0.5298760000000  0.5143230000000 1.0
C      1  0.5740910000000  0.6135330000000  0.5132660000000 1.0
C      1  0.4538570000000  0.6147780000000  0.5573680000000 1.0
C      1  0.4794560000000  0.6168400000000  0.4276500000000 1.0
C      1  0.4259190000000  0.3856770000000  0.5120850000000 1.0
C      1  0.5406070000000  0.3836260000000  0.5548240000000 1.0
C      1  0.5237570000000  0.3851910000000  0.4297020000000 1.0
C      1  0.4257380000000  0.3857420000000  0.4864890000000 1.0
C      1  0.5459730000000  0.3844960000000  0.4423880000000 1.0
C      1  0.5203740000000  0.3824340000000  0.5721050000000 1.0
C      1  0.5739100000000  0.6135980000000  0.4876700000000 1.0
C      1  0.4592230000000  0.6156480000000  0.4449310000000 1.0
C      1  0.4760720000000  0.6140830000000  0.5700530000000 1.0
C      1  0.4275630000000  0.4493650000000  0.5724880000000 1.0
C      1  0.4726150000000  0.4498240000000  0.4002920000000 1.0
C      1  0.6003150000000  0.4494090000000  0.5258910000000 1.0
C      1  0.5730440000000  0.5497290000000  0.5732150000000 1.0
C      1  0.5260370000000  0.5505360000000  0.4011980000000 1.0
C      1  0.4006650000000  0.5505310000000  0.5267230000000 1.0
C      1  0.5722670000000  0.5499100000000  0.4272680000000 1.0
C      1  0.5272140000000  0.5494510000000  0.5994630000000 1.0
C      1  0.3995140000000  0.5498650000000  0.4738640000000 1.0
C      1  0.4267850000000  0.4495450000000  0.4265410000000 1.0
C      1  0.4737920000000  0.4487380000000  0.5985570000000 1.0
C      1  0.5991650000000  0.4487430000000  0.4730330000000 1.0
C      1  0.4739240000000  0.5630870000000  0.5144260000000 1.0
C      1  0.4998610000000  0.5628160000000  0.4703050000000 1.0
C      1  0.5263050000000  0.5617340000000  0.5152580000000 1.0
C      1  0.5263700000000  0.4360300000000  0.5150350000000 1.0
C      1  0.4995090000000  0.4372520000000  0.4698800000000 1.0
C      1  0.4737110000000  0.4375270000000  0.5146350000000 1.0
C      1  0.5259060000000  0.4361870000000  0.4853290000000 1.0
C      1  0.4999680000000  0.4364580000000  0.5294500000000 1.0
C      1  0.4735250000000  0.4375410000000  0.4844980000000 1.0
C      1  0.4734590000000  0.5632440000000  0.4847200000000 1.0
C      1  0.5003210000000  0.5620220000000  0.5298750000000 1.0
C      1  0.5261180000000  0.5617470000000  0.4851210000000 1.0
C      1  0.5014520000000  0.5704650000000  0.5603120000000 1.0
C      1  0.4460310000000  0.5700950000000  0.4692730000000 1.0
C      1  0.5518290000000  0.5705270000000  0.4695530000000 1.0
C      1  0.4994110000000  0.4280380000000  0.5590620000000 1.0
C      1  0.5518810000000  0.4273040000000  0.4704630000000 1.0
C      1  0.4476480000000  0.4288900000000  0.4686700000000 1.0
C      1  0.4983780000000  0.4288090000000  0.4394440000000 1.0
C      1  0.5537980000000  0.4291800000000  0.5304820000000 1.0
C      1  0.4480010000000  0.4287480000000  0.5302030000000 1.0
C      1  0.5004190000000  0.5712360000000  0.4406940000000 1.0
C      1  0.4479490000000  0.5719700000000  0.5292930000000 1.0
C      1  0.5521810000000  0.5703840000000  0.5310850000000 1.0
C      1  0.5023480000000  0.3992200000000  0.4420810000000 1.0
C      1  0.5569680000000  0.4007660000000  0.5382810000000 1.0
C      1  0.4480800000000  0.3993050000000  0.5240140000000 1.0
C      1  0.4961800000000  0.6013770000000  0.4447480000000 1.0
C      1  0.4544920000000  0.6016410000000  0.5319900000000 1.0
C      1  0.5522870000000  0.5998750000000  0.5256200000000 1.0
C      1  0.4974810000000  0.6000540000000  0.5576750000000 1.0
C      1  0.4428610000000  0.5985080000000  0.4614740000000 1.0
C      1  0.5517490000000  0.5999690000000  0.4757420000000 1.0
C      1  0.5036490000000  0.3978970000000  0.5550070000000 1.0
C      1  0.5453370000000  0.3976330000000  0.4677660000000 1.0
C      1  0.4475420000000  0.3993990000000  0.4741350000000 1.0
C      1  0.4703470000000  0.5207950000000  0.3901430000000 1.0
C      1  0.6101080000000  0.5200570000000  0.5294970000000 1.0
C      1  0.4198990000000  0.5203760000000  0.5800670000000 1.0
C      1  0.5290030000000  0.4793970000000  0.3901710000000 1.0
C      1  0.3900110000000  0.4793990000000  0.5292500000000 1.0
C      1  0.5807580000000  0.4788490000000  0.5806370000000 1.0
C      1  0.5294820000000  0.4784800000000  0.6096130000000 1.0
C      1  0.3897220000000  0.4792170000000  0.4702590000000 1.0
C      1  0.5799310000000  0.4788980000000  0.4196890000000 1.0
C      1  0.4708260000000  0.5198780000000  0.6095850000000 1.0
C      1  0.6098180000000  0.5198750000000  0.4705060000000 1.0
C      1  0.4190710000000  0.5204250000000  0.4191190000000 1.0
C      1  0.5475380000000  0.4778550000000  0.5318740000000 1.0
C      1  0.4484070000000  0.4783810000000  0.5249230000000 1.0
C      1  0.5036320000000  0.4781370000000  0.4428190000000 1.0
C      1  0.4526540000000  0.5217430000000  0.5317110000000 1.0
C      1  0.5516250000000  0.5210810000000  0.5250320000000 1.0
C      1  0.4958730000000  0.5215990000000  0.4428490000000 1.0
C      1  0.4522910000000  0.5214190000000  0.4678810000000 1.0
C      1  0.5514220000000  0.5208940000000  0.4748330000000 1.0
C      1  0.4961980000000  0.5211370000000  0.5569370000000 1.0
C      1  0.5471750000000  0.4775310000000  0.4680450000000 1.0
C      1  0.4482050000000  0.4781930000000  0.4747230000000 1.0
C      1  0.5039560000000  0.4776750000000  0.5569070000000 1.0
C      1  0.5248730000000  0.5261190000000  0.3895900000000 1.0
C      1  0.5837630000000  0.5253490000000  0.5775450000000 1.0
C      1  0.3914970000000  0.5259700000000  0.5334090000000 1.0
C      1  0.4743930000000  0.4741990000000  0.3888020000000 1.0
C      1  0.4167690000000  0.4737390000000  0.5768700000000 1.0
C      1  0.6090690000000  0.4737010000000  0.5336320000000 1.0
C      1  0.4749570000000  0.4731550000000  0.6101650000000 1.0
C      1  0.4160660000000  0.4739260000000  0.4222100000000 1.0
C      1  0.6083320000000  0.4733040000000  0.4663460000000 1.0
C      1  0.5254370000000  0.5250760000000  0.6109530000000 1.0
C      1  0.5830600000000  0.5255350000000  0.4228850000000 1.0
C      1  0.3907600000000  0.5255740000000  0.4661240000000 1.0
C      1  0.5448400000000  0.5035400000000  0.3920770000000 1.0
C      1  0.5713170000000  0.5028720000000  0.5934380000000 1.0
C      1  0.3836820000000  0.5035730000000  0.5147220000000 1.0
C      1  0.4544590000000  0.4966260000000  0.3915740000000 1.0
C      1  0.4291660000000  0.4960470000000  0.5928290000000 1.0
C      1  0.6164120000000  0.4959070000000  0.5148910000000 1.0
C      1  0.4549900000000  0.4957350000000  0.6076790000000 1.0
C      1  0.4285130000000  0.4964030000000  0.4063180000000 1.0
C      1  0.6161470000000  0.4957020000000  0.4850330000000 1.0
C      1  0.5453700000000  0.5026490000000  0.6081810000000 1.0
C      1  0.5706630000000  0.5032270000000  0.4069270000000 1.0
C      1  0.3834180000000  0.5033680000000  0.4848640000000 1.0
C      1  0.6006630000000  0.4855830000000  0.5597350000000 1.0
C      1  0.3982210000000  0.4859910000000  0.5568790000000 1.0
C      1  0.5011380000000  0.4862510000000  0.3831160000000 1.0
C      1  0.3998140000000  0.5137700000000  0.5594070000000 1.0
C      1  0.6021850000000  0.5133720000000  0.5572600000000 1.0
C      1  0.4983020000000  0.5140500000000  0.3833410000000 1.0
C      1  0.3991660000000  0.5136910000000  0.4400210000000 1.0
C      1  0.6016080000000  0.5132830000000  0.4428770000000 1.0
C      1  0.4986920000000  0.5130230000000  0.6166400000000 1.0
C      1  0.6000160000000  0.4855040000000  0.4403490000000 1.0
C      1  0.3976450000000  0.4859030000000  0.4424960000000 1.0
C      1  0.5015270000000  0.4852240000000  0.6164150000000 1.0
C      1  0.5527200000000  0.5637560000000  0.5613420000000 1.0
C      1  0.4209700000000  0.5646660000000  0.5149560000000 1.0
C      1  0.5263670000000  0.5641400000000  0.4249940000000 1.0
C      1  0.4478340000000  0.4352910000000  0.5604630000000 1.0
C      1  0.5795850000000  0.4360190000000  0.5142600000000 1.0
C      1  0.4725350000000  0.4357160000000  0.4238090000000 1.0
C      1  0.4471090000000  0.4355190000000  0.4384130000000 1.0
C      1  0.5788590000000  0.4346080000000  0.4848000000000 1.0
C      1  0.4734630000000  0.4351340000000  0.5747620000000 1.0
C      1  0.5519960000000  0.5639830000000  0.4392920000000 1.0
C      1  0.4202440000000  0.5632550000000  0.4854960000000 1.0
C      1  0.5272940000000  0.5635590000000  0.5759460000000 1.0
C      1  0.5210740000000  0.3793350000000  0.5111490000000 1.0
C      1  0.4787560000000  0.6199390000000  0.4886060000000 1.0
END
