TITL C-62931-3293-8 -134.084229547639 125000 -798.863489677153 0 0 113 (C1) n - 1
REM
REM in /rds/project/t2_vol4/rds-t2-cs072/BORA/CARBON/from-Arr/AIRSS/Generating-Clusters/GAP-ML-2020/Higher-Symm/SD-CG/HFTN-CG
REM
REM
REM
REM
REM
REM ./C.cell (b20cbc046b6831c77cfcea5457e17084)
REM AIRSS Version 0.9.1 bugfix July 2018 build 013d7b7c2542+ Fri, 06 Jul 2018 19:26:36 +0100
REM compiler GCC version 9.3.0
REM options -cpp -mtune=generic -march=x86-64 -g -O0
REM seed -309737376 -314440559 -554187464 1659009847 1700472409 -1162332775 -496722825 -331920405 376076305 -2130392443 -402129460 -472860235 -960658525 1668564681 -1997004204 1998455691 627907160 -923559894 -1718971500 462270129 465511708 -1089498478 -383256702 383206582 1120132424 -983320218 1109852974 -732550111 1915542040 -1549139107 1171551490 1673150766 -1664168306
REM
CELL 1.54180   50.00000   50.00000   50.00000   90.00000   90.00000   90.00000
LATT -1
SFAC C  
C      1  0.5135910000000  0.5680220000000  0.5644550000000 1.0
C      1  0.4828820000000  0.5700650000000  0.4355260000000 1.0
C      1  0.4860940000000  0.4302900000000  0.5651870000000 1.0
C      1  0.5128490000000  0.4345500000000  0.4361300000000 1.0
C      1  0.5641230000000  0.5696750000000  0.5127830000000 1.0
C      1  0.4331790000000  0.5665750000000  0.4864330000000 1.0
C      1  0.5599190000000  0.4367230000000  0.4859520000000 1.0
C      1  0.4327950000000  0.4295880000000  0.5149250000000 1.0
C      1  0.4110840000000  0.4820330000000  0.4786020000000 1.0
C      1  0.5817410000000  0.4899030000000  0.5206390000000 1.0
C      1  0.5894630000000  0.5197790000000  0.4760900000000 1.0
C      1  0.4180520000000  0.5113530000000  0.5230310000000 1.0
C      1  0.4771300000000  0.4886260000000  0.4199990000000 1.0
C      1  0.5218210000000  0.4834960000000  0.5874480000000 1.0
C      1  0.4778690000000  0.5123710000000  0.5799850000000 1.0
C      1  0.5234810000000  0.5183200000000  0.4135140000000 1.0
C      1  0.4974410000000  0.4528480000000  0.4238190000000 1.0
C      1  0.5002280000000  0.4475750000000  0.5826690000000 1.0
C      1  0.4958890000000  0.5555620000000  0.4169150000000 1.0
C      1  0.4988990000000  0.5485520000000  0.5768040000000 1.0
C      1  0.4150160000000  0.4463420000000  0.5005890000000 1.0
C      1  0.5723840000000  0.4563560000000  0.4998310000000 1.0
C      1  0.4214920000000  0.5471870000000  0.5016530000000 1.0
C      1  0.5838630000000  0.5552450000000  0.4985970000000 1.0
C      1  0.4574490000000  0.5575450000000  0.4403730000000 1.0
C      1  0.5389810000000  0.5561470000000  0.5598340000000 1.0
C      1  0.5381900000000  0.4477580000000  0.4392670000000 1.0
C      1  0.4594540000000  0.4407260000000  0.5613700000000 1.0
C      1  0.4364120000000  0.5552490000000  0.4606940000000 1.0
C      1  0.5592840000000  0.5576530000000  0.5384970000000 1.0
C      1  0.4378200000000  0.4402510000000  0.5410410000000 1.0
C      1  0.5585030000000  0.4487020000000  0.4601820000000 1.0
C      1  0.4312890000000  0.5267370000000  0.4532590000000 1.0
C      1  0.5675060000000  0.5304830000000  0.5459490000000 1.0
C      1  0.5671740000000  0.4760730000000  0.4511160000000 1.0
C      1  0.4302870000000  0.4677910000000  0.5489050000000 1.0
C      1  0.4523000000000  0.5294850000000  0.4329490000000 1.0
C      1  0.5469220000000  0.5282990000000  0.5666560000000 1.0
C      1  0.4514250000000  0.4682010000000  0.5687570000000 1.0
C      1  0.5461590000000  0.4747400000000  0.4303900000000 1.0
C      1  0.5509380000000  0.4217040000000  0.5303250000000 1.0
C      1  0.4473550000000  0.4171640000000  0.4688100000000 1.0
C      1  0.4486650000000  0.5808070000000  0.5298250000000 1.0
C      1  0.5510790000000  0.5832600000000  0.4674920000000 1.0
C      1  0.5314810000000  0.4187380000000  0.5515960000000 1.0
C      1  0.4683900000000  0.4196410000000  0.4486370000000 1.0
C      1  0.5305250000000  0.5799240000000  0.4471550000000 1.0
C      1  0.4693250000000  0.5817360000000  0.5503590000000 1.0
C      1  0.5600080000000  0.4701890000000  0.5265350000000 1.0
C      1  0.4164880000000  0.4543220000000  0.4721250000000 1.0
C      1  0.4393500000000  0.5323630000000  0.5239460000000 1.0
C      1  0.5840660000000  0.5480390000000  0.4697970000000 1.0
C      1  0.5283960000000  0.4558890000000  0.5818670000000 1.0
C      1  0.4724580000000  0.4686430000000  0.4418510000000 1.0
C      1  0.5420720000000  0.5364630000000  0.4208520000000 1.0
C      1  0.4766910000000  0.5338910000000  0.5593470000000 1.0
C      1  0.5016620000000  0.5285360000000  0.4728660000000 1.0
C      1  0.5121680000000  0.5435000000000  0.5183240000000 1.0
C      1  0.5003360000000  0.4544900000000  0.4859560000000 1.0
C      1  0.4900550000000  0.4743450000000  0.5284480000000 1.0
C      1  0.4786080000000  0.5399480000000  0.4858770000000 1.0
C      1  0.5234340000000  0.5369660000000  0.4921810000000 1.0
C      1  0.4657090000000  0.4764420000000  0.5147230000000 1.0
C      1  0.5097970000000  0.4606860000000  0.5119200000000 1.0
C      1  0.5469080000000  0.5588150000000  0.4338300000000 1.0
C      1  0.4590210000000  0.5568540000000  0.5610270000000 1.0
C      1  0.4557750000000  0.4447570000000  0.4396060000000 1.0
C      1  0.5444300000000  0.4404390000000  0.5661450000000 1.0
C      1  0.4384880000000  0.5559810000000  0.5408680000000 1.0
C      1  0.5679010000000  0.5635880000000  0.4542620000000 1.0
C      1  0.4327190000000  0.4389350000000  0.4563990000000 1.0
C      1  0.5612860000000  0.4460300000000  0.5432990000000 1.0
C      1  0.4992450000000  0.4228780000000  0.4819350000000 1.0
C      1  0.4993690000000  0.4063400000000  0.5208600000000 1.0
C      1  0.4993990000000  0.5887530000000  0.4788420000000 1.0
C      1  0.5029590000000  0.5731970000000  0.5180340000000 1.0
C      1  0.4783090000000  0.4105790000000  0.5012690000000 1.0
C      1  0.5197210000000  0.4103510000000  0.5006110000000 1.0
C      1  0.4804240000000  0.5717800000000  0.4952540000000 1.0
C      1  0.5194440000000  0.5897820000000  0.4987510000000 1.0
C      1  0.5067590000000  0.4978800000000  0.5323420000000 1.0
C      1  0.4862060000000  0.4783230000000  0.4718430000000 1.0
C      1  0.4928120000000  0.5240580000000  0.5291230000000 1.0
C      1  0.5073560000000  0.4990790000000  0.4708300000000 1.0
C      1  0.5293840000000  0.4831650000000  0.5158240000000 1.0
C      1  0.4668890000000  0.4935330000000  0.4939670000000 1.0
C      1  0.5439190000000  0.5193720000000  0.4905500000000 1.0
C      1  0.4690160000000  0.5222780000000  0.5066900000000 1.0
C      1  0.4687010000000  0.4861680000000  0.5826140000000 1.0
C      1  0.5275830000000  0.4901990000000  0.4147150000000 1.0
C      1  0.5300350000000  0.5107700000000  0.5832690000000 1.0
C      1  0.4721880000000  0.5154640000000  0.4186400000000 1.0
C      1  0.5847820000000  0.4930280000000  0.4676150000000 1.0
C      1  0.4151330000000  0.4851440000000  0.5319190000000 1.0
C      1  0.5850290000000  0.5158800000000  0.5290270000000 1.0
C      1  0.4155360000000  0.5092550000000  0.4706160000000 1.0
C      1  0.4512040000000  0.4155760000000  0.4971520000000 1.0
C      1  0.5459480000000  0.4182730000000  0.5032280000000 1.0
C      1  0.5469360000000  0.5855890000000  0.4952210000000 1.0
C      1  0.4534100000000  0.5797920000000  0.5022520000000 1.0
C      1  0.4958950000000  0.4184310000000  0.4535370000000 1.0
C      1  0.5038030000000  0.4150960000000  0.5478050000000 1.0
C      1  0.4967650000000  0.5814960000000  0.5452160000000 1.0
C      1  0.5029740000000  0.5835390000000  0.4517450000000 1.0
C      1  0.4079520000000  0.4731100000000  0.5070520000000 1.0
C      1  0.5867690000000  0.4793670000000  0.4936950000000 1.0
C      1  0.5917600000000  0.5286920000000  0.5047680000000 1.0
C      1  0.4099950000000  0.5221700000000  0.4963960000000 1.0
C      1  0.5025810000000  0.4771470000000  0.4117900000000 1.0
C      1  0.4934660000000  0.4741980000000  0.5901290000000 1.0
C      1  0.5042830000000  0.5235680000000  0.5885100000000 1.0
C      1  0.4966250000000  0.5293110000000  0.4122290000000 1.0
C      1  0.5305890000000  0.4952480000000  0.4891420000000 1.0
END
