TITL C-62924-3133-4 -106.553193150208 125000 -801.18104578082 0 0 114 (C1) n - 1
REM
REM in /rds/project/t2_vol4/rds-t2-cs072/BORA/CARBON/from-Arr/AIRSS/Generating-Clusters/GAP-ML-2020/Higher-Symm/SD-CG/HFTN-CG
REM
REM
REM
REM
REM
REM ./C.cell (b20cbc046b6831c77cfcea5457e17084)
REM AIRSS Version 0.9.1 bugfix July 2018 build 013d7b7c2542+ Fri, 06 Jul 2018 19:26:36 +0100
REM compiler GCC version 9.3.0
REM options -cpp -mtune=generic -march=x86-64 -g -O0
REM seed -714517914 -775985795 -1709491643 -873002924 -1798293969 -262841378 195166693 -528413576 148528203 279251088 -1399572318 -107250266 -144873456 -1864766355 -665530517 535685027 -72144656 1342391883 -1912360948 -1792908318 901601475 -317941111 -910678958 2093503367 1654285821 1612821000 -1936016842 72667434 -2007173489 -258535154 2080681547 932435620 -2115048600
REM
CELL 1.54180   50.00000   50.00000   50.00000   90.00000   90.00000   90.00000
LATT -1
SFAC C  
C      1  0.5356520000000  0.5278540000000  0.4705320000000 1.0
C      1  0.5129440000000  0.5404490000000  0.4540030000000 1.0
C      1  0.4870570000000  0.5248620000000  0.4531310000000 1.0
C      1  0.4643670000000  0.5377590000000  0.4680730000000 1.0
C      1  0.4609970000000  0.5237340000000  0.4933770000000 1.0
C      1  0.4743400000000  0.5383440000000  0.5155620000000 1.0
C      1  0.4805370000000  0.5237360000000  0.5411080000000 1.0
C      1  0.5046250000000  0.5358160000000  0.5583660000000 1.0
C      1  0.5307430000000  0.5459870000000  0.5452930000000 1.0
C      1  0.5454620000000  0.5310180000000  0.5220070000000 1.0
C      1  0.5478750000000  0.5433910000000  0.4931830000000 1.0
C      1  0.4885030000000  0.4850850000000  0.4059590000000 1.0
C      1  0.4604530000000  0.4843360000000  0.4140370000000 1.0
C      1  0.4098660000000  0.4856570000000  0.4708950000000 1.0
C      1  0.4051140000000  0.4856490000000  0.4995990000000 1.0
C      1  0.4373030000000  0.4885090000000  0.5681180000000 1.0
C      1  0.4612810000000  0.4869490000000  0.5845120000000 1.0
C      1  0.5284170000000  0.4811650000000  0.5989660000000 1.0
C      1  0.5775650000000  0.4860480000000  0.5516860000000 1.0
C      1  0.5888710000000  0.4855760000000  0.5254280000000 1.0
C      1  0.5781270000000  0.4861940000000  0.4520100000000 1.0
C      1  0.5601920000000  0.4851000000000  0.4294360000000 1.0
C      1  0.5495680000000  0.4306300000000  0.4937880000000 1.0
C      1  0.5375960000000  0.4287250000000  0.4673000000000 1.0
C      1  0.5136700000000  0.4303250000000  0.4505220000000 1.0
C      1  0.4846950000000  0.4281760000000  0.4499530000000 1.0
C      1  0.4597650000000  0.4300080000000  0.4653020000000 1.0
C      1  0.4479610000000  0.4290610000000  0.4921190000000 1.0
C      1  0.4518620000000  0.4314720000000  0.5210360000000 1.0
C      1  0.4710430000000  0.4297520000000  0.5429650000000 1.0
C      1  0.4988520000000  0.4301830000000  0.5529120000000 1.0
C      1  0.5273460000000  0.4298090000000  0.5454760000000 1.0
C      1  0.5460920000000  0.4278910000000  0.5229520000000 1.0
C      1  0.5487780000000  0.5776300000000  0.5176550000000 1.0
C      1  0.5446000000000  0.5726630000000  0.4891890000000 1.0
C      1  0.5374650000000  0.5754430000000  0.4616160000000 1.0
C      1  0.5095010000000  0.5697420000000  0.4550140000000 1.0
C      1  0.4818060000000  0.5736210000000  0.4490600000000 1.0
C      1  0.4650740000000  0.5677380000000  0.4716050000000 1.0
C      1  0.4467230000000  0.5721830000000  0.4921100000000 1.0
C      1  0.4560400000000  0.5645360000000  0.5199340000000 1.0
C      1  0.4701420000000  0.5775080000000  0.5417670000000 1.0
C      1  0.5000120000000  0.5803340000000  0.5452860000000 1.0
C      1  0.5265510000000  0.5743690000000  0.5357620000000 1.0
C      1  0.5823830000000  0.5132720000000  0.4616330000000 1.0
C      1  0.5508780000000  0.5114790000000  0.4240550000000 1.0
C      1  0.4994510000000  0.5122720000000  0.4063790000000 1.0
C      1  0.4517450000000  0.5105570000000  0.4208310000000 1.0
C      1  0.4144640000000  0.5126700000000  0.4607410000000 1.0
C      1  0.4077430000000  0.5126350000000  0.5094810000000 1.0
C      1  0.4331170000000  0.5157310000000  0.5576340000000 1.0
C      1  0.4750840000000  0.5123100000000  0.5846540000000 1.0
C      1  0.5281060000000  0.5076350000000  0.5924500000000 1.0
C      1  0.5720170000000  0.5133860000000  0.5595090000000 1.0
C      1  0.5906920000000  0.5122050000000  0.5147150000000 1.0
C      1  0.4987800000000  0.4581720000000  0.4130940000000 1.0
C      1  0.4544680000000  0.4579480000000  0.4254290000000 1.0
C      1  0.4203960000000  0.4588450000000  0.4642490000000 1.0
C      1  0.4130920000000  0.4592070000000  0.5096730000000 1.0
C      1  0.4346290000000  0.4611990000000  0.5564800000000 1.0
C      1  0.4725470000000  0.4593820000000  0.5823250000000 1.0
C      1  0.5236080000000  0.4571730000000  0.5862200000000 1.0
C      1  0.5652610000000  0.4589020000000  0.5562490000000 1.0
C      1  0.5840470000000  0.4585640000000  0.5146010000000 1.0
C      1  0.5765200000000  0.4591140000000  0.4642760000000 1.0
C      1  0.5475520000000  0.4583700000000  0.4291930000000 1.0
C      1  0.5221790000000  0.4929920000000  0.5422890000000 1.0
C      1  0.5319940000000  0.5060220000000  0.5201080000000 1.0
C      1  0.5345760000000  0.4833670000000  0.5002350000000 1.0
C      1  0.5267960000000  0.5014600000000  0.4786030000000 1.0
C      1  0.5167480000000  0.4864520000000  0.4580890000000 1.0
C      1  0.4920950000000  0.4964730000000  0.4596610000000 1.0
C      1  0.4775300000000  0.4806620000000  0.4770600000000 1.0
C      1  0.4621510000000  0.4959030000000  0.4939570000000 1.0
C      1  0.4603280000000  0.4863490000000  0.5187090000000 1.0
C      1  0.4807050000000  0.4947230000000  0.5338550000000 1.0
C      1  0.5021100000000  0.4772420000000  0.5336260000000 1.0
C      1  0.5030790000000  0.5191650000000  0.5833320000000 1.0
C      1  0.5519840000000  0.5209770000000  0.5791780000000 1.0
C      1  0.5766250000000  0.5300780000000  0.5337980000000 1.0
C      1  0.5894790000000  0.5232840000000  0.4880560000000 1.0
C      1  0.5613580000000  0.5288290000000  0.4458700000000 1.0
C      1  0.5263540000000  0.5220150000000  0.4123830000000 1.0
C      1  0.4767960000000  0.5274810000000  0.4211340000000 1.0
C      1  0.4310110000000  0.5214890000000  0.4379930000000 1.0
C      1  0.4120230000000  0.5291280000000  0.4857950000000 1.0
C      1  0.4195540000000  0.5255060000000  0.5336350000000 1.0
C      1  0.4594300000000  0.5297510000000  0.5646620000000 1.0
C      1  0.5469570000000  0.5449280000000  0.5691080000000 1.0
C      1  0.5756240000000  0.5586870000000  0.5221340000000 1.0
C      1  0.5774700000000  0.5485130000000  0.4942340000000 1.0
C      1  0.5508050000000  0.5563150000000  0.4411560000000 1.0
C      1  0.5268350000000  0.5461460000000  0.4275640000000 1.0
C      1  0.4677630000000  0.5549890000000  0.4284690000000 1.0
C      1  0.4452780000000  0.5449110000000  0.4446660000000 1.0
C      1  0.4227120000000  0.5543880000000  0.4953500000000 1.0
C      1  0.4283880000000  0.5504470000000  0.5234060000000 1.0
C      1  0.4664230000000  0.5593670000000  0.5659670000000 1.0
C      1  0.4941280000000  0.5620670000000  0.5673450000000 1.0
C      1  0.4565470000000  0.4451060000000  0.5642220000000 1.0
C      1  0.4978450000000  0.4464930000000  0.5782270000000 1.0
C      1  0.5410440000000  0.4465620000000  0.5657840000000 1.0
C      1  0.5691770000000  0.4435230000000  0.5332250000000 1.0
C      1  0.5741630000000  0.4480660000000  0.4902200000000 1.0
C      1  0.5573300000000  0.4437100000000  0.4507750000000 1.0
C      1  0.5211680000000  0.4477330000000  0.4270850000000 1.0
C      1  0.4782850000000  0.4428660000000  0.4249870000000 1.0
C      1  0.4416080000000  0.4476450000000  0.4487440000000 1.0
C      1  0.4226880000000  0.4439450000000  0.4881400000000 1.0
C      1  0.4294040000000  0.4496390000000  0.5308560000000 1.0
C      1  0.5127120000000  0.5176750000000  0.5002540000000 1.0
C      1  0.5109860000000  0.4666530000000  0.5070900000000 1.0
C      1  0.4922950000000  0.4598160000000  0.4891770000000 1.0
C      1  0.4982070000000  0.5399040000000  0.5015790000000 1.0
END
