TITL C-62926-3106-4 -0.05351946397698 125000 -275.420500333659 0 0 42 (D7d) n - 1
REM
REM in /rds/project/t2_vol4/rds-t2-cs072/BORA/CARBON/from-Arr/AIRSS/Generating-Clusters/GAP-ML-2020/Higher-Symm/SD-CG/HFTN-CG
REM
REM
REM
REM
REM
REM ./C.cell (b20cbc046b6831c77cfcea5457e17084)
REM AIRSS Version 0.9.1 bugfix July 2018 build 013d7b7c2542+ Fri, 06 Jul 2018 19:26:36 +0100
REM compiler GCC version 9.3.0
REM options -cpp -mtune=generic -march=x86-64 -g -O0
REM seed 811337384 250734498 -1839534843 2018354542 221517328 -1407980171 -1311804855 953330695 354656693 -875743740 767597331 61523576 -578943463 -278666041 -2012524068 -660790293 -1863067542 2066198756 73641593 -861868688 679437842 2042744078 1083803776 1094339617 652328905 -1186803960 1628565693 1012534864 1575137477 1656689224 -1987984911 -1100645805 179838447
REM
CELL 1.54180   50.00000   50.00000   50.00000   90.00000   90.00000   90.00000
LATT -1
SFAC C  
C      1  0.5318060000000  0.4663290000000  0.5128510000000 1.0
C      1  0.5318420000000  0.4689880000000  0.4816990000000 1.0
C      1  0.5318590000000  0.4950030000000  0.4643550000000 1.0
C      1  0.5318450000000  0.5247830000000  0.4738800000000 1.0
C      1  0.5318110000000  0.5359030000000  0.5031020000000 1.0
C      1  0.5317810000000  0.5199900000000  0.5300150000000 1.0
C      1  0.5317790000000  0.4890260000000  0.5343540000000 1.0
C      1  0.4374900000000  0.4821080000000  0.4731000000000 1.0
C      1  0.4374920000000  0.5098170000000  0.4692170000000 1.0
C      1  0.4374680000000  0.5301290000000  0.4884600000000 1.0
C      1  0.4374360000000  0.5277490000000  0.5163390000000 1.0
C      1  0.4374200000000  0.5044690000000  0.5318600000000 1.0
C      1  0.4374320000000  0.4778190000000  0.5233350000000 1.0
C      1  0.4374640000000  0.4678670000000  0.4971850000000 1.0
C      1  0.5083610000000  0.5372630000000  0.4606770000000 1.0
C      1  0.5083090000000  0.5539850000000  0.5046190000000 1.0
C      1  0.5082650000000  0.5300560000000  0.5450900000000 1.0
C      1  0.5082620000000  0.4834950000000  0.5516140000000 1.0
C      1  0.5083020000000  0.4493630000000  0.5192800000000 1.0
C      1  0.5083560000000  0.4533630000000  0.4724340000000 1.0
C      1  0.5083820000000  0.4924820000000  0.4463540000000 1.0
C      1  0.4682190000000  0.4800100000000  0.4699850000000 1.0
C      1  0.4682210000000  0.5109740000000  0.4656460000000 1.0
C      1  0.4681940000000  0.5336710000000  0.4871490000000 1.0
C      1  0.4681580000000  0.5310120000000  0.5183010000000 1.0
C      1  0.4681410000000  0.5049970000000  0.5356450000000 1.0
C      1  0.4681550000000  0.4752170000000  0.5261200000000 1.0
C      1  0.4681890000000  0.4640970000000  0.4968980000000 1.0
C      1  0.5625800000000  0.4955310000000  0.4681400000000 1.0
C      1  0.5625680000000  0.5221810000000  0.4766650000000 1.0
C      1  0.5625360000000  0.5321330000000  0.5028150000000 1.0
C      1  0.5625100000000  0.5178920000000  0.5269000000000 1.0
C      1  0.5625080000000  0.4901830000000  0.5307830000000 1.0
C      1  0.5625330000000  0.4698710000000  0.5115400000000 1.0
C      1  0.5625640000000  0.4722510000000  0.4836610000000 1.0
C      1  0.4916440000000  0.5466370000000  0.5275660000000 1.0
C      1  0.4916180000000  0.5075180000000  0.5536460000000 1.0
C      1  0.4916390000000  0.4627370000000  0.5393230000000 1.0
C      1  0.4916910000000  0.4460150000000  0.4953810000000 1.0
C      1  0.4917360000000  0.4699440000000  0.4549100000000 1.0
C      1  0.4917380000000  0.5165050000000  0.4483860000000 1.0
C      1  0.4916980000000  0.5506370000000  0.4807200000000 1.0
END
