TITL C-62933-3072-1 -264.01574582581 125000 -896.163855918014 0 0 125 (C3) n - 1
REM
REM in /rds/project/t2_vol4/rds-t2-cs072/BORA/CARBON/from-Arr/AIRSS/Generating-Clusters/GAP-ML-2020/Higher-Symm/SD-CG/HFTN-CG
REM
REM
REM
REM
REM
REM ./C.cell (b20cbc046b6831c77cfcea5457e17084)
REM AIRSS Version 0.9.1 bugfix July 2018 build 013d7b7c2542+ Fri, 06 Jul 2018 19:26:36 +0100
REM compiler GCC version 9.3.0
REM options -cpp -mtune=generic -march=x86-64 -g -O0
REM seed 945752161 -684803069 -433243517 -1562952615 -1434863908 -367928926 2123417488 295137584 -2022557931 1190035593 -1727563652 1792024178 575928783 -1876716672 -1809449320 1279384115 438537770 -799556978 -149655982 -708777127 -313342449 640743830 61775645 844311262 1322497640 -288084256 -1264539965 1642397885 780385504 -1360267194 -2077105287 1453144947 -1539844881
REM
CELL 1.54180   50.00000   50.00000   50.00000   90.00000   90.00000   90.00000
LATT -1
SFAC C  
C      1  0.5536730000000  0.4518010000000  0.4413940000000 1.0
C      1  0.5240740000000  0.4518000000000  0.5755050000000 1.0
C      1  0.4227300000000  0.4518010000000  0.4828160000000 1.0
C      1  0.4105140000000  0.4973310000000  0.5018230000000 1.0
C      1  0.5433210000000  0.4973320000000  0.4213120000000 1.0
C      1  0.5466420000000  0.4973300000000  0.5765820000000 1.0
C      1  0.5449490000000  0.4933720000000  0.5271750000000 1.0
C      1  0.4541480000000  0.4933720000000  0.5250600000000 1.0
C      1  0.5013800000000  0.4933720000000  0.4474810000000 1.0
C      1  0.4152060000000  0.4952150000000  0.4533810000000 1.0
C      1  0.5829270000000  0.4952150000000  0.4495960000000 1.0
C      1  0.5023440000000  0.4952130000000  0.5967400000000 1.0
C      1  0.4743800000000  0.4701070000000  0.4881610000000 1.0
C      1  0.5232190000000  0.4701070000000  0.4834520000000 1.0
C      1  0.5028780000000  0.4701060000000  0.5281030000000 1.0
C      1  0.5011520000000  0.4359550000000  0.5668830000000 1.0
C      1  0.4416580000000  0.4359560000000  0.4672770000000 1.0
C      1  0.5576670000000  0.4359560000000  0.4655560000000 1.0
C      1  0.5017070000000  0.4165400000000  0.5441090000000 1.0
C      1  0.4611020000000  0.4165410000000  0.4791440000000 1.0
C      1  0.5376670000000  0.4165410000000  0.4764620000000 1.0
C      1  0.5035940000000  0.5161960000000  0.4686190000000 1.0
C      1  0.5255370000000  0.5161950000000  0.5185240000000 1.0
C      1  0.4713460000000  0.5161950000000  0.5125740000000 1.0
C      1  0.4466870000000  0.5757980000000  0.5179880000000 1.0
C      1  0.5112360000000  0.5757980000000  0.4445570000000 1.0
C      1  0.5425540000000  0.5757970000000  0.5371740000000 1.0
C      1  0.4866380000000  0.5523600000000  0.4894170000000 1.0
C      1  0.5160030000000  0.5523600000000  0.4934410000000 1.0
C      1  0.4978360000000  0.5523600000000  0.5168610000000 1.0
C      1  0.4629220000000  0.4725420000000  0.5750410000000 1.0
C      1  0.4537080000000  0.4725440000000  0.4300900000000 1.0
C      1  0.5838460000000  0.4725430000000  0.4945860000000 1.0
C      1  0.4570690000000  0.4494300000000  0.4471470000000 1.0
C      1  0.5673940000000  0.4494300000000  0.4889680000000 1.0
C      1  0.4760130000000  0.4494290000000  0.5636020000000 1.0
C      1  0.4681540000000  0.5416020000000  0.5807720000000 1.0
C      1  0.4461290000000  0.5416030000000  0.4317560000000 1.0
C      1  0.5861930000000  0.5416030000000  0.4871900000000 1.0
C      1  0.4860230000000  0.4209690000000  0.4656990000000 1.0
C      1  0.5368500000000  0.4209680000000  0.5047650000000 1.0
C      1  0.4776040000000  0.4209680000000  0.5292500000000 1.0
C      1  0.4656440000000  0.4961950000000  0.4749800000000 1.0
C      1  0.5390030000000  0.4961950000000  0.4824780000000 1.0
C      1  0.4958300000000  0.4961950000000  0.5422600000000 1.0
C      1  0.4570990000000  0.4646320000000  0.5138010000000 1.0
C      1  0.5096550000000  0.4646320000000  0.4556670000000 1.0
C      1  0.5337230000000  0.4646310000000  0.5302480000000 1.0
C      1  0.4200720000000  0.4722300000000  0.5479940000000 1.0
C      1  0.4985570000000  0.4722320000000  0.4065040000000 1.0
C      1  0.5818480000000  0.4722300000000  0.5452180000000 1.0
C      1  0.5583520000000  0.5582240000000  0.5528510000000 1.0
C      1  0.4252110000000  0.5582250000000  0.5238300000000 1.0
C      1  0.5169140000000  0.5582250000000  0.4230380000000 1.0
C      1  0.4730760000000  0.4071290000000  0.5041460000000 1.0
C      1  0.5100270000000  0.4071290000000  0.4743290000000 1.0
C      1  0.5173740000000  0.4071290000000  0.5212390000000 1.0
C      1  0.4137030000000  0.4499580000000  0.5336100000000 1.0
C      1  0.5141980000000  0.4499590000000  0.4081790000000 1.0
C      1  0.5725760000000  0.4499570000000  0.5579260000000 1.0
C      1  0.4930240000000  0.5185020000000  0.4053130000000 1.0
C      1  0.5856460000000  0.5185000000000  0.5410230000000 1.0
C      1  0.4218070000000  0.5185000000000  0.5533810000000 1.0
C      1  0.4928650000000  0.5753350000000  0.5334040000000 1.0
C      1  0.4747970000000  0.5753360000000  0.4768410000000 1.0
C      1  0.5328160000000  0.5753350000000  0.4894750000000 1.0
C      1  0.4290030000000  0.5608910000000  0.4776800000000 1.0
C      1  0.5549850000000  0.5608910000000  0.4493960000000 1.0
C      1  0.5164890000000  0.5608900000000  0.5726420000000 1.0
C      1  0.5988090000000  0.5161200000000  0.4926850000000 1.0
C      1  0.4570870000000  0.5161190000000  0.5889500000000 1.0
C      1  0.4445800000000  0.5161200000000  0.4180820000000 1.0
C      1  0.4277330000000  0.5445160000000  0.4536080000000 1.0
C      1  0.5764680000000  0.5445160000000  0.4603320000000 1.0
C      1  0.4962770000000  0.5445150000000  0.5857780000000 1.0
C      1  0.4928420000000  0.5451700000000  0.4142230000000 1.0
C      1  0.5780210000000  0.5451690000000  0.5364110000000 1.0
C      1  0.4296140000000  0.5451690000000  0.5490840000000 1.0
C      1  0.5380170000000  0.5227920000000  0.5856230000000 1.0
C      1  0.4069970000000  0.5227930000000  0.4898340000000 1.0
C      1  0.5554630000000  0.5227940000000  0.4242620000000 1.0
C      1  0.4711560000000  0.5559780000000  0.4297060000000 1.0
C      1  0.5754550000000  0.5559770000000  0.5098890000000 1.0
C      1  0.4538650000000  0.5559770000000  0.5601230000000 1.0
C      1  0.5945400000000  0.4930410000000  0.4754420000000 1.0
C      1  0.4741550000000  0.4930400000000  0.5938740000000 1.0
C      1  0.4317820000000  0.4930410000000  0.4304020000000 1.0
C      1  0.4709780000000  0.4780420000000  0.4069160000000 1.0
C      1  0.5952810000000  0.4780410000000  0.5211290000000 1.0
C      1  0.4342180000000  0.4780400000000  0.5716720000000 1.0
C      1  0.5998000000000  0.5064530000000  0.5201090000000 1.0
C      1  0.4328420000000  0.5064520000000  0.5760960000000 1.0
C      1  0.4678350000000  0.5064540000000  0.4035130000000 1.0
C      1  0.5525020000000  0.5744140000000  0.5102920000000 1.0
C      1  0.4649930000000  0.5744140000000  0.5400450000000 1.0
C      1  0.4829810000000  0.5744150000000  0.4493830000000 1.0
C      1  0.5348860000000  0.5776040000000  0.4612800000000 1.0
C      1  0.5162470000000  0.5776030000000  0.5492940000000 1.0
C      1  0.4493440000000  0.5776040000000  0.4891450000000 1.0
C      1  0.4151230000000  0.5484050000000  0.4990010000000 1.0
C      1  0.5434610000000  0.5484050000000  0.4267150000000 1.0
C      1  0.5418940000000  0.5484040000000  0.5740020000000 1.0
C      1  0.5649280000000  0.4972470000000  0.5514480000000 1.0
C      1  0.4231370000000  0.4972480000000  0.5302260000000 1.0
C      1  0.5124120000000  0.4972490000000  0.4180430000000 1.0
C      1  0.5451780000000  0.4506420000000  0.5564320000000 1.0
C      1  0.4286960000000  0.4506430000000  0.5106300000000 1.0
C      1  0.5266030000000  0.4506430000000  0.4326540000000 1.0
C      1  0.4720060000000  0.4937880000000  0.4474810000000 1.0
C      1  0.5596360000000  0.4937880000000  0.5017370000000 1.0
C      1  0.4688340000000  0.4937870000000  0.5504990000000 1.0
C      1  0.4118940000000  0.5220250000000  0.4616340000000 1.0
C      1  0.5774360000000  0.5220250000000  0.4426020000000 1.0
C      1  0.5111470000000  0.5220230000000  0.5954820000000 1.0
C      1  0.4984540000000  0.5215270000000  0.5278380000000 1.0
C      1  0.4768220000000  0.5215270000000  0.4844630000000 1.0
C      1  0.5252020000000  0.5215270000000  0.4874170000000 1.0
C      1  0.5617820000000  0.4789520000000  0.4358530000000 1.0
C      1  0.5248190000000  0.4789500000000  0.5852990000000 1.0
C      1  0.4138760000000  0.4789510000000  0.4785650000000 1.0
C      1  0.4833410000000  0.4500820000000  0.4611120000000 1.0
C      1  0.5421640000000  0.4500810000000  0.5047380000000 1.0
C      1  0.4749720000000  0.4500810000000  0.5338660000000 1.0
C      1  0.5001590000000  0.3993380000000  0.4999050000000 1.0
C      1  0.5001590000000  0.4719380000000  0.4999050000000 1.0
END
