TITL C-64780-4664-2 -0.26552785047421 125000 -723.853102214292 0 0 102 (C3) n - 1
REM
REM in /rds/project/t2_vol4/rds-t2-cs072/BORA/CARBON/from-Arr/AIRSS/Generating-Clusters/GAP-ML-2020/Higher-Symm/SD-CG/HFTN-CG
REM
REM
REM
REM
REM
REM ./C.cell (b20cbc046b6831c77cfcea5457e17084)
REM AIRSS Version 0.9.1 bugfix July 2018 build 013d7b7c2542+ Fri, 06 Jul 2018 19:26:36 +0100
REM compiler GCC version 9.3.0
REM options -cpp -mtune=generic -march=x86-64 -g -O0
REM seed -1207177510 -579642155 -1367631669 -1493679114 -476365047 -675582530 841064056 -805380705 -2139758044 1102637290 -1182885362 -1723236209 -1619243208 475399918 21220250 -550537890 1919659249 -258238137 -1052832501 -615894811 -331620295 430091740 760755983 964228139 903870277 1582003292 -1649117636 1566794759 -752395460 1367448593 -1973130287 2145318385 -1949685055
REM
CELL 1.54180   50.00000   50.00000   50.00000   90.00000   90.00000   90.00000
LATT -1
SFAC C  
C      1  0.5055660000000  0.5160650000000  0.4607420000000 1.0
C      1  0.4833160000000  0.4967910000000  0.4607370000000 1.0
C      1  0.5111330000000  0.4871590000000  0.4607390000000 1.0
C      1  0.4926750000000  0.5278140000000  0.5883970000000 1.0
C      1  0.4795470000000  0.4797430000000  0.5883900000000 1.0
C      1  0.5277420000000  0.4924100000000  0.5883980000000 1.0
C      1  0.4863940000000  0.5502320000000  0.5715710000000 1.0
C      1  0.4632790000000  0.4630970000000  0.5715570000000 1.0
C      1  0.5502980000000  0.4866450000000  0.5715720000000 1.0
C      1  0.5337940000000  0.5428200000000  0.5648510000000 1.0
C      1  0.4460000000000  0.5078520000000  0.5648350000000 1.0
C      1  0.5201800000000  0.4493040000000  0.5648380000000 1.0
C      1  0.5579140000000  0.5378010000000  0.5478470000000 1.0
C      1  0.4382920000000  0.5312520000000  0.5478300000000 1.0
C      1  0.5037750000000  0.4309300000000  0.5478270000000 1.0
C      1  0.5028780000000  0.4835500000000  0.5297970000000 1.0
C      1  0.5127980000000  0.5107160000000  0.5298010000000 1.0
C      1  0.4843120000000  0.5057230000000  0.5297970000000 1.0
C      1  0.4856480000000  0.5821060000000  0.4659150000000 1.0
C      1  0.4360810000000  0.4465200000000  0.4658910000000 1.0
C      1  0.5782850000000  0.4713860000000  0.4659140000000 1.0
C      1  0.5048450000000  0.5696140000000  0.5343110000000 1.0
C      1  0.4372800000000  0.4693870000000  0.5342900000000 1.0
C      1  0.5578610000000  0.4609870000000  0.5343050000000 1.0
C      1  0.5541590000000  0.5691550000000  0.4783890000000 1.0
C      1  0.4130370000000  0.5123270000000  0.4783630000000 1.0
C      1  0.5328120000000  0.4185260000000  0.4783680000000 1.0
C      1  0.5285090000000  0.4302850000000  0.4504450000000 1.0
C      1  0.5461360000000  0.5595500000000  0.4504630000000 1.0
C      1  0.4253760000000  0.5101830000000  0.4504410000000 1.0
C      1  0.5217220000000  0.5549120000000  0.4364640000000 1.0
C      1  0.4416030000000  0.4913610000000  0.4364450000000 1.0
C      1  0.5367000000000  0.4537510000000  0.4364540000000 1.0
C      1  0.5131900000000  0.5251760000000  0.4312400000000 1.0
C      1  0.4716240000000  0.4988390000000  0.4312310000000 1.0
C      1  0.5152150000000  0.4760100000000  0.4312340000000 1.0
C      1  0.4591580000000  0.4520300000000  0.5264920000000 1.0
C      1  0.5619560000000  0.4886130000000  0.5265100000000 1.0
C      1  0.4788750000000  0.5593470000000  0.5265070000000 1.0
C      1  0.5563870000000  0.4959100000000  0.4322200000000 1.0
C      1  0.4753700000000  0.5508820000000  0.4322150000000 1.0
C      1  0.4682710000000  0.4532330000000  0.4322020000000 1.0
C      1  0.5601850000000  0.4690860000000  0.4426360000000 1.0
C      1  0.4966970000000  0.5675820000000  0.4426400000000 1.0
C      1  0.4431410000000  0.4633530000000  0.4426200000000 1.0
C      1  0.5772630000000  0.4618870000000  0.4935110000000 1.0
C      1  0.4943770000000  0.5859690000000  0.4935150000000 1.0
C      1  0.4283620000000  0.4521470000000  0.4934900000000 1.0
C      1  0.4303670000000  0.5390350000000  0.4517930000000 1.0
C      1  0.5010270000000  0.4201820000000  0.4517880000000 1.0
C      1  0.5686260000000  0.5408010000000  0.4518120000000 1.0
C      1  0.4572530000000  0.5752780000000  0.4670000000000 1.0
C      1  0.4561910000000  0.4253430000000  0.4669820000000 1.0
C      1  0.5865700000000  0.4993910000000  0.4670090000000 1.0
C      1  0.4179740000000  0.5407350000000  0.4776360000000 1.0
C      1  0.5057420000000  0.4085970000000  0.4776310000000 1.0
C      1  0.5762930000000  0.5506760000000  0.4776580000000 1.0
C      1  0.5455290000000  0.5707730000000  0.5055940000000 1.0
C      1  0.4159430000000  0.5040420000000  0.5055680000000 1.0
C      1  0.5385260000000  0.4251830000000  0.5055750000000 1.0
C      1  0.4634060000000  0.4179340000000  0.4935520000000 1.0
C      1  0.5893710000000  0.5093420000000  0.4935800000000 1.0
C      1  0.4472260000000  0.5727270000000  0.4935680000000 1.0
C      1  0.5844630000000  0.4855560000000  0.5086780000000 1.0
C      1  0.4702740000000  0.5803680000000  0.5086740000000 1.0
C      1  0.4452590000000  0.4340720000000  0.5086530000000 1.0
C      1  0.5598500000000  0.4445460000000  0.5110270000000 1.0
C      1  0.5180960000000  0.5795580000000  0.5110380000000 1.0
C      1  0.4220490000000  0.4758910000000  0.5110120000000 1.0
C      1  0.5033030000000  0.4694120000000  0.5045530000000 1.0
C      1  0.5248370000000  0.5181540000000  0.5045620000000 1.0
C      1  0.4718580000000  0.5124330000000  0.5045540000000 1.0
C      1  0.5740920000000  0.5139230000000  0.4459520000000 1.0
C      1  0.4509130000000  0.5572080000000  0.4459400000000 1.0
C      1  0.4750170000000  0.4288890000000  0.4459280000000 1.0
C      1  0.4846360000000  0.5252120000000  0.4235120000000 1.0
C      1  0.4858710000000  0.4740940000000  0.4235060000000 1.0
C      1  0.5295240000000  0.5007220000000  0.4235150000000 1.0
C      1  0.4713590000000  0.4910610000000  0.4864730000000 1.0
C      1  0.5220660000000  0.4796660000000  0.4864790000000 1.0
C      1  0.5065810000000  0.5292780000000  0.4864830000000 1.0
C      1  0.5576700000000  0.5063710000000  0.5505880000000 1.0
C      1  0.4656320000000  0.5467540000000  0.5505800000000 1.0
C      1  0.4766780000000  0.4468560000000  0.5505700000000 1.0
C      1  0.4728160000000  0.5168920000000  0.5541320000000 1.0
C      1  0.4989460000000  0.4680090000000  0.5541300000000 1.0
C      1  0.5282150000000  0.5150800000000  0.5541390000000 1.0
C      1  0.4726920000000  0.5074950000000  0.5843760000000 1.0
C      1  0.5071370000000  0.4725970000000  0.5843760000000 1.0
C      1  0.5201370000000  0.5198770000000  0.5843840000000 1.0
C      1  0.5806550000000  0.5362590000000  0.5012000000000 1.0
C      1  0.4282710000000  0.5517190000000  0.5011820000000 1.0
C      1  0.4910740000000  0.4120210000000  0.5011730000000 1.0
C      1  0.5107460000000  0.5599290000000  0.5600710000000 1.0
C      1  0.4427090000000  0.4793380000000  0.5600520000000 1.0
C      1  0.5465210000000  0.4607110000000  0.5600640000000 1.0
C      1  0.4820100000000  0.5368890000000  0.4975980000000 1.0
C      1  0.4770490000000  0.4659760000000  0.4975890000000 1.0
C      1  0.5409420000000  0.4971360000000  0.4976010000000 1.0
C      1  0.4262880000000  0.5296140000000  0.5215490000000 1.0
C      1  0.5112030000000  0.4213550000000  0.5215470000000 1.0
C      1  0.5625000000000  0.5490240000000  0.5215690000000 1.0
END
