TITL C-64391-574-5 -0.092362051684925 125000 -688.599747505804 0 0 99 (C1) n - 1
REM
REM in /rds/project/t2_vol4/rds-t2-cs072/BORA/CARBON/from-Arr/AIRSS/Generating-Clusters/GAP-ML-2020/Higher-Symm/SD-CG/HFTN-CG
REM
REM
REM
REM
REM
REM ./C.cell (b20cbc046b6831c77cfcea5457e17084)
REM AIRSS Version 0.9.1 bugfix July 2018 build 013d7b7c2542+ Fri, 06 Jul 2018 19:26:36 +0100
REM compiler GCC version 9.3.0
REM options -cpp -mtune=generic -march=x86-64 -g -O0
REM seed -1118015154 -65008346 -394663797 -1903806016 913250381 -206871112 -666680719 548787617 1031127774 245359820 1610871626 1575723875 1744274712 2044899711 755511311 2004757345 1160851441 978824876 -2011523890 431307373 -1636127622 193903703 1061186983 -371917783 1137567630 -481115479 -448103946 1610716932 -95085823 1538333788 -848951275 -1282073513 -1883452194
REM
CELL 1.54180   50.00000   50.00000   50.00000   90.00000   90.00000   90.00000
LATT -1
SFAC C  
C      1  0.4203640000000  0.4843520000000  0.5220870000000 1.0
C      1  0.4495560000000  0.4377540000000  0.5236440000000 1.0
C      1  0.5018030000000  0.4196710000000  0.5219960000000 1.0
C      1  0.5536050000000  0.4402190000000  0.5240230000000 1.0
C      1  0.5801410000000  0.4880300000000  0.5225700000000 1.0
C      1  0.5697470000000  0.5424590000000  0.5247620000000 1.0
C      1  0.5268940000000  0.5766870000000  0.5251790000000 1.0
C      1  0.4690020000000  0.5815570000000  0.5290550000000 1.0
C      1  0.4255830000000  0.5397270000000  0.5263910000000 1.0
C      1  0.4865810000000  0.4601390000000  0.5784380000000 1.0
C      1  0.5155440000000  0.4603330000000  0.5785320000000 1.0
C      1  0.5376030000000  0.4792020000000  0.5787110000000 1.0
C      1  0.5425910000000  0.5075670000000  0.5791710000000 1.0
C      1  0.5268840000000  0.5317830000000  0.5794850000000 1.0
C      1  0.4993550000000  0.5409070000000  0.5801960000000 1.0
C      1  0.4720070000000  0.5311610000000  0.5808240000000 1.0
C      1  0.4578570000000  0.5058750000000  0.5795860000000 1.0
C      1  0.4633730000000  0.4777080000000  0.5789500000000 1.0
C      1  0.4372820000000  0.5015560000000  0.4309790000000 1.0
C      1  0.4422270000000  0.4721450000000  0.4310910000000 1.0
C      1  0.4866390000000  0.4380020000000  0.4333240000000 1.0
C      1  0.5162780000000  0.4377100000000  0.4325490000000 1.0
C      1  0.5587580000000  0.4746430000000  0.4329190000000 1.0
C      1  0.5630250000000  0.5040530000000  0.4336960000000 1.0
C      1  0.5257010000000  0.5488560000000  0.4335790000000 1.0
C      1  0.4994210000000  0.5606230000000  0.4384530000000 1.0
C      1  0.4752670000000  0.5450280000000  0.4300120000000 1.0
C      1  0.4717460000000  0.4806800000000  0.5278570000000 1.0
C      1  0.4908790000000  0.4686770000000  0.5140480000000 1.0
C      1  0.5145790000000  0.4673980000000  0.5259590000000 1.0
C      1  0.5299540000000  0.4858980000000  0.5145040000000 1.0
C      1  0.5330800000000  0.5071190000000  0.5302300000000 1.0
C      1  0.5220950000000  0.5265950000000  0.5164870000000 1.0
C      1  0.4964420000000  0.5370630000000  0.5185960000000 1.0
C      1  0.4777610000000  0.5240870000000  0.5320700000000 1.0
C      1  0.4681660000000  0.5046770000000  0.5165280000000 1.0
C      1  0.5016140000000  0.5243940000000  0.3962040000000 1.0
C      1  0.4764920000000  0.5264260000000  0.4078670000000 1.0
C      1  0.4581090000000  0.5047060000000  0.4104120000000 1.0
C      1  0.4637290000000  0.4759050000000  0.4109550000000 1.0
C      1  0.4864080000000  0.4596210000000  0.4131760000000 1.0
C      1  0.5160100000000  0.4602840000000  0.4132810000000 1.0
C      1  0.5374240000000  0.4785170000000  0.4129150000000 1.0
C      1  0.5427550000000  0.5076700000000  0.4134290000000 1.0
C      1  0.5249480000000  0.5292540000000  0.4115410000000 1.0
C      1  0.5259530000000  0.5759330000000  0.4988700000000 1.0
C      1  0.4685060000000  0.5771740000000  0.5026570000000 1.0
C      1  0.4297070000000  0.5395320000000  0.5000330000000 1.0
C      1  0.4222880000000  0.4853620000000  0.4951970000000 1.0
C      1  0.4512830000000  0.4406110000000  0.4976910000000 1.0
C      1  0.5017990000000  0.4217990000000  0.4953450000000 1.0
C      1  0.5508410000000  0.4430810000000  0.4981510000000 1.0
C      1  0.5781740000000  0.4898030000000  0.4955310000000 1.0
C      1  0.5674200000000  0.5408000000000  0.4981450000000 1.0
C      1  0.5222800000000  0.5310990000000  0.4858530000000 1.0
C      1  0.4954570000000  0.5440820000000  0.4873960000000 1.0
C      1  0.4694270000000  0.5361150000000  0.4777590000000 1.0
C      1  0.4620880000000  0.5078600000000  0.4876950000000 1.0
C      1  0.4665590000000  0.4815550000000  0.4755800000000 1.0
C      1  0.4883840000000  0.4648540000000  0.4841200000000 1.0
C      1  0.5153360000000  0.4626900000000  0.4749790000000 1.0
C      1  0.5330920000000  0.4832680000000  0.4838440000000 1.0
C      1  0.5312090000000  0.5084770000000  0.4707900000000 1.0
C      1  0.5460150000000  0.5476150000000  0.4538920000000 1.0
C      1  0.4966660000000  0.5791950000000  0.4585910000000 1.0
C      1  0.4580130000000  0.5381120000000  0.4509240000000 1.0
C      1  0.4356710000000  0.5191680000000  0.4524850000000 1.0
C      1  0.4460700000000  0.4561000000000  0.4537970000000 1.0
C      1  0.4678390000000  0.4365080000000  0.4539330000000 1.0
C      1  0.5334940000000  0.4399020000000  0.4550410000000 1.0
C      1  0.5573110000000  0.4569640000000  0.4540720000000 1.0
C      1  0.5592900000000  0.5196800000000  0.4573910000000 1.0
C      1  0.4309830000000  0.5129100000000  0.4823390000000 1.0
C      1  0.4407130000000  0.4642460000000  0.4818090000000 1.0
C      1  0.4766590000000  0.4348720000000  0.4817910000000 1.0
C      1  0.5263510000000  0.4354480000000  0.4830280000000 1.0
C      1  0.5605930000000  0.4671470000000  0.4816650000000 1.0
C      1  0.5740770000000  0.5170220000000  0.4828070000000 1.0
C      1  0.5425230000000  0.5541850000000  0.4826090000000 1.0
C      1  0.4968950000000  0.5747080000000  0.4860020000000 1.0
C      1  0.4519010000000  0.5558470000000  0.4914270000000 1.0
C      1  0.4988640000000  0.5658590000000  0.5652860000000 1.0
C      1  0.4557520000000  0.5504810000000  0.5660950000000 1.0
C      1  0.4342680000000  0.5098910000000  0.5632460000000 1.0
C      1  0.4424250000000  0.4652890000000  0.5630800000000 1.0
C      1  0.4788320000000  0.4372660000000  0.5623340000000 1.0
C      1  0.5242790000000  0.4374000000000  0.5630410000000 1.0
C      1  0.5588610000000  0.4678490000000  0.5628380000000 1.0
C      1  0.5668020000000  0.5126380000000  0.5639490000000 1.0
C      1  0.5421250000000  0.5512140000000  0.5643530000000 1.0
C      1  0.4528400000000  0.4415590000000  0.5502270000000 1.0
C      1  0.5017690000000  0.4255850000000  0.5485330000000 1.0
C      1  0.5498260000000  0.4434830000000  0.5505140000000 1.0
C      1  0.5745390000000  0.4885300000000  0.5491320000000 1.0
C      1  0.5651150000000  0.5388110000000  0.5512680000000 1.0
C      1  0.5245470000000  0.5703750000000  0.5516360000000 1.0
C      1  0.4724110000000  0.5713650000000  0.5542850000000 1.0
C      1  0.4338260000000  0.5364800000000  0.5520100000000 1.0
C      1  0.4267710000000  0.4854810000000  0.5486700000000 1.0
END
