TITL C-64412-425-6 -0.00997393787948883 125000 -466.507599327032 0 0 66 (C1) n - 1
REM
REM in /rds/project/t2_vol4/rds-t2-cs072/BORA/CARBON/from-Arr/AIRSS/Generating-Clusters/GAP-ML-2020/Higher-Symm/SD-CG/HFTN-CG
REM
REM
REM
REM
REM
REM ./C.cell (b20cbc046b6831c77cfcea5457e17084)
REM AIRSS Version 0.9.1 bugfix July 2018 build 013d7b7c2542+ Fri, 06 Jul 2018 19:26:36 +0100
REM compiler GCC version 9.3.0
REM options -cpp -mtune=generic -march=x86-64 -g -O0
REM seed 1475919615 50206389 873932137 -1894265708 517740113 -1480252289 -1002991171 -539909968 -295348493 847404915 1078580379 -970207798 1079025359 -1454071811 1666368073 113377480 -1628900191 1411994195 541075608 -66640865 141778321 672196760 561272155 -719227178 1848584144 -501310067 -2008897057 -900840191 1773576147 -2147205158 -581780346 -1065577506 -1930094700
REM
CELL 1.54180   50.00000   50.00000   50.00000   90.00000   90.00000   90.00000
LATT -1
SFAC C  
C      1  0.4624310000000  0.4890430000000  0.4528180000000 1.0
C      1  0.4958250000000  0.4968550000000  0.4957230000000 1.0
C      1  0.4496960000000  0.4591520000000  0.5349460000000 1.0
C      1  0.4576000000000  0.4427620000000  0.5133210000000 1.0
C      1  0.4846930000000  0.5013240000000  0.4703470000000 1.0
C      1  0.4938230000000  0.5071330000000  0.5199430000000 1.0
C      1  0.4329760000000  0.4701010000000  0.4823390000000 1.0
C      1  0.4350640000000  0.5405900000000  0.4871120000000 1.0
C      1  0.4318610000000  0.5048010000000  0.5397220000000 1.0
C      1  0.5192630000000  0.4576070000000  0.5473050000000 1.0
C      1  0.5243720000000  0.4781040000000  0.4353760000000 1.0
C      1  0.5183220000000  0.5652840000000  0.5112780000000 1.0
C      1  0.4469480000000  0.5433240000000  0.4622180000000 1.0
C      1  0.4496900000000  0.5156530000000  0.5574060000000 1.0
C      1  0.4528910000000  0.4484960000000  0.4859570000000 1.0
C      1  0.5107640000000  0.5734990000000  0.4854000000000 1.0
C      1  0.5129180000000  0.4784790000000  0.5655360000000 1.0
C      1  0.5177280000000  0.4523490000000  0.4456090000000 1.0
C      1  0.5553330000000  0.4304300000000  0.5277710000000 1.0
C      1  0.5491260000000  0.5170790000000  0.4259610000000 1.0
C      1  0.5478880000000  0.5592950000000  0.5486190000000 1.0
C      1  0.4724060000000  0.5552000000000  0.4594630000000 1.0
C      1  0.4738300000000  0.5083840000000  0.5708500000000 1.0
C      1  0.4771910000000  0.4396050000000  0.4718560000000 1.0
C      1  0.5544840000000  0.5299290000000  0.5103780000000 1.0
C      1  0.5548390000000  0.4807500000000  0.5171950000000 1.0
C      1  0.5554660000000  0.4993470000000  0.4711220000000 1.0
C      1  0.5226140000000  0.4248590000000  0.4864330000000 1.0
C      1  0.5173980000000  0.5553680000000  0.4402480000000 1.0
C      1  0.5193860000000  0.5263630000000  0.5782290000000 1.0
C      1  0.5302230000000  0.4993670000000  0.5724040000000 1.0
C      1  0.5338620000000  0.4393250000000  0.4637900000000 1.0
C      1  0.5279790000000  0.5674180000000  0.4646770000000 1.0
C      1  0.5541820000000  0.4504280000000  0.4808480000000 1.0
C      1  0.5497130000000  0.5476640000000  0.4644100000000 1.0
C      1  0.5508990000000  0.5118580000000  0.5557480000000 1.0
C      1  0.4840090000000  0.4819200000000  0.5679610000000 1.0
C      1  0.4886470000000  0.4490110000000  0.4471980000000 1.0
C      1  0.4819270000000  0.5685440000000  0.4823730000000 1.0
C      1  0.5463340000000  0.4950920000000  0.4435850000000 1.0
C      1  0.5435020000000  0.5549000000000  0.5211560000000 1.0
C      1  0.5438970000000  0.4571850000000  0.5318090000000 1.0
C      1  0.4169440000000  0.4738490000000  0.5043570000000 1.0
C      1  0.4316680000000  0.5202090000000  0.4683220000000 1.0
C      1  0.4418320000000  0.5305480000000  0.5342390000000 1.0
C      1  0.4920060000000  0.5144330000000  0.4446400000000 1.0
C      1  0.4958450000000  0.5299140000000  0.5365200000000 1.0
C      1  0.4839510000000  0.4330380000000  0.5172900000000 1.0
C      1  0.4924530000000  0.5425140000000  0.4431880000000 1.0
C      1  0.4945120000000  0.5272670000000  0.5651090000000 1.0
C      1  0.4954090000000  0.4289120000000  0.4915460000000 1.0
C      1  0.5419450000000  0.5394770000000  0.4372310000000 1.0
C      1  0.5427610000000  0.5386480000000  0.5639860000000 1.0
C      1  0.5450850000000  0.4330270000000  0.5034930000000 1.0
C      1  0.4472620000000  0.5473630000000  0.5119540000000 1.0
C      1  0.4297260000000  0.4786770000000  0.5283560000000 1.0
C      1  0.4372400000000  0.4921580000000  0.4641170000000 1.0
C      1  0.5564270000000  0.5072150000000  0.5280090000000 1.0
C      1  0.5570690000000  0.4771670000000  0.4890880000000 1.0
C      1  0.5551000000000  0.5258440000000  0.4822650000000 1.0
C      1  0.4723840000000  0.4609620000000  0.5524000000000 1.0
C      1  0.4778980000000  0.4727150000000  0.4355350000000 1.0
C      1  0.4720910000000  0.5607770000000  0.5080590000000 1.0
C      1  0.4950820000000  0.5551890000000  0.5238890000000 1.0
C      1  0.4939640000000  0.4454360000000  0.5408070000000 1.0
C      1  0.4993440000000  0.4907870000000  0.4291570000000 1.0
END
