TITL C-64783-5773-10 -0.0130605960754895 125000 -133.849663011506 0 0 20 (Cs) n - 1
REM
REM in /rds/project/t2_vol4/rds-t2-cs072/BORA/CARBON/from-Arr/AIRSS/Generating-Clusters/GAP-ML-2020/Higher-Symm/SD-CG/HFTN-CG
REM
REM
REM
REM
REM
REM ./C.cell (b20cbc046b6831c77cfcea5457e17084)
REM AIRSS Version 0.9.1 bugfix July 2018 build 013d7b7c2542+ Fri, 06 Jul 2018 19:26:36 +0100
REM compiler GCC version 9.3.0
REM options -cpp -mtune=generic -march=x86-64 -g -O0
REM seed 742840762 528241232 -8686619 -533078842 -821451915 -737964730 1719526415 1661518612 -1813963135 -399114530 -270621370 1361780106 -1544645377 -1890081878 -953826615 -689158327 1241723243 1142678665 889082377 -885142706 -1365064734 -1831632876 704483346 581473204 -1210135804 -1834076634 1701910567 -2129288101 -2059851205 1320883034 879952013 764065197 1281374530
REM
CELL 1.54180   50.00000   50.00000   50.00000   90.00000   90.00000   90.00000
LATT -1
SFAC C  
C      1  0.4477390000000  0.4789340000000  0.4499000000000 1.0
C      1  0.4504580000000  0.5273360000000  0.4491840000000 1.0
C      1  0.4765730000000  0.5542580000000  0.4827400000000 1.0
C      1  0.4877430000000  0.5382040000000  0.5293280000000 1.0
C      1  0.4761580000000  0.4958800000000  0.5543780000000 1.0
C      1  0.4499640000000  0.4577280000000  0.5346020000000 1.0
C      1  0.4475240000000  0.4486730000000  0.4870330000000 1.0
C      1  0.4617390000000  0.4608250000000  0.4661200000000 1.0
C      1  0.4424370000000  0.5029120000000  0.4432110000000 1.0
C      1  0.4625490000000  0.5453030000000  0.4625580000000 1.0
C      1  0.4850750000000  0.5500420000000  0.5066170000000 1.0
C      1  0.4848500000000  0.5183660000000  0.5454880000000 1.0
C      1  0.4620460000000  0.4743850000000  0.5495820000000 1.0
C      1  0.4420400000000  0.4469930000000  0.5118300000000 1.0
C      1  0.5866810000000  0.5312690000000  0.5242490000000 1.0
C      1  0.5665400000000  0.5192550000000  0.5143420000000 1.0
C      1  0.5077870000000  0.4800050000000  0.4820170000000 1.0
C      1  0.5460520000000  0.5065080000000  0.5038370000000 1.0
C      1  0.5258460000000  0.4952660000000  0.4945580000000 1.0
C      1  0.4887990000000  0.4674840000000  0.4717040000000 1.0
END
