TITL C-64776-4715-7 59.5080143371275 125000 -812.011181895613 0 0 114 (Ci) n - 1
REM
REM in /rds/project/t2_vol4/rds-t2-cs072/BORA/CARBON/from-Arr/AIRSS/Generating-Clusters/GAP-ML-2020/Higher-Symm/SD-CG/HFTN-CG
REM
REM
REM
REM
REM
REM ./C.cell (b20cbc046b6831c77cfcea5457e17084)
REM AIRSS Version 0.9.1 bugfix July 2018 build 013d7b7c2542+ Fri, 06 Jul 2018 19:26:36 +0100
REM compiler GCC version 9.3.0
REM options -cpp -mtune=generic -march=x86-64 -g -O0
REM seed -1324015768 -1323892831 -1405076654 -996912903 842008585 -2000924113 1372146762 1307517015 2041780781 -1206534120 1059413575 -1673063378 -940161067 1789111079 -339303508 -1485326705 -565623214 -1837296801 939362210 1060484227 318331687 66503011 2050987319 1219936458 1069875843 -1080465758 1371989123 1207616861 473588651 1671871856 -125339154 368812481 207829413
REM
CELL 1.54180   50.00000   50.00000   50.00000   90.00000   90.00000   90.00000
LATT -1
SFAC C  
C      1  0.4063940000000  0.5023290000000  0.5288930000000 1.0
C      1  0.5936060000000  0.4976710000000  0.4711070000000 1.0
C      1  0.4769030000000  0.5704280000000  0.5578210000000 1.0
C      1  0.5230970000000  0.4295720000000  0.4421790000000 1.0
C      1  0.4733330000000  0.4450020000000  0.4396150000000 1.0
C      1  0.5266670000000  0.5549980000000  0.5603850000000 1.0
C      1  0.5054730000000  0.5053720000000  0.5274170000000 1.0
C      1  0.4945270000000  0.4946280000000  0.4725830000000 1.0
C      1  0.5076470000000  0.5153510000000  0.4126010000000 1.0
C      1  0.4923530000000  0.4846490000000  0.5873990000000 1.0
C      1  0.5305020000000  0.4337040000000  0.5056360000000 1.0
C      1  0.4694980000000  0.5662960000000  0.4943640000000 1.0
C      1  0.4827570000000  0.4075880000000  0.5489820000000 1.0
C      1  0.5172430000000  0.5924120000000  0.4510180000000 1.0
C      1  0.5296740000000  0.5919090000000  0.5226690000000 1.0
C      1  0.4703260000000  0.4080910000000  0.4773310000000 1.0
C      1  0.5254480000000  0.4628060000000  0.4900050000000 1.0
C      1  0.4745520000000  0.5371940000000  0.5099950000000 1.0
C      1  0.5580060000000  0.5729000000000  0.4862130000000 1.0
C      1  0.4419940000000  0.4271000000000  0.5137870000000 1.0
C      1  0.4350290000000  0.5649470000000  0.5312140000000 1.0
C      1  0.5649710000000  0.4350530000000  0.4687860000000 1.0
C      1  0.5480670000000  0.4423420000000  0.4466690000000 1.0
C      1  0.4519330000000  0.5576580000000  0.5533310000000 1.0
C      1  0.4771770000000  0.5875290000000  0.5352320000000 1.0
C      1  0.5228230000000  0.4124710000000  0.4647680000000 1.0
C      1  0.4598810000000  0.4940530000000  0.5189280000000 1.0
C      1  0.5401190000000  0.5059470000000  0.4810720000000 1.0
C      1  0.5223610000000  0.4911310000000  0.4144050000000 1.0
C      1  0.4776390000000  0.5088690000000  0.5855950000000 1.0
C      1  0.4226120000000  0.5253690000000  0.4580350000000 1.0
C      1  0.5773880000000  0.4746310000000  0.5419650000000 1.0
C      1  0.5137810000000  0.5179370000000  0.4782070000000 1.0
C      1  0.4862190000000  0.4820630000000  0.5217930000000 1.0
C      1  0.5790630000000  0.4787010000000  0.4560350000000 1.0
C      1  0.4209370000000  0.5212990000000  0.5439650000000 1.0
C      1  0.4757850000000  0.5380520000000  0.4527560000000 1.0
C      1  0.5242150000000  0.4619480000000  0.5472440000000 1.0
C      1  0.4992730000000  0.5556120000000  0.5696000000000 1.0
C      1  0.5007270000000  0.4443880000000  0.4304000000000 1.0
C      1  0.4482940000000  0.4405550000000  0.5382340000000 1.0
C      1  0.5517060000000  0.5594450000000  0.4617660000000 1.0
C      1  0.4592220000000  0.4673010000000  0.4273670000000 1.0
C      1  0.5407780000000  0.5326990000000  0.5726330000000 1.0
C      1  0.5629050000000  0.5540090000000  0.5295870000000 1.0
C      1  0.4370950000000  0.4459910000000  0.4704130000000 1.0
C      1  0.5658050000000  0.5370690000000  0.4518820000000 1.0
C      1  0.4341950000000  0.4629310000000  0.5481180000000 1.0
C      1  0.5910360000000  0.4882130000000  0.5195320000000 1.0
C      1  0.4089640000000  0.5117870000000  0.4804680000000 1.0
C      1  0.4259730000000  0.4698710000000  0.4599470000000 1.0
C      1  0.5740270000000  0.5301290000000  0.5400530000000 1.0
C      1  0.5386000000000  0.4863820000000  0.5015030000000 1.0
C      1  0.4614000000000  0.5136180000000  0.4984970000000 1.0
C      1  0.5944240000000  0.4777900000000  0.4927900000000 1.0
C      1  0.4055760000000  0.5222100000000  0.5072100000000 1.0
C      1  0.4637920000000  0.4350440000000  0.4656020000000 1.0
C      1  0.5362080000000  0.5649560000000  0.5343980000000 1.0
C      1  0.5354160000000  0.4633690000000  0.4613140000000 1.0
C      1  0.4645840000000  0.5366310000000  0.5386860000000 1.0
C      1  0.4333680000000  0.5493450000000  0.4643570000000 1.0
C      1  0.5666320000000  0.4506550000000  0.5356430000000 1.0
C      1  0.4269940000000  0.4428000000000  0.4961810000000 1.0
C      1  0.5730060000000  0.5572000000000  0.5038190000000 1.0
C      1  0.4960850000000  0.5307380000000  0.5844600000000 1.0
C      1  0.5039150000000  0.4692620000000  0.4155400000000 1.0
C      1  0.5465990000000  0.4971590000000  0.4279920000000 1.0
C      1  0.4534010000000  0.5028410000000  0.5720080000000 1.0
C      1  0.4958550000000  0.4710800000000  0.4924340000000 1.0
C      1  0.5041450000000  0.5289200000000  0.5075660000000 1.0
C      1  0.4996990000000  0.4060560000000  0.4791500000000 1.0
C      1  0.5003010000000  0.5939440000000  0.5208500000000 1.0
C      1  0.4978320000000  0.5774750000000  0.4966670000000 1.0
C      1  0.5021680000000  0.4225250000000  0.5033330000000 1.0
C      1  0.4755090000000  0.4351040000000  0.5479950000000 1.0
C      1  0.5244910000000  0.5648960000000  0.4520050000000 1.0
C      1  0.4834710000000  0.4081030000000  0.5217460000000 1.0
C      1  0.5165290000000  0.5918970000000  0.4782540000000 1.0
C      1  0.4128650000000  0.4658390000000  0.5037220000000 1.0
C      1  0.5871350000000  0.5341610000000  0.4962780000000 1.0
C      1  0.4828680000000  0.4458780000000  0.4914910000000 1.0
C      1  0.5171320000000  0.5541220000000  0.5085090000000 1.0
C      1  0.4140500000000  0.4750980000000  0.5301970000000 1.0
C      1  0.5859500000000  0.5249020000000  0.4698030000000 1.0
C      1  0.5503130000000  0.4868260000000  0.4551060000000 1.0
C      1  0.4496870000000  0.5131740000000  0.5448940000000 1.0
C      1  0.5395010000000  0.5920530000000  0.4958000000000 1.0
C      1  0.4604990000000  0.4079470000000  0.5042000000000 1.0
C      1  0.5496380000000  0.5251040000000  0.4314270000000 1.0
C      1  0.4503620000000  0.4748960000000  0.5685730000000 1.0
C      1  0.5833790000000  0.4565170000000  0.4746060000000 1.0
C      1  0.4166210000000  0.5434830000000  0.5253940000000 1.0
C      1  0.5294390000000  0.4912680000000  0.5278200000000 1.0
C      1  0.4705610000000  0.5087320000000  0.4721800000000 1.0
C      1  0.5071510000000  0.5399440000000  0.4529540000000 1.0
C      1  0.4928490000000  0.4600560000000  0.5470460000000 1.0
C      1  0.4373970000000  0.4823950000000  0.4377140000000 1.0
C      1  0.5626030000000  0.5176050000000  0.5622860000000 1.0
C      1  0.5376880000000  0.4756880000000  0.5701820000000 1.0
C      1  0.4623120000000  0.5243120000000  0.4298180000000 1.0
C      1  0.5222650000000  0.5342280000000  0.4279950000000 1.0
C      1  0.4777350000000  0.4657720000000  0.5720050000000 1.0
C      1  0.5451980000000  0.4200260000000  0.4837840000000 1.0
C      1  0.4548020000000  0.5799740000000  0.5162160000000 1.0
C      1  0.5626130000000  0.4886890000000  0.5624430000000 1.0
C      1  0.4373870000000  0.5113110000000  0.4375570000000 1.0
C      1  0.4799210000000  0.5099560000000  0.4132750000000 1.0
C      1  0.5200790000000  0.4900450000000  0.5867250000000 1.0
C      1  0.4114110000000  0.4833180000000  0.4804460000000 1.0
C      1  0.5885890000000  0.5166820000000  0.5195540000000 1.0
C      1  0.5218060000000  0.5185370000000  0.5874020000000 1.0
C      1  0.4781940000000  0.4814630000000  0.4125980000000 1.0
C      1  0.5413280000000  0.4419730000000  0.5328450000000 1.0
C      1  0.4586720000000  0.5580270000000  0.4671550000000 1.0
END
