TITL C-64398-539-8 -0.118356248628768 125000 -593.340219126734 0 0 87 (C1) n - 1
REM
REM in /rds/project/t2_vol4/rds-t2-cs072/BORA/CARBON/from-Arr/AIRSS/Generating-Clusters/GAP-ML-2020/Higher-Symm/SD-CG/HFTN-CG
REM
REM
REM
REM
REM
REM ./C.cell (b20cbc046b6831c77cfcea5457e17084)
REM AIRSS Version 0.9.1 bugfix July 2018 build 013d7b7c2542+ Fri, 06 Jul 2018 19:26:36 +0100
REM compiler GCC version 9.3.0
REM options -cpp -mtune=generic -march=x86-64 -g -O0
REM seed 917609609 -790350534 1153921496 -209561171 1173185414 -1468220606 -964487053 2070582726 -1644513940 392065858 1760836914 -250112700 -77142168 -1648669907 264634840 1255106007 1577265363 2010828682 1559673664 -1933971160 -1044580452 -690140848 1998628480 2142839665 -294579316 1945307255 1591636239 889004793 -14492725 -1902906691 1310056703 50670143 -1490700038
REM
CELL 1.54180   50.00000   50.00000   50.00000   90.00000   90.00000   90.00000
LATT -1
SFAC C  
C      1  0.4259840000000  0.4395850000000  0.5086250000000 1.0
C      1  0.4256560000000  0.5257160000000  0.5426100000000 1.0
C      1  0.4200100000000  0.5142560000000  0.4483780000000 1.0
C      1  0.5737090000000  0.4435880000000  0.5252380000000 1.0
C      1  0.5831280000000  0.5377540000000  0.5431750000000 1.0
C      1  0.5770290000000  0.5068420000000  0.4525310000000 1.0
C      1  0.4236530000000  0.5464730000000  0.5178460000000 1.0
C      1  0.4264430000000  0.4543760000000  0.5365720000000 1.0
C      1  0.4193140000000  0.4832360000000  0.4457820000000 1.0
C      1  0.5815280000000  0.5506790000000  0.5143280000000 1.0
C      1  0.5796980000000  0.4617510000000  0.5519570000000 1.0
C      1  0.5741840000000  0.4751650000000  0.4570120000000 1.0
C      1  0.5806470000000  0.4780980000000  0.4842680000000 1.0
C      1  0.5833040000000  0.4839670000000  0.5339240000000 1.0
C      1  0.5844970000000  0.5242290000000  0.5032230000000 1.0
C      1  0.4176990000000  0.4811730000000  0.4743970000000 1.0
C      1  0.4161810000000  0.4777530000000  0.5232940000000 1.0
C      1  0.4154340000000  0.5239310000000  0.5019680000000 1.0
C      1  0.5833650000000  0.5080850000000  0.4805790000000 1.0
C      1  0.5851210000000  0.5117930000000  0.5307600000000 1.0
C      1  0.5799560000000  0.4667130000000  0.5096050000000 1.0
C      1  0.4175870000000  0.5113030000000  0.4770920000000 1.0
C      1  0.4150450000000  0.5055910000000  0.5259420000000 1.0
C      1  0.4170710000000  0.4642860000000  0.4966290000000 1.0
C      1  0.4709810000000  0.4683370000000  0.4493270000000 1.0
C      1  0.4773870000000  0.4751940000000  0.5492310000000 1.0
C      1  0.4735000000000  0.5596540000000  0.4963060000000 1.0
C      1  0.5246080000000  0.4753930000000  0.4422580000000 1.0
C      1  0.5259380000000  0.4693480000000  0.5375670000000 1.0
C      1  0.5293220000000  0.5621640000000  0.4944490000000 1.0
C      1  0.4716870000000  0.5347270000000  0.4491950000000 1.0
C      1  0.4774350000000  0.5336990000000  0.5481020000000 1.0
C      1  0.4736130000000  0.4449130000000  0.4928830000000 1.0
C      1  0.5277000000000  0.5353250000000  0.4479620000000 1.0
C      1  0.5306190000000  0.5261780000000  0.5508680000000 1.0
C      1  0.5267270000000  0.4487140000000  0.4956880000000 1.0
C      1  0.5151530000000  0.5738820000000  0.4733140000000 1.0
C      1  0.5146250000000  0.4484160000000  0.4474590000000 1.0
C      1  0.5165770000000  0.4861380000000  0.5795880000000 1.0
C      1  0.4856970000000  0.5730970000000  0.4750230000000 1.0
C      1  0.4861300000000  0.4446940000000  0.4486420000000 1.0
C      1  0.4879560000000  0.4894950000000  0.5709740000000 1.0
C      1  0.5170280000000  0.4352180000000  0.4732750000000 1.0
C      1  0.5144470000000  0.5599380000000  0.4482000000000 1.0
C      1  0.5175990000000  0.5150210000000  0.5734300000000 1.0
C      1  0.4882460000000  0.4311120000000  0.4737360000000 1.0
C      1  0.4849180000000  0.5594220000000  0.4500030000000 1.0
C      1  0.4892790000000  0.5178470000000  0.5695170000000 1.0
C      1  0.4761330000000  0.5164310000000  0.5209850000000 1.0
C      1  0.4728280000000  0.5164270000000  0.4723900000000 1.0
C      1  0.4738540000000  0.4742410000000  0.4971840000000 1.0
C      1  0.5284140000000  0.5176750000000  0.5223760000000 1.0
C      1  0.5260260000000  0.5197320000000  0.4728560000000 1.0
C      1  0.5265000000000  0.4770610000000  0.4936220000000 1.0
C      1  0.4745500000000  0.4881890000000  0.5220540000000 1.0
C      1  0.4727930000000  0.4877990000000  0.4725210000000 1.0
C      1  0.4741750000000  0.5302450000000  0.4968410000000 1.0
C      1  0.5288220000000  0.4897780000000  0.5189650000000 1.0
C      1  0.5242190000000  0.4920810000000  0.4706360000000 1.0
C      1  0.5277830000000  0.5328580000000  0.4976430000000 1.0
C      1  0.4765200000000  0.4232810000000  0.5107830000000 1.0
C      1  0.4897260000000  0.5618560000000  0.5409160000000 1.0
C      1  0.4653100000000  0.5219940000000  0.4250380000000 1.0
C      1  0.5231970000000  0.4417270000000  0.5252620000000 1.0
C      1  0.5365840000000  0.5529170000000  0.5576930000000 1.0
C      1  0.5331730000000  0.5175990000000  0.4264690000000 1.0
C      1  0.4688240000000  0.5705460000000  0.5219950000000 1.0
C      1  0.4762330000000  0.4467550000000  0.5489600000000 1.0
C      1  0.4645800000000  0.4779640000000  0.4237300000000 1.0
C      1  0.5358620000000  0.5744600000000  0.5187710000000 1.0
C      1  0.5322720000000  0.4683960000000  0.5653960000000 1.0
C      1  0.5120520000000  0.4967200000000  0.4230580000000 1.0
C      1  0.4477130000000  0.5411600000000  0.5515950000000 1.0
C      1  0.4375260000000  0.5147210000000  0.4252080000000 1.0
C      1  0.4489640000000  0.4242260000000  0.5174680000000 1.0
C      1  0.5642760000000  0.5573750000000  0.5520700000000 1.0
C      1  0.5586160000000  0.5050190000000  0.4311040000000 1.0
C      1  0.5499720000000  0.4342900000000  0.5384730000000 1.0
C      1  0.4495570000000  0.4384610000000  0.5429790000000 1.0
C      1  0.4369210000000  0.4852650000000  0.4232690000000 1.0
C      1  0.4432420000000  0.5619850000000  0.5311870000000 1.0
C      1  0.5556740000000  0.4516100000000  0.5633350000000 1.0
C      1  0.5539600000000  0.4765100000000  0.4371870000000 1.0
C      1  0.5631350000000  0.5696980000000  0.5254190000000 1.0
C      1  0.4836970000000  0.4992660000000  0.4177870000000 1.0
C      1  0.5178300000000  0.5685820000000  0.5418030000000 1.0
C      1  0.4951810000000  0.4308270000000  0.5322430000000 1.0
END
