TITL C-64774-4614-8 11.4455084753569 125000 -252.015677366421 0 0 37 (C1) n - 1
REM
REM in /rds/project/t2_vol4/rds-t2-cs072/BORA/CARBON/from-Arr/AIRSS/Generating-Clusters/GAP-ML-2020/Higher-Symm/SD-CG/HFTN-CG
REM
REM
REM
REM
REM
REM ./C.cell (b20cbc046b6831c77cfcea5457e17084)
REM AIRSS Version 0.9.1 bugfix July 2018 build 013d7b7c2542+ Fri, 06 Jul 2018 19:26:36 +0100
REM compiler GCC version 9.3.0
REM options -cpp -mtune=generic -march=x86-64 -g -O0
REM seed -1356947347 817699201 -349021090 -60749344 308530508 1215638151 1590465129 561067031 2119417014 -1768606349 245116906 -515323184 769546519 -103622839 -66354015 -1051348461 -838558083 589937034 673411148 -1185036787 1417804968 216562569 171283273 500383519 1829891080 779557881 1671924200 1592938250 -1898676852 1915865395 -1000078122 94854610 -1662671718
REM
CELL 1.54180   50.00000   50.00000   50.00000   90.00000   90.00000   90.00000
LATT -1
SFAC C  
C      1  0.4561260000000  0.4702050000000  0.5402070000000 1.0
C      1  0.5132270000000  0.4508950000000  0.5363360000000 1.0
C      1  0.5367470000000  0.4690320000000  0.5365810000000 1.0
C      1  0.5360490000000  0.5260790000000  0.5383310000000 1.0
C      1  0.5169380000000  0.5484200000000  0.5325560000000 1.0
C      1  0.4885590000000  0.5418450000000  0.5383260000000 1.0
C      1  0.4499320000000  0.4995560000000  0.5401910000000 1.0
C      1  0.5224730000000  0.5687740000000  0.5163090000000 1.0
C      1  0.4713720000000  0.5367700000000  0.5163140000000 1.0
C      1  0.4518330000000  0.5156190000000  0.5172160000000 1.0
C      1  0.4542170000000  0.4518520000000  0.5216600000000 1.0
C      1  0.5013220000000  0.4389790000000  0.5162470000000 1.0
C      1  0.5468340000000  0.4832600000000  0.5147180000000 1.0
C      1  0.5471290000000  0.5122280000000  0.5161840000000 1.0
C      1  0.4986770000000  0.4476900000000  0.4885720000000 1.0
C      1  0.5416790000000  0.4755270000000  0.4874970000000 1.0
C      1  0.5448770000000  0.5223600000000  0.4886250000000 1.0
C      1  0.5218060000000  0.5619890000000  0.4895460000000 1.0
C      1  0.4804420000000  0.5392140000000  0.4882740000000 1.0
C      1  0.4494810000000  0.5037320000000  0.4909320000000 1.0
C      1  0.4522280000000  0.4583210000000  0.4930270000000 1.0
C      1  0.5025390000000  0.4663120000000  0.5604320000000 1.0
C      1  0.5267410000000  0.4827940000000  0.5598730000000 1.0
C      1  0.5277710000000  0.5108400000000  0.5617180000000 1.0
C      1  0.5084900000000  0.5218600000000  0.5783280000000 1.0
C      1  0.4858640000000  0.5258180000000  0.5625140000000 1.0
C      1  0.4684950000000  0.5039200000000  0.5619810000000 1.0
C      1  0.4767090000000  0.4757550000000  0.5617270000000 1.0
C      1  0.5443990000000  0.5482470000000  0.4806430000000 1.0
C      1  0.4963610000000  0.5586180000000  0.4782890000000 1.0
C      1  0.4715300000000  0.5143470000000  0.4746690000000 1.0
C      1  0.4370150000000  0.4805600000000  0.4858430000000 1.0
C      1  0.4731030000000  0.4501580000000  0.4769460000000 1.0
C      1  0.5189000000000  0.4628400000000  0.4758820000000 1.0
C      1  0.5375780000000  0.4997970000000  0.4718430000000 1.0
C      1  0.4868260000000  0.4976900000000  0.4592180000000 1.0
C      1  0.5120150000000  0.4881620000000  0.4611590000000 1.0
END
