TITL C-64411-1331-7 -23.8774899533188 125000 -108.756521344753 0 0 17 (C4v) n - 1
REM
REM in /rds/project/t2_vol4/rds-t2-cs072/BORA/CARBON/from-Arr/AIRSS/Generating-Clusters/GAP-ML-2020/Higher-Symm/SD-CG/HFTN-CG
REM
REM
REM
REM
REM
REM ./C.cell (b20cbc046b6831c77cfcea5457e17084)
REM AIRSS Version 0.9.1 bugfix July 2018 build 013d7b7c2542+ Fri, 06 Jul 2018 19:26:36 +0100
REM compiler GCC version 9.3.0
REM options -cpp -mtune=generic -march=x86-64 -g -O0
REM seed -1023504567 1856915517 -1306241227 1955189184 68390787 572961774 -777067051 -1213372842 1956841754 -1101625135 -1817076823 533099861 522298383 1645679392 2058778167 -1528750431 -1557198316 -340498915 -729627980 241579899 -1258997481 -1764404484 -571597687 -1936253033 1383752332 -1773592977 763636207 1681377943 -919339309 -460633090 1560586206 -1601697153 -5490904
REM
CELL 1.54180   50.00000   50.00000   50.00000   90.00000   90.00000   90.00000
LATT -1
SFAC C  
C      1  0.4955500000000  0.4258660000000  0.5106670000000 1.0
C      1  0.4964720000000  0.4898630000000  0.4231560000000 1.0
C      1  0.4959320000000  0.5773790000000  0.4871510000000 1.0
C      1  0.4950090000000  0.5133810000000  0.5746620000000 1.0
C      1  0.4988180000000  0.5228770000000  0.4956390000000 1.0
C      1  0.4985590000000  0.5049190000000  0.5201960000000 1.0
C      1  0.4987110000000  0.4803610000000  0.5022380000000 1.0
C      1  0.4989690000000  0.4983190000000  0.4776820000000 1.0
C      1  0.5198540000000  0.5123920000000  0.5686920000000 1.0
C      1  0.5203500000000  0.4320540000000  0.5099460000000 1.0
C      1  0.5211970000000  0.4908030000000  0.4296130000000 1.0
C      1  0.5207010000000  0.5711400000000  0.4883590000000 1.0
C      1  0.5022930000000  0.5501550000000  0.4914390000000 1.0
C      1  0.5017020000000  0.5091500000000  0.5475100000000 1.0
C      1  0.5020490000000  0.4530760000000  0.5065060000000 1.0
C      1  0.5026390000000  0.4940810000000  0.4504350000000 1.0
C      1  0.4789050000000  0.5016390000000  0.4987440000000 1.0
END
