TITL C-64767-4646-6 18.0718064878624 125000 -640.044842482609 0 0 94 (C1) n - 1
REM
REM in /rds/project/t2_vol4/rds-t2-cs072/BORA/CARBON/from-Arr/AIRSS/Generating-Clusters/GAP-ML-2020/Higher-Symm/SD-CG/HFTN-CG
REM
REM
REM
REM
REM
REM ./C.cell (b20cbc046b6831c77cfcea5457e17084)
REM AIRSS Version 0.9.1 bugfix July 2018 build 013d7b7c2542+ Fri, 06 Jul 2018 19:26:36 +0100
REM compiler GCC version 9.3.0
REM options -cpp -mtune=generic -march=x86-64 -g -O0
REM seed -304792658 -525978032 -211271797 -1834148784 1516829961 -1419588132 1002218400 235603492 -1004582307 -1085090016 -519057730 1984810308 2017074652 -692768320 -885520625 -2105455871 -1873208865 1553709638 -2143100344 -1959216472 -1045166385 91165194 -1108353175 -1429158034 -1842733300 1077719807 -1996647548 -239604228 -1957224007 -1128585961 732127753 -1071561923 1134305015
REM
CELL 1.54180   50.00000   50.00000   50.00000   90.00000   90.00000   90.00000
LATT -1
SFAC C  
C      1  0.5467490000000  0.4466410000000  0.5400420000000 1.0
C      1  0.5231270000000  0.5669160000000  0.5404340000000 1.0
C      1  0.4301440000000  0.4861670000000  0.5418510000000 1.0
C      1  0.5468010000000  0.5534180000000  0.5404550000000 1.0
C      1  0.5229960000000  0.4331850000000  0.5402500000000 1.0
C      1  0.4306810000000  0.5136490000000  0.5405970000000 1.0
C      1  0.4772370000000  0.4334980000000  0.5416280000000 1.0
C      1  0.5694800000000  0.5138160000000  0.5423890000000 1.0
C      1  0.4533980000000  0.5529440000000  0.5424320000000 1.0
C      1  0.4773900000000  0.5665510000000  0.5418630000000 1.0
C      1  0.5694040000000  0.4862460000000  0.5424890000000 1.0
C      1  0.4531100000000  0.4470380000000  0.5436340000000 1.0
C      1  0.5801740000000  0.4655620000000  0.4720130000000 1.0
C      1  0.4909080000000  0.5861600000000  0.4718630000000 1.0
C      1  0.4300210000000  0.4473940000000  0.4723680000000 1.0
C      1  0.5798970000000  0.5349180000000  0.4719330000000 1.0
C      1  0.4910780000000  0.4141040000000  0.4714820000000 1.0
C      1  0.4309010000000  0.5512070000000  0.4718940000000 1.0
C      1  0.4518840000000  0.5531520000000  0.5131210000000 1.0
C      1  0.4784920000000  0.4321830000000  0.5123170000000 1.0
C      1  0.5701880000000  0.5151980000000  0.5129280000000 1.0
C      1  0.4517180000000  0.4466140000000  0.5139550000000 1.0
C      1  0.4783480000000  0.5675590000000  0.5125450000000 1.0
C      1  0.5704470000000  0.4850030000000  0.5130720000000 1.0
C      1  0.4525570000000  0.5530410000000  0.4534220000000 1.0
C      1  0.4781410000000  0.4317610000000  0.4535250000000 1.0
C      1  0.5707690000000  0.5153880000000  0.4533570000000 1.0
C      1  0.4506610000000  0.4451280000000  0.4521730000000 1.0
C      1  0.4787420000000  0.5680830000000  0.4536020000000 1.0
C      1  0.5710590000000  0.4849990000000  0.4531150000000 1.0
C      1  0.5482770000000  0.4474570000000  0.5085080000000 1.0
C      1  0.5221320000000  0.5681100000000  0.5086610000000 1.0
C      1  0.4285880000000  0.4849340000000  0.5107100000000 1.0
C      1  0.5484010000000  0.5528150000000  0.5086100000000 1.0
C      1  0.5222490000000  0.4318130000000  0.5085310000000 1.0
C      1  0.4302130000000  0.5150360000000  0.5086660000000 1.0
C      1  0.5434090000000  0.4760160000000  0.5041970000000 1.0
C      1  0.5002880000000  0.5490670000000  0.5041510000000 1.0
C      1  0.4544610000000  0.4739810000000  0.5052680000000 1.0
C      1  0.5430300000000  0.5243170000000  0.5042570000000 1.0
C      1  0.5005090000000  0.4506690000000  0.5038370000000 1.0
C      1  0.4575730000000  0.5253410000000  0.5043950000000 1.0
C      1  0.4598970000000  0.4826970000000  0.4765120000000 1.0
C      1  0.5286560000000  0.4843780000000  0.4796050000000 1.0
C      1  0.5013590000000  0.5317840000000  0.4796650000000 1.0
C      1  0.4743180000000  0.5172740000000  0.4801990000000 1.0
C      1  0.5276420000000  0.5158190000000  0.4798170000000 1.0
C      1  0.5029460000000  0.4695340000000  0.4794130000000 1.0
C      1  0.5415790000000  0.5159200000000  0.4515300000000 1.0
C      1  0.4666770000000  0.5273710000000  0.4514560000000 1.0
C      1  0.4925330000000  0.4575450000000  0.4517650000000 1.0
C      1  0.5418550000000  0.4840000000000  0.4513210000000 1.0
C      1  0.4635270000000  0.4710430000000  0.4494990000000 1.0
C      1  0.4941440000000  0.5432280000000  0.4512290000000 1.0
C      1  0.4692450000000  0.5840610000000  0.4905880000000 1.0
C      1  0.4430180000000  0.4306410000000  0.4911850000000 1.0
C      1  0.5889840000000  0.4851800000000  0.4908630000000 1.0
C      1  0.4694310000000  0.4162950000000  0.4898790000000 1.0
C      1  0.4429020000000  0.5691670000000  0.4907210000000 1.0
C      1  0.5888150000000  0.5152720000000  0.4907670000000 1.0
C      1  0.4753920000000  0.5133900000000  0.4271830000000 1.0
C      1  0.5005980000000  0.4713620000000  0.4272630000000 1.0
C      1  0.5247780000000  0.5141930000000  0.4274370000000 1.0
C      1  0.4746100000000  0.4854470000000  0.4266050000000 1.0
C      1  0.5008000000000  0.5282370000000  0.4269870000000 1.0
C      1  0.5248330000000  0.4850900000000  0.4273770000000 1.0
C      1  0.4788410000000  0.4879130000000  0.5175710000000 1.0
C      1  0.5261700000000  0.4852420000000  0.5264310000000 1.0
C      1  0.5005900000000  0.5297810000000  0.5265810000000 1.0
C      1  0.4750460000000  0.5153060000000  0.5263100000000 1.0
C      1  0.5258900000000  0.5149290000000  0.5266020000000 1.0
C      1  0.5010620000000  0.4706780000000  0.5258380000000 1.0
C      1  0.5192180000000  0.4173730000000  0.4818650000000 1.0
C      1  0.5629610000000  0.5579110000000  0.4823080000000 1.0
C      1  0.4192050000000  0.5246160000000  0.4821650000000 1.0
C      1  0.5193070000000  0.5831720000000  0.4823380000000 1.0
C      1  0.5631540000000  0.4423720000000  0.4824450000000 1.0
C      1  0.4174100000000  0.4740610000000  0.4822270000000 1.0
C      1  0.5446510000000  0.4738000000000  0.5504540000000 1.0
C      1  0.5003110000000  0.5514600000000  0.5503540000000 1.0
C      1  0.4499720000000  0.4717080000000  0.5567190000000 1.0
C      1  0.5449060000000  0.5261770000000  0.5507110000000 1.0
C      1  0.5001740000000  0.4482560000000  0.5501340000000 1.0
C      1  0.4548120000000  0.5255380000000  0.5507360000000 1.0
C      1  0.4737470000000  0.4847900000000  0.5702730000000 1.0
C      1  0.5239930000000  0.4855680000000  0.5692080000000 1.0
C      1  0.4996850000000  0.5277360000000  0.5692480000000 1.0
C      1  0.4748510000000  0.5134840000000  0.5694980000000 1.0
C      1  0.5243980000000  0.5139530000000  0.5694210000000 1.0
C      1  0.4992570000000  0.4712850000000  0.5693340000000 1.0
C      1  0.5445330000000  0.5764150000000  0.4715110000000 1.0
C      1  0.5448030000000  0.4238480000000  0.4715460000000 1.0
C      1  0.4115160000000  0.4995780000000  0.4720260000000 1.0
C      1  0.4839640000000  0.4909610000000  0.4879280000000 1.0
END
