TITL C-64413-1894-3 -0.0215840148410478 125000 -228.394589803481 0 0 35 (C1) n - 1
REM
REM in /rds/project/t2_vol4/rds-t2-cs072/BORA/CARBON/from-Arr/AIRSS/Generating-Clusters/GAP-ML-2020/Higher-Symm/SD-CG/HFTN-CG
REM
REM
REM
REM
REM
REM ./C.cell (b20cbc046b6831c77cfcea5457e17084)
REM AIRSS Version 0.9.1 bugfix July 2018 build 013d7b7c2542+ Fri, 06 Jul 2018 19:26:36 +0100
REM compiler GCC version 9.3.0
REM options -cpp -mtune=generic -march=x86-64 -g -O0
REM seed -1462617761 1435021972 -1883774066 175051008 673785655 -309579156 1641631213 -656557876 -742409386 2113146516 1207001048 -1608097590 -1631602804 -1579783666 1553748538 1639514086 -141687754 -1256271363 -1413719435 -1810365978 654387388 -876065067 1155986419 -1409525835 -238783198 -1357164438 2024405428 -1505792570 1947687200 -769976440 1199119495 -966727401 372340221
REM
CELL 1.54180   50.00000   50.00000   50.00000   90.00000   90.00000   90.00000
LATT -1
SFAC C  
C      1  0.4537260000000  0.4823360000000  0.4877980000000 1.0
C      1  0.4544980000000  0.4823770000000  0.5179540000000 1.0
C      1  0.4805220000000  0.4721370000000  0.5262660000000 1.0
C      1  0.4792590000000  0.4724900000000  0.4797210000000 1.0
C      1  0.4861320000000  0.5295110000000  0.4828680000000 1.0
C      1  0.4843780000000  0.5313830000000  0.5216840000000 1.0
C      1  0.5353370000000  0.4764720000000  0.4657500000000 1.0
C      1  0.5408970000000  0.4964530000000  0.5378740000000 1.0
C      1  0.4414900000000  0.5074750000000  0.4862460000000 1.0
C      1  0.4414960000000  0.5076410000000  0.5181600000000 1.0
C      1  0.5201810000000  0.5622560000000  0.4684590000000 1.0
C      1  0.5149650000000  0.5670310000000  0.5377120000000 1.0
C      1  0.5020310000000  0.5557320000000  0.4878320000000 1.0
C      1  0.5004340000000  0.5568030000000  0.5168450000000 1.0
C      1  0.5169020000000  0.4549570000000  0.4614670000000 1.0
C      1  0.5265270000000  0.4717830000000  0.5376290000000 1.0
C      1  0.4857300000000  0.4434050000000  0.5161780000000 1.0
C      1  0.4808280000000  0.4428810000000  0.4878660000000 1.0
C      1  0.5256670000000  0.5443230000000  0.4498770000000 1.0
C      1  0.5192960000000  0.5520100000000  0.5587150000000 1.0
C      1  0.4558270000000  0.5321440000000  0.5159250000000 1.0
C      1  0.4567910000000  0.5315440000000  0.4864150000000 1.0
C      1  0.5130030000000  0.4408980000000  0.5060550000000 1.0
C      1  0.5072670000000  0.4361140000000  0.4789330000000 1.0
C      1  0.5223750000000  0.5205080000000  0.4404800000000 1.0
C      1  0.5163110000000  0.5285640000000  0.5697030000000 1.0
C      1  0.5164400000000  0.5056700000000  0.5547670000000 1.0
C      1  0.5176930000000  0.4953460000000  0.4494730000000 1.0
C      1  0.5017620000000  0.4809580000000  0.5478270000000 1.0
C      1  0.4966080000000  0.4747170000000  0.4540660000000 1.0
C      1  0.5500250000000  0.5013560000000  0.5112390000000 1.0
C      1  0.5435800000000  0.4809920000000  0.4932000000000 1.0
C      1  0.5224230000000  0.4678430000000  0.5090410000000 1.0
C      1  0.4959500000000  0.5123940000000  0.5032680000000 1.0
C      1  0.4953240000000  0.4842840000000  0.5028700000000 1.0
END
