TITL C-64774-4614-2 -0.0537379185456646 125000 -276.799466186658 0 0 41 (C1) n - 1
REM
REM in /rds/project/t2_vol4/rds-t2-cs072/BORA/CARBON/from-Arr/AIRSS/Generating-Clusters/GAP-ML-2020/Higher-Symm/SD-CG/HFTN-CG
REM
REM
REM
REM
REM
REM ./C.cell (b20cbc046b6831c77cfcea5457e17084)
REM AIRSS Version 0.9.1 bugfix July 2018 build 013d7b7c2542+ Fri, 06 Jul 2018 19:26:36 +0100
REM compiler GCC version 9.3.0
REM options -cpp -mtune=generic -march=x86-64 -g -O0
REM seed -1977133424 -74708201 -390951486 -1447378525 1102933773 1509350348 -366393537 584959719 2091394057 -314230663 -1972972634 -1386006069 1421182678 -481238962 -434612915 -152063014 2031245177 33766019 -1637559632 -1275981285 -1307203751 -871529741 1394876123 -1829958172 -583439699 -1582583482 -1711092274 -1419353684 2092049457 -769311125 -219071495 1401501273 173108304
REM
CELL 1.54180   50.00000   50.00000   50.00000   90.00000   90.00000   90.00000
LATT -1
SFAC C  
C      1  0.5596420000000  0.4864980000000  0.5397040000000 1.0
C      1  0.5435950000000  0.5136740000000  0.4527780000000 1.0
C      1  0.4523440000000  0.5137070000000  0.4976890000000 1.0
C      1  0.4581270000000  0.5155250000000  0.4694720000000 1.0
C      1  0.5535380000000  0.5084160000000  0.5285900000000 1.0
C      1  0.4459420000000  0.5446200000000  0.5378500000000 1.0
C      1  0.5421420000000  0.4721340000000  0.4782530000000 1.0
C      1  0.4677620000000  0.4722490000000  0.4824770000000 1.0
C      1  0.4663900000000  0.4803300000000  0.5533570000000 1.0
C      1  0.5321200000000  0.4509680000000  0.5167380000000 1.0
C      1  0.5114910000000  0.4795880000000  0.5482810000000 1.0
C      1  0.5014890000000  0.5057980000000  0.5422570000000 1.0
C      1  0.4893570000000  0.4627090000000  0.5539170000000 1.0
C      1  0.5211610000000  0.5469580000000  0.4744730000000 1.0
C      1  0.5122520000000  0.4805230000000  0.4497680000000 1.0
C      1  0.4744630000000  0.5359570000000  0.4569030000000 1.0
C      1  0.5126050000000  0.4793010000000  0.4800020000000 1.0
C      1  0.4887290000000  0.5436170000000  0.5100030000000 1.0
C      1  0.4772350000000  0.5614550000000  0.4654030000000 1.0
C      1  0.4683290000000  0.4908140000000  0.4606740000000 1.0
C      1  0.4957140000000  0.5551680000000  0.4848970000000 1.0
C      1  0.4603450000000  0.5364480000000  0.5137360000000 1.0
C      1  0.5046130000000  0.5083460000000  0.4867310000000 1.0
C      1  0.4932280000000  0.4596750000000  0.4889720000000 1.0
C      1  0.4903240000000  0.4951640000000  0.4423990000000 1.0
C      1  0.4512450000000  0.4716680000000  0.5293560000000 1.0
C      1  0.5373120000000  0.5269580000000  0.5161450000000 1.0
C      1  0.5079600000000  0.5204310000000  0.5165200000000 1.0
C      1  0.4602600000000  0.5291340000000  0.5526640000000 1.0
C      1  0.4844890000000  0.4422810000000  0.5337070000000 1.0
C      1  0.5360820000000  0.4694220000000  0.5378450000000 1.0
C      1  0.5024940000000  0.4455180000000  0.5116480000000 1.0
C      1  0.4957380000000  0.5228970000000  0.4424910000000 1.0
C      1  0.5401800000000  0.4858980000000  0.4512710000000 1.0
C      1  0.5499770000000  0.4522890000000  0.4941350000000 1.0
C      1  0.5601030000000  0.5263210000000  0.4713080000000 1.0
C      1  0.5217640000000  0.5328570000000  0.4493570000000 1.0
C      1  0.4568310000000  0.4440080000000  0.5281360000000 1.0
C      1  0.4757800000000  0.5072670000000  0.5558100000000 1.0
C      1  0.5434480000000  0.5378430000000  0.4901180000000 1.0
C      1  0.4534010000000  0.4855680000000  0.5041650000000 1.0
END
