TITL C-64769-4636-10 -0.0649090082409367 125000 -940.719516184424 0 0 137 (C4) n - 1
REM
REM in /rds/project/t2_vol4/rds-t2-cs072/BORA/CARBON/from-Arr/AIRSS/Generating-Clusters/GAP-ML-2020/Higher-Symm/SD-CG/HFTN-CG
REM
REM
REM
REM
REM
REM ./C.cell (b20cbc046b6831c77cfcea5457e17084)
REM AIRSS Version 0.9.1 bugfix July 2018 build 013d7b7c2542+ Fri, 06 Jul 2018 19:26:36 +0100
REM compiler GCC version 9.3.0
REM options -cpp -mtune=generic -march=x86-64 -g -O0
REM seed 1490181864 -1667050802 1975960109 -2070150192 -170837999 -195199306 -295944654 -328180516 -720880329 -1132334305 1172709753 -867887161 236516063 1441204271 1372224785 500226379 1248812847 1589735391 436671792 -1713615179 -1459200255 -710224387 719754728 -1670784814 -1594664596 -607484976 1067344179 -1504066264 1407403081 -1783281851 -53179710 139306346 -1508383168
REM
CELL 1.54180   50.00000   50.00000   50.00000   90.00000   90.00000   90.00000
LATT -1
SFAC C  
C      1  0.5822570000000  0.4223450000000  0.5342880000000 1.0
C      1  0.5775240000000  0.5820740000000  0.5344500000000 1.0
C      1  0.4177960000000  0.5773410000000  0.5345200000000 1.0
C      1  0.4225290000000  0.4176120000000  0.5343580000000 1.0
C      1  0.5839540000000  0.4237640000000  0.4670220000000 1.0
C      1  0.5761420000000  0.5838700000000  0.4671870000000 1.0
C      1  0.4160360000000  0.5760580000000  0.4672540000000 1.0
C      1  0.4238480000000  0.4159510000000  0.4670900000000 1.0
C      1  0.5298560000000  0.4531830000000  0.5141920000000 1.0
C      1  0.5466980000000  0.5297030000000  0.5142610000000 1.0
C      1  0.4701780000000  0.5465440000000  0.5143140000000 1.0
C      1  0.4533360000000  0.4700240000000  0.5142450000000 1.0
C      1  0.5291620000000  0.4575230000000  0.4849940000000 1.0
C      1  0.5423730000000  0.5290510000000  0.4850600000000 1.0
C      1  0.4708450000000  0.5422620000000  0.4851070000000 1.0
C      1  0.4576340000000  0.4707340000000  0.4850410000000 1.0
C      1  0.5161610000000  0.4047730000000  0.5125090000000 1.0
C      1  0.5951080000000  0.5160100000000  0.5125830000000 1.0
C      1  0.4838720000000  0.5949570000000  0.5127150000000 1.0
C      1  0.4049240000000  0.4837200000000  0.5126400000000 1.0
C      1  0.5181130000000  0.4036400000000  0.4835210000000 1.0
C      1  0.5962560000000  0.5180040000000  0.4836000000000 1.0
C      1  0.4818930000000  0.5961480000000  0.4837320000000 1.0
C      1  0.4037490000000  0.4817840000000  0.4836540000000 1.0
C      1  0.5084500000000  0.5188670000000  0.5680440000000 1.0
C      1  0.4809840000000  0.5082170000000  0.5680460000000 1.0
C      1  0.4916340000000  0.4807510000000  0.5680140000000 1.0
C      1  0.5191000000000  0.4914010000000  0.5680110000000 1.0
C      1  0.5074980000000  0.5194220000000  0.4308190000000 1.0
C      1  0.4805030000000  0.5074670000000  0.4308200000000 1.0
C      1  0.4924580000000  0.4804720000000  0.4307870000000 1.0
C      1  0.5194530000000  0.4924270000000  0.4307860000000 1.0
C      1  0.4829750000000  0.4534190000000  0.4420300000000 1.0
C      1  0.5465000000000  0.4829280000000  0.4420290000000 1.0
C      1  0.5169910000000  0.5464530000000  0.4421070000000 1.0
C      1  0.4534660000000  0.5169440000000  0.4421070000000 1.0
C      1  0.4800470000000  0.4542520000000  0.5576200000000 1.0
C      1  0.5456050000000  0.4798290000000  0.5576150000000 1.0
C      1  0.5200280000000  0.5453880000000  0.5576930000000 1.0
C      1  0.4544690000000  0.5198100000000  0.5576980000000 1.0
C      1  0.5501490000000  0.5489660000000  0.5630960000000 1.0
C      1  0.4508880000000  0.5499230000000  0.5631430000000 1.0
C      1  0.4499310000000  0.4506620000000  0.5630440000000 1.0
C      1  0.5491920000000  0.4497050000000  0.5629960000000 1.0
C      1  0.5477680000000  0.5539830000000  0.4393390000000 1.0
C      1  0.4459380000000  0.5477240000000  0.4393800000000 1.0
C      1  0.4521960000000  0.4458940000000  0.4392750000000 1.0
C      1  0.5540260000000  0.4521530000000  0.4392340000000 1.0
C      1  0.4124840000000  0.4353600000000  0.4848610000000 1.0
C      1  0.5645360000000  0.4123740000000  0.4847670000000 1.0
C      1  0.5875220000000  0.5644250000000  0.4849080000000 1.0
C      1  0.4354710000000  0.5874110000000  0.4850030000000 1.0
C      1  0.4158120000000  0.4365880000000  0.5142020000000 1.0
C      1  0.5632930000000  0.4156580000000  0.5141120000000 1.0
C      1  0.5842220000000  0.5631390000000  0.5142500000000 1.0
C      1  0.4367410000000  0.5840680000000  0.5143410000000 1.0
C      1  0.4983270000000  0.4155870000000  0.4682330000000 1.0
C      1  0.5843180000000  0.4982410000000  0.4682760000000 1.0
C      1  0.5016640000000  0.5842310000000  0.4684010000000 1.0
C      1  0.4156730000000  0.5015780000000  0.4683580000000 1.0
C      1  0.4926500000000  0.4103290000000  0.5285550000000 1.0
C      1  0.5895440000000  0.4924750000000  0.5285920000000 1.0
C      1  0.5073980000000  0.5893690000000  0.5287280000000 1.0
C      1  0.4105030000000  0.5072230000000  0.5286910000000 1.0
C      1  0.5686610000000  0.5281130000000  0.5526190000000 1.0
C      1  0.4717470000000  0.5684510000000  0.5527050000000 1.0
C      1  0.4314090000000  0.4715370000000  0.5526260000000 1.0
C      1  0.5283230000000  0.4311990000000  0.5525400000000 1.0
C      1  0.5690270000000  0.5343310000000  0.4465370000000 1.0
C      1  0.4655860000000  0.5689730000000  0.4466200000000 1.0
C      1  0.4309440000000  0.4655320000000  0.4465330000000 1.0
C      1  0.5343850000000  0.4308900000000  0.4464490000000 1.0
C      1  0.4624650000000  0.4020210000000  0.4922400000000 1.0
C      1  0.5978710000000  0.4623440000000  0.4922370000000 1.0
C      1  0.5375480000000  0.5977500000000  0.4924010000000 1.0
C      1  0.4021420000000  0.5374270000000  0.4924040000000 1.0
C      1  0.4664310000000  0.3970770000000  0.5211960000000 1.0
C      1  0.6027990000000  0.4662670000000  0.5212010000000 1.0
C      1  0.5336090000000  0.6026350000000  0.5213710000000 1.0
C      1  0.3972410000000  0.5334450000000  0.5213650000000 1.0
C      1  0.4600320000000  0.4997390000000  0.5145760000000 1.0
C      1  0.5001410000000  0.4598780000000  0.5145170000000 1.0
C      1  0.5400020000000  0.4999870000000  0.5145390000000 1.0
C      1  0.4998930000000  0.5398480000000  0.5145980000000 1.0
C      1  0.4690880000000  0.4992630000000  0.4872000000000 1.0
C      1  0.5006320000000  0.4689740000000  0.4871550000000 1.0
C      1  0.5309210000000  0.5005180000000  0.4871720000000 1.0
C      1  0.4993770000000  0.5308070000000  0.4872180000000 1.0
C      1  0.4221000000000  0.4633320000000  0.5239930000000 1.0
C      1  0.5365430000000  0.4219320000000  0.5238980000000 1.0
C      1  0.5779430000000  0.5363740000000  0.5239930000000 1.0
C      1  0.4635010000000  0.5777750000000  0.5240890000000 1.0
C      1  0.4117960000000  0.4589640000000  0.4695580000000 1.0
C      1  0.5409400000000  0.4117080000000  0.4694500000000 1.0
C      1  0.5881960000000  0.5408520000000  0.4695570000000 1.0
C      1  0.4590520000000  0.5881080000000  0.4696650000000 1.0
C      1  0.3983880000000  0.5550110000000  0.4707150000000 1.0
C      1  0.4448930000000  0.3982990000000  0.4705360000000 1.0
C      1  0.6016050000000  0.4448030000000  0.4705090000000 1.0
C      1  0.5551000000000  0.6015150000000  0.4706880000000 1.0
C      1  0.4023390000000  0.5542810000000  0.5402170000000 1.0
C      1  0.4455850000000  0.4021470000000  0.5400440000000 1.0
C      1  0.5977190000000  0.4453940000000  0.5400160000000 1.0
C      1  0.5544730000000  0.5975270000000  0.5401890000000 1.0
C      1  0.5708650000000  0.5004380000000  0.5542410000000 1.0
C      1  0.4994210000000  0.5706520000000  0.5543450000000 1.0
C      1  0.4292070000000  0.4992080000000  0.5543060000000 1.0
C      1  0.5006500000000  0.4289940000000  0.5542020000000 1.0
C      1  0.5681950000000  0.5056900000000  0.4456180000000 1.0
C      1  0.4942270000000  0.5681430000000  0.4457150000000 1.0
C      1  0.4317740000000  0.4941740000000  0.4456700000000 1.0
C      1  0.5057430000000  0.4317220000000  0.4455730000000 1.0
C      1  0.4547880000000  0.5223240000000  0.4734350000000 1.0
C      1  0.4775780000000  0.4546940000000  0.4733560000000 1.0
C      1  0.5452080000000  0.4774840000000  0.4733470000000 1.0
C      1  0.5224180000000  0.5451140000000  0.4734260000000 1.0
C      1  0.4557270000000  0.5253480000000  0.5275220000000 1.0
C      1  0.4745250000000  0.4555540000000  0.5274430000000 1.0
C      1  0.5443200000000  0.4743520000000  0.5274300000000 1.0
C      1  0.5255220000000  0.5441460000000  0.5275080000000 1.0
C      1  0.4331280000000  0.5152640000000  0.5132920000000 1.0
C      1  0.4846160000000  0.4329760000000  0.5131850000000 1.0
C      1  0.5669050000000  0.4844640000000  0.5131980000000 1.0
C      1  0.5154170000000  0.5667520000000  0.5133050000000 1.0
C      1  0.4269370000000  0.5216760000000  0.4856560000000 1.0
C      1  0.4782190000000  0.4268260000000  0.4855370000000 1.0
C      1  0.5730700000000  0.4781080000000  0.4855440000000 1.0
C      1  0.5217880000000  0.5729580000000  0.4856630000000 1.0
C      1  0.5598260000000  0.5745820000000  0.5561540000000 1.0
C      1  0.4252760000000  0.5596110000000  0.5562020000000 1.0
C      1  0.4402470000000  0.4250610000000  0.5560600000000 1.0
C      1  0.5747970000000  0.4400320000000  0.5560110000000 1.0
C      1  0.5561100000000  0.5793340000000  0.4482880000000 1.0
C      1  0.4205820000000  0.5560530000000  0.4483280000000 1.0
C      1  0.4438620000000  0.4205250000000  0.4481810000000 1.0
C      1  0.5793900000000  0.4438060000000  0.4481410000000 1.0
C      1  0.5000040000000  0.4998920000000  0.4859040000000 1.0
END
