TITL C-64410-936-8 0.154203450304166 125000 -380.804168681105 0 0 57 (C3) n - 1
REM
REM in /rds/project/t2_vol4/rds-t2-cs072/BORA/CARBON/from-Arr/AIRSS/Generating-Clusters/GAP-ML-2020/Higher-Symm/SD-CG/HFTN-CG
REM
REM
REM
REM
REM
REM ./C.cell (b20cbc046b6831c77cfcea5457e17084)
REM AIRSS Version 0.9.1 bugfix July 2018 build 013d7b7c2542+ Fri, 06 Jul 2018 19:26:36 +0100
REM compiler GCC version 9.3.0
REM options -cpp -mtune=generic -march=x86-64 -g -O0
REM seed -729073025 -1322775120 1545624058 99649203 142690865 -1064379893 -530877883 2078463895 -1537797562 -629533344 -76843551 470487630 640591819 -679266107 -1664496603 1540903618 -380164142 -1336391594 851669619 2019540341 -43112215 -1866404934 -1739883872 -1989023560 -1419865759 1604064913 403828991 -405699978 61876960 104762821 581701878 1637316575 2097344610
REM
CELL 1.54180   50.00000   50.00000   50.00000   90.00000   90.00000   90.00000
LATT -1
SFAC C  
C      1  0.4619350000000  0.5301650000000  0.5448130000000 1.0
C      1  0.4619400000000  0.4461030000000  0.5037010000000 1.0
C      1  0.4619570000000  0.5237380000000  0.4514580000000 1.0
C      1  0.4844230000000  0.4365290000000  0.5222720000000 1.0
C      1  0.4844490000000  0.5124450000000  0.4338900000000 1.0
C      1  0.4844240000000  0.5510290000000  0.5438260000000 1.0
C      1  0.4974530000000  0.4245750000000  0.4990330000000 1.0
C      1  0.4974750000000  0.5385500000000  0.4351620000000 1.0
C      1  0.4974430000000  0.5368760000000  0.5658030000000 1.0
C      1  0.5401550000000  0.4474270000000  0.5050180000000 1.0
C      1  0.5401720000000  0.5219460000000  0.4519780000000 1.0
C      1  0.5401500000000  0.5306200000000  0.5430330000000 1.0
C      1  0.4933110000000  0.4855670000000  0.4374500000000 1.0
C      1  0.4932950000000  0.5613860000000  0.5187730000000 1.0
C      1  0.4932830000000  0.4530490000000  0.5437730000000 1.0
C      1  0.4747320000000  0.5561480000000  0.4978300000000 1.0
C      1  0.4747150000000  0.4738020000000  0.5497000000000 1.0
C      1  0.4747380000000  0.4700540000000  0.4524520000000 1.0
C      1  0.4745520000000  0.5495640000000  0.4498820000000 1.0
C      1  0.4745210000000  0.5186190000000  0.5679720000000 1.0
C      1  0.4745380000000  0.4318220000000  0.4821270000000 1.0
C      1  0.4503650000000  0.4856720000000  0.4779320000000 1.0
C      1  0.4503620000000  0.5262690000000  0.4986050000000 1.0
C      1  0.4503530000000  0.4880680000000  0.5234260000000 1.0
C      1  0.4848870000000  0.4447800000000  0.4596630000000 1.0
C      1  0.4848910000000  0.5625410000000  0.4723400000000 1.0
C      1  0.4848630000000  0.4926820000000  0.5679860000000 1.0
C      1  0.5135230000000  0.4490700000000  0.4615050000000 1.0
C      1  0.5135260000000  0.5588040000000  0.4751460000000 1.0
C      1  0.5135010000000  0.4921240000000  0.5633580000000 1.0
C      1  0.4916730000000  0.5130290000000  0.5233120000000 1.0
C      1  0.4916760000000  0.4732950000000  0.4996240000000 1.0
C      1  0.4916840000000  0.5136770000000  0.4770580000000 1.0
C      1  0.5408690000000  0.4922000000000  0.4479970000000 1.0
C      1  0.5408550000000  0.5489410000000  0.5192630000000 1.0
C      1  0.5408460000000  0.4588520000000  0.5327700000000 1.0
C      1  0.4794230000000  0.4867310000000  0.5235650000000 1.0
C      1  0.4794340000000  0.4862240000000  0.4767180000000 1.0
C      1  0.4794310000000  0.5270490000000  0.4997020000000 1.0
C      1  0.5503480000000  0.5176520000000  0.4795190000000 1.0
C      1  0.5503360000000  0.5089180000000  0.5255490000000 1.0
C      1  0.5503420000000  0.4734220000000  0.4949700000000 1.0
C      1  0.4451240000000  0.5165390000000  0.5248820000000 1.0
C      1  0.4451270000000  0.4701750000000  0.5018590000000 1.0
C      1  0.4451370000000  0.5132960000000  0.4732180000000 1.0
C      1  0.5192530000000  0.4656120000000  0.5497990000000 1.0
C      1  0.5192800000000  0.4740690000000  0.4453280000000 1.0
C      1  0.5192700000000  0.5603150000000  0.5048870000000 1.0
C      1  0.5193160000000  0.4832480000000  0.4980630000000 1.0
C      1  0.5193210000000  0.5100560000000  0.4864690000000 1.0
C      1  0.5193140000000  0.5066920000000  0.5154820000000 1.0
C      1  0.5576070000000  0.5289050000000  0.5043900000000 1.0
C      1  0.5576000000000  0.4817530000000  0.5228620000000 1.0
C      1  0.5576130000000  0.4893320000000  0.4727910000000 1.0
C      1  0.5210620000000  0.4356230000000  0.4872880000000 1.0
C      1  0.5210770000000  0.5432000000000  0.4506130000000 1.0
C      1  0.5210480000000  0.5211730000000  0.5621150000000 1.0
END
