TITL C-64760-4600-4 -0.00276717216494218 125000 -37.1688395402195 0 0 6 (D(inf)h) n - 1
REM
REM in /rds/project/t2_vol4/rds-t2-cs072/BORA/CARBON/from-Arr/AIRSS/Generating-Clusters/GAP-ML-2020/Higher-Symm/SD-CG/HFTN-CG
REM
REM
REM
REM
REM
REM ./C.cell (b20cbc046b6831c77cfcea5457e17084)
REM AIRSS Version 0.9.1 bugfix July 2018 build 013d7b7c2542+ Fri, 06 Jul 2018 19:26:36 +0100
REM compiler GCC version 9.3.0
REM options -cpp -mtune=generic -march=x86-64 -g -O0
REM seed -186290072 1159085258 552628537 1156081802 1027965550 -1137180724 144566156 -248467757 -843817289 1597246455 -108025191 214988058 1952920987 -283184172 1288090126 -2023330605 -390359312 915029227 715105463 -2055145326 505241481 1452459835 927327540 1553862328 1822377320 623011969 -777982733 -2017019167 -581005823 1416376678 -205225699 463005743 2124345226
REM
CELL 1.54180   50.00000   50.00000   50.00000   90.00000   90.00000   90.00000
LATT -1
SFAC C  
C      1  0.5388050000000  0.5004010000000  0.4975860000000 1.0
C      1  0.4619950000000  0.4995990000000  0.5024140000000 1.0
C      1  0.5641180000000  0.5006660000000  0.4959960000000 1.0
C      1  0.4366820000000  0.4993340000000  0.5040040000000 1.0
C      1  0.4879880000000  0.4998700000000  0.5007800000000 1.0
C      1  0.5128120000000  0.5001300000000  0.4992200000000 1.0
END
