TITL C-64383-458-10 8.83579073348511 125000 -836.203231256936 0 0 119 (C1) n - 1
REM
REM in /rds/project/t2_vol4/rds-t2-cs072/BORA/CARBON/from-Arr/AIRSS/Generating-Clusters/GAP-ML-2020/Higher-Symm/SD-CG/HFTN-CG
REM
REM
REM
REM
REM
REM ./C.cell (b20cbc046b6831c77cfcea5457e17084)
REM AIRSS Version 0.9.1 bugfix July 2018 build 013d7b7c2542+ Fri, 06 Jul 2018 19:26:36 +0100
REM compiler GCC version 9.3.0
REM options -cpp -mtune=generic -march=x86-64 -g -O0
REM seed -21835946 -1101094939 1388945771 1465099167 335536949 -1846879452 1337366159 -1002247167 1760760207 -284947950 -1663319524 -2113413804 1389699097 -1562620500 82282038 1103832388 2134130374 530957380 1596301730 -358621811 306572488 1620150660 -114938632 -1533212362 -547491586 2072655146 2076742130 -2137649158 -31027769 1722000968 -795199499 155677722 -364290200
REM
CELL 1.54180   50.00000   50.00000   50.00000   90.00000   90.00000   90.00000
LATT -1
SFAC C  
C      1  0.4762500000000  0.4834430000000  0.4442780000000 1.0
C      1  0.5237150000000  0.5151770000000  0.5605050000000 1.0
C      1  0.4347670000000  0.5006510000000  0.4709930000000 1.0
C      1  0.5677890000000  0.5041130000000  0.5344970000000 1.0
C      1  0.4452070000000  0.5224990000000  0.5637990000000 1.0
C      1  0.5526720000000  0.4786880000000  0.4388420000000 1.0
C      1  0.4141900000000  0.5022340000000  0.5186410000000 1.0
C      1  0.5841720000000  0.4979040000000  0.4842830000000 1.0
C      1  0.5320540000000  0.4700570000000  0.4193630000000 1.0
C      1  0.4665840000000  0.5321430000000  0.5820390000000 1.0
C      1  0.4239550000000  0.5284910000000  0.5184300000000 1.0
C      1  0.5746860000000  0.4711570000000  0.4843140000000 1.0
C      1  0.4177670000000  0.4598770000000  0.4861960000000 1.0
C      1  0.5822410000000  0.5417390000000  0.5149690000000 1.0
C      1  0.4637380000000  0.4557400000000  0.5087780000000 1.0
C      1  0.5369680000000  0.5437290000000  0.4953580000000 1.0
C      1  0.5252110000000  0.4907020000000  0.5837790000000 1.0
C      1  0.4761090000000  0.5157370000000  0.4045240000000 1.0
C      1  0.5094610000000  0.4133120000000  0.5180070000000 1.0
C      1  0.4911470000000  0.5836750000000  0.4836220000000 1.0
C      1  0.4595970000000  0.4267600000000  0.5227590000000 1.0
C      1  0.5393950000000  0.5713620000000  0.4784350000000 1.0
C      1  0.4243660000000  0.4869810000000  0.4947450000000 1.0
C      1  0.5758460000000  0.5140440000000  0.5083790000000 1.0
C      1  0.5690430000000  0.4779140000000  0.5546820000000 1.0
C      1  0.4316540000000  0.5229410000000  0.4372270000000 1.0
C      1  0.5686170000000  0.4548930000000  0.5358220000000 1.0
C      1  0.4381310000000  0.5319020000000  0.4674380000000 1.0
C      1  0.5030610000000  0.5207820000000  0.4512960000000 1.0
C      1  0.4868040000000  0.4983390000000  0.5341050000000 1.0
C      1  0.5233570000000  0.5176550000000  0.4058600000000 1.0
C      1  0.4786360000000  0.4851880000000  0.5905830000000 1.0
C      1  0.5516340000000  0.4335670000000  0.4990860000000 1.0
C      1  0.4488070000000  0.5635650000000  0.5019090000000 1.0
C      1  0.5031150000000  0.4111650000000  0.4895940000000 1.0
C      1  0.4974950000000  0.5872200000000  0.5116720000000 1.0
C      1  0.5091160000000  0.5311250000000  0.4954530000000 1.0
C      1  0.4936410000000  0.4590910000000  0.5121040000000 1.0
C      1  0.5439690000000  0.5263340000000  0.4236490000000 1.0
C      1  0.4564160000000  0.4747650000000  0.5756430000000 1.0
C      1  0.4531530000000  0.4387350000000  0.4571890000000 1.0
C      1  0.5482210000000  0.5632510000000  0.5454700000000 1.0
C      1  0.5193040000000  0.4470890000000  0.4251660000000 1.0
C      1  0.4798560000000  0.5552010000000  0.5765000000000 1.0
C      1  0.5423910000000  0.4391160000000  0.4729140000000 1.0
C      1  0.4579070000000  0.5597080000000  0.5286020000000 1.0
C      1  0.4538690000000  0.4094990000000  0.4998360000000 1.0
C      1  0.5456230000000  0.5896190000000  0.5006610000000 1.0
C      1  0.4988730000000  0.5335610000000  0.4044900000000 1.0
C      1  0.5035590000000  0.4714760000000  0.5879430000000 1.0
C      1  0.5234350000000  0.5955070000000  0.5174020000000 1.0
C      1  0.4768050000000  0.4036360000000  0.4839340000000 1.0
C      1  0.4486410000000  0.4805470000000  0.5155000000000 1.0
C      1  0.5504330000000  0.5184520000000  0.4878620000000 1.0
C      1  0.5351110000000  0.5420010000000  0.5260170000000 1.0
C      1  0.4665350000000  0.4578610000000  0.4786900000000 1.0
C      1  0.4543680000000  0.5301340000000  0.4200550000000 1.0
C      1  0.5468380000000  0.4728360000000  0.5732160000000 1.0
C      1  0.4941940000000  0.5559810000000  0.4219030000000 1.0
C      1  0.5074830000000  0.4459830000000  0.5755120000000 1.0
C      1  0.4264450000000  0.4835330000000  0.5388000000000 1.0
C      1  0.5717230000000  0.5161690000000  0.4637250000000 1.0
C      1  0.5475190000000  0.5869490000000  0.5283340000000 1.0
C      1  0.4534560000000  0.4131930000000  0.4719150000000 1.0
C      1  0.4141070000000  0.4465620000000  0.5092940000000 1.0
C      1  0.5856950000000  0.5540260000000  0.4914840000000 1.0
C      1  0.4980560000000  0.4580600000000  0.4830910000000 1.0
C      1  0.5041660000000  0.5404530000000  0.5246750000000 1.0
C      1  0.4596550000000  0.4479920000000  0.5638040000000 1.0
C      1  0.5408660000000  0.5527530000000  0.4357940000000 1.0
C      1  0.5254170000000  0.5025200000000  0.4935170000000 1.0
C      1  0.4681510000000  0.5014820000000  0.5132010000000 1.0
C      1  0.4172450000000  0.4709580000000  0.4400020000000 1.0
C      1  0.5854270000000  0.5293870000000  0.5595930000000 1.0
C      1  0.4880780000000  0.5284550000000  0.4743730000000 1.0
C      1  0.5054700000000  0.4786740000000  0.5281430000000 1.0
C      1  0.5861330000000  0.5027000000000  0.5576350000000 1.0
C      1  0.4199820000000  0.4975630000000  0.4439550000000 1.0
C      1  0.5157740000000  0.4901540000000  0.4043890000000 1.0
C      1  0.4849970000000  0.5126830000000  0.5938220000000 1.0
C      1  0.4736950000000  0.4677840000000  0.4214050000000 1.0
C      1  0.5259030000000  0.5374320000000  0.5797750000000 1.0
C      1  0.5148620000000  0.5664450000000  0.4386530000000 1.0
C      1  0.4856220000000  0.4342180000000  0.5609160000000 1.0
C      1  0.4301870000000  0.5431930000000  0.4942370000000 1.0
C      1  0.5706550000000  0.4531690000000  0.5069050000000 1.0
C      1  0.4420320000000  0.4378540000000  0.5444310000000 1.0
C      1  0.5570440000000  0.5609050000000  0.4568640000000 1.0
C      1  0.5480280000000  0.4369110000000  0.5439230000000 1.0
C      1  0.4645660000000  0.5479170000000  0.4630140000000 1.0
C      1  0.5132550000000  0.5779310000000  0.4649180000000 1.0
C      1  0.4862300000000  0.4195160000000  0.5361110000000 1.0
C      1  0.5134600000000  0.4327870000000  0.4705860000000 1.0
C      1  0.4872660000000  0.5664370000000  0.5314040000000 1.0
C      1  0.4979690000000  0.5205570000000  0.5453640000000 1.0
C      1  0.5031590000000  0.4932640000000  0.4506140000000 1.0
C      1  0.4386950000000  0.4940910000000  0.5632730000000 1.0
C      1  0.5593600000000  0.5066150000000  0.4388000000000 1.0
C      1  0.4262000000000  0.4525100000000  0.4583480000000 1.0
C      1  0.5753660000000  0.5496190000000  0.5436450000000 1.0
C      1  0.4745190000000  0.4436550000000  0.4356100000000 1.0
C      1  0.5262890000000  0.5620810000000  0.5673880000000 1.0
C      1  0.4613070000000  0.4852960000000  0.4691230000000 1.0
C      1  0.5403270000000  0.5144400000000  0.5364850000000 1.0
C      1  0.4407980000000  0.5386790000000  0.5400770000000 1.0
C      1  0.5577710000000  0.4618310000000  0.4625050000000 1.0
C      1  0.5283670000000  0.4925730000000  0.5196020000000 1.0
C      1  0.4786020000000  0.5018960000000  0.4865590000000 1.0
C      1  0.4657720000000  0.5713240000000  0.4806760000000 1.0
C      1  0.5363300000000  0.4230930000000  0.5212950000000 1.0
C      1  0.4684400000000  0.5506960000000  0.4330950000000 1.0
C      1  0.5353800000000  0.4472630000000  0.5676170000000 1.0
C      1  0.4979380000000  0.5676800000000  0.5609050000000 1.0
C      1  0.5020830000000  0.4350740000000  0.4419790000000 1.0
C      1  0.4205510000000  0.4541660000000  0.5347500000000 1.0
C      1  0.5787220000000  0.5452350000000  0.4668550000000 1.0
C      1  0.5138770000000  0.5172030000000  0.5956700000000 1.0
C      1  0.4861290000000  0.4880520000000  0.4042870000000 1.0
C      1  0.5068820000000  0.4857190000000  0.4779280000000 1.0
END
