TITL C-64786-6520-5 -10.888002325449 125000 -335.014666885758 0 0 50 (C3h) n - 1
REM
REM in /rds/project/t2_vol4/rds-t2-cs072/BORA/CARBON/from-Arr/AIRSS/Generating-Clusters/GAP-ML-2020/Higher-Symm/SD-CG/HFTN-CG
REM
REM
REM
REM
REM
REM ./C.cell (b20cbc046b6831c77cfcea5457e17084)
REM AIRSS Version 0.9.1 bugfix July 2018 build 013d7b7c2542+ Fri, 06 Jul 2018 19:26:36 +0100
REM compiler GCC version 9.3.0
REM options -cpp -mtune=generic -march=x86-64 -g -O0
REM seed -687247003 1889350703 419734367 1951537911 982396799 -865249709 786801869 -1557298767 -755852086 -1580628078 -1201778349 -67218304 1396391788 -180679819 1238092169 191348842 -305493808 1162957216 339727607 919435593 958382302 -1371377371 686079266 -624235189 -1108773224 -1777474292 2097334001 832761459 -1496623774 -1031925721 -1239530280 -343875238 1520707362
REM
CELL 1.54180   50.00000   50.00000   50.00000   90.00000   90.00000   90.00000
LATT -1
SFAC C  
C      1  0.4737790000000  0.5117590000000  0.4842440000000 1.0
C      1  0.5223750000000  0.5171100000000  0.4840740000000 1.0
C      1  0.5027120000000  0.4723490000000  0.4843160000000 1.0
C      1  0.4738680000000  0.5118760000000  0.5130530000000 1.0
C      1  0.5224630000000  0.5172270000000  0.5128830000000 1.0
C      1  0.5028000000000  0.4724670000000  0.5131250000000 1.0
C      1  0.4570200000000  0.4648760000000  0.5133070000000 1.0
C      1  0.4901830000000  0.5553180000000  0.5128380000000 1.0
C      1  0.5519270000000  0.4813760000000  0.5129490000000 1.0
C      1  0.4569320000000  0.4647580000000  0.4844760000000 1.0
C      1  0.4900950000000  0.5552010000000  0.4840070000000 1.0
C      1  0.5518390000000  0.4812590000000  0.4841190000000 1.0
C      1  0.5747680000000  0.4995240000000  0.5135270000000 1.0
C      1  0.4613180000000  0.4360270000000  0.5141320000000 1.0
C      1  0.4630520000000  0.5660270000000  0.5135990000000 1.0
C      1  0.5746750000000  0.4994010000000  0.4832540000000 1.0
C      1  0.4612250000000  0.4359040000000  0.4838590000000 1.0
C      1  0.4629590000000  0.5659040000000  0.4833250000000 1.0
C      1  0.5323200000000  0.5386850000000  0.4459410000000 1.0
C      1  0.5163830000000  0.4526160000000  0.4463400000000 1.0
C      1  0.4498140000000  0.5094530000000  0.4463120000000 1.0
C      1  0.5326410000000  0.5391110000000  0.5507780000000 1.0
C      1  0.5167040000000  0.4530420000000  0.5511760000000 1.0
C      1  0.4501340000000  0.5098800000000  0.5511490000000 1.0
C      1  0.5681670000000  0.5281770000000  0.5133340000000 1.0
C      1  0.4894320000000  0.4274160000000  0.5139840000000 1.0
C      1  0.4415360000000  0.5459840000000  0.5136490000000 1.0
C      1  0.5680750000000  0.5280550000000  0.4832550000000 1.0
C      1  0.4893400000000  0.4272930000000  0.4839050000000 1.0
C      1  0.4414440000000  0.5458620000000  0.4835690000000 1.0
C      1  0.4492440000000  0.5225890000000  0.5270140000000 1.0
C      1  0.5440670000000  0.5333170000000  0.5266810000000 1.0
C      1  0.5059470000000  0.4458340000000  0.5271530000000 1.0
C      1  0.4490710000000  0.5223580000000  0.4703480000000 1.0
C      1  0.5438940000000  0.5330860000000  0.4700140000000 1.0
C      1  0.5057740000000  0.4456030000000  0.4704860000000 1.0
C      1  0.4764450000000  0.4837120000000  0.4735210000000 1.0
C      1  0.4967410000000  0.5287300000000  0.4732760000000 1.0
C      1  0.5255810000000  0.4886440000000  0.4733510000000 1.0
C      1  0.4766000000000  0.4839170000000  0.5239880000000 1.0
C      1  0.4968950000000  0.5289350000000  0.5237430000000 1.0
C      1  0.5257350000000  0.4888490000000  0.5238180000000 1.0
C      1  0.4724210000000  0.4933510000000  0.4442190000000 1.0
C      1  0.5070700000000  0.5271390000000  0.4439760000000 1.0
C      1  0.5190080000000  0.4802380000000  0.4441300000000 1.0
C      1  0.4727540000000  0.4937940000000  0.5532340000000 1.0
C      1  0.5074030000000  0.5275830000000  0.5529910000000 1.0
C      1  0.5193410000000  0.4806820000000  0.5531450000000 1.0
C      1  0.4994740000000  0.5002090000000  0.4357780000000 1.0
C      1  0.4998580000000  0.5007200000000  0.5614540000000 1.0
END
