TITL C-64757-4753-2 79.8209969186393 125000 -759.573205438228 0 0 109 (C1) n - 1
REM
REM in /rds/project/t2_vol4/rds-t2-cs072/BORA/CARBON/from-Arr/AIRSS/Generating-Clusters/GAP-ML-2020/Higher-Symm/SD-CG/HFTN-CG
REM
REM
REM
REM
REM
REM ./C.cell (b20cbc046b6831c77cfcea5457e17084)
REM AIRSS Version 0.9.1 bugfix July 2018 build 013d7b7c2542+ Fri, 06 Jul 2018 19:26:36 +0100
REM compiler GCC version 9.3.0
REM options -cpp -mtune=generic -march=x86-64 -g -O0
REM seed 912778006 -1761976799 -1862514288 50026734 2013665403 -1778327296 1881785181 1576056446 1073959338 -1660273693 -1778144596 1555212479 682655955 -1533960416 -236157974 -628781069 1679844531 644327558 -176521431 1378949611 1500547308 -302877937 -463106051 -434577268 -763054106 200294333 -1218257159 890565125 -257676993 -1776874012 1606952216 792730254 104050311
REM
CELL 1.54180   50.00000   50.00000   50.00000   90.00000   90.00000   90.00000
LATT -1
SFAC C  
C      1  0.5863020000000  0.4645380000000  0.5001040000000 1.0
C      1  0.4645340000000  0.5103070000000  0.5854070000000 1.0
C      1  0.5030530000000  0.5847690000000  0.4649680000000 1.0
C      1  0.5793090000000  0.5318150000000  0.4982250000000 1.0
C      1  0.4176570000000  0.4660010000000  0.4991470000000 1.0
C      1  0.4152440000000  0.5356090000000  0.5036260000000 1.0
C      1  0.4661390000000  0.4972370000000  0.4159840000000 1.0
C      1  0.5342400000000  0.5015190000000  0.4155430000000 1.0
C      1  0.5346680000000  0.4986810000000  0.5825590000000 1.0
C      1  0.5036260000000  0.4191850000000  0.5310840000000 1.0
C      1  0.4993840000000  0.5828420000000  0.5339960000000 1.0
C      1  0.5014980000000  0.4134240000000  0.4633810000000 1.0
C      1  0.5575880000000  0.5176860000000  0.4593930000000 1.0
C      1  0.5254390000000  0.4536170000000  0.5648410000000 1.0
C      1  0.4591020000000  0.5611750000000  0.5200660000000 1.0
C      1  0.5686730000000  0.4746810000000  0.5439510000000 1.0
C      1  0.4368300000000  0.5244250000000  0.5453220000000 1.0
C      1  0.4425340000000  0.4813590000000  0.4589730000000 1.0
C      1  0.5170390000000  0.5413960000000  0.4393260000000 1.0
C      1  0.4839260000000  0.4571500000000  0.4389730000000 1.0
C      1  0.4770490000000  0.5491490000000  0.5663290000000 1.0
C      1  0.4572410000000  0.4318860000000  0.4739830000000 1.0
C      1  0.5451520000000  0.5641420000000  0.4748700000000 1.0
C      1  0.5437120000000  0.4398690000000  0.5183260000000 1.0
C      1  0.5078060000000  0.4790440000000  0.5194480000000 1.0
C      1  0.4710140000000  0.5356570000000  0.5046000000000 1.0
C      1  0.5346790000000  0.5042690000000  0.4773850000000 1.0
C      1  0.4960260000000  0.5322490000000  0.4598240000000 1.0
C      1  0.5038370000000  0.4648100000000  0.4628770000000 1.0
C      1  0.4840170000000  0.5184540000000  0.5266210000000 1.0
C      1  0.4642330000000  0.4740720000000  0.4964960000000 1.0
C      1  0.5227930000000  0.5218730000000  0.5013730000000 1.0
C      1  0.5296640000000  0.4646710000000  0.5039820000000 1.0
C      1  0.5234310000000  0.4950060000000  0.5411550000000 1.0
C      1  0.4600310000000  0.5047620000000  0.5372240000000 1.0
C      1  0.4654350000000  0.4964940000000  0.4745430000000 1.0
C      1  0.5489650000000  0.5459210000000  0.5680310000000 1.0
C      1  0.5469930000000  0.5661250000000  0.5475980000000 1.0
C      1  0.5658580000000  0.5453170000000  0.5457050000000 1.0
C      1  0.5487370000000  0.4537390000000  0.4316840000000 1.0
C      1  0.4515870000000  0.5454980000000  0.4325260000000 1.0
C      1  0.4555270000000  0.4502680000000  0.5643320000000 1.0
C      1  0.5480080000000  0.4320240000000  0.4502740000000 1.0
C      1  0.4546590000000  0.5659780000000  0.4520300000000 1.0
C      1  0.4538190000000  0.4341870000000  0.5415430000000 1.0
C      1  0.5681160000000  0.4518600000000  0.4523850000000 1.0
C      1  0.4345220000000  0.5469010000000  0.4551940000000 1.0
C      1  0.4350050000000  0.4545750000000  0.5451720000000 1.0
C      1  0.5412640000000  0.5098960000000  0.5214020000000 1.0
C      1  0.4996890000000  0.5105390000000  0.5516520000000 1.0
C      1  0.5133870000000  0.5491080000000  0.4992650000000 1.0
C      1  0.5472130000000  0.4883250000000  0.4986910000000 1.0
C      1  0.4511830000000  0.5155430000000  0.4928940000000 1.0
C      1  0.4486410000000  0.4921500000000  0.5137530000000 1.0
C      1  0.5124710000000  0.4909530000000  0.4629310000000 1.0
C      1  0.4893970000000  0.5057110000000  0.4595320000000 1.0
C      1  0.4728070000000  0.4938520000000  0.5622730000000 1.0
C      1  0.5069250000000  0.4527210000000  0.4877230000000 1.0
C      1  0.4890790000000  0.5470130000000  0.4838780000000 1.0
C      1  0.4862700000000  0.4595950000000  0.5089010000000 1.0
C      1  0.5308090000000  0.5755080000000  0.4998480000000 1.0
C      1  0.5834710000000  0.4970510000000  0.5331210000000 1.0
C      1  0.5016400000000  0.5313390000000  0.5762010000000 1.0
C      1  0.5359970000000  0.4165510000000  0.4978120000000 1.0
C      1  0.4673970000000  0.5829400000000  0.5004520000000 1.0
C      1  0.4689570000000  0.4170650000000  0.4959920000000 1.0
C      1  0.5815320000000  0.4984170000000  0.4660000000000 1.0
C      1  0.4185420000000  0.4993120000000  0.4671520000000 1.0
C      1  0.4143060000000  0.5027400000000  0.5357640000000 1.0
C      1  0.5023590000000  0.4662880000000  0.4159750000000 1.0
C      1  0.4979780000000  0.5326110000000  0.4156180000000 1.0
C      1  0.5037050000000  0.4641680000000  0.5812210000000 1.0
C      1  0.4907550000000  0.4887050000000  0.4037630000000 1.0
C      1  0.4922890000000  0.4037480000000  0.4880410000000 1.0
C      1  0.4052030000000  0.4896220000000  0.4895590000000 1.0
C      1  0.4906740000000  0.5117060000000  0.5959190000000 1.0
C      1  0.5105970000000  0.4892810000000  0.5929480000000 1.0
C      1  0.5094600000000  0.5102980000000  0.4035320000000 1.0
C      1  0.4904240000000  0.5950020000000  0.5097790000000 1.0
C      1  0.5127320000000  0.4052440000000  0.5083630000000 1.0
C      1  0.5112400000000  0.5944490000000  0.4899740000000 1.0
C      1  0.4029820000000  0.5114000000000  0.5117870000000 1.0
C      1  0.5959410000000  0.4893500000000  0.5093300000000 1.0
C      1  0.5933720000000  0.5092710000000  0.4889780000000 1.0
C      1  0.5309060000000  0.4179100000000  0.4681910000000 1.0
C      1  0.4243490000000  0.4749950000000  0.5277590000000 1.0
C      1  0.4688370000000  0.5269010000000  0.4184620000000 1.0
C      1  0.5284220000000  0.5778800000000  0.5298830000000 1.0
C      1  0.4762390000000  0.4309570000000  0.5220590000000 1.0
C      1  0.4755610000000  0.5737090000000  0.4722270000000 1.0
C      1  0.4266120000000  0.5277340000000  0.4765800000000 1.0
C      1  0.5809240000000  0.4694020000000  0.4709920000000 1.0
C      1  0.5695870000000  0.5234830000000  0.5265960000000 1.0
C      1  0.4764210000000  0.4667800000000  0.5727030000000 1.0
C      1  0.5311780000000  0.5283940000000  0.5801420000000 1.0
C      1  0.5312410000000  0.4718010000000  0.4182490000000 1.0
C      1  0.5425470000000  0.4784850000000  0.5601600000000 1.0
C      1  0.4776570000000  0.5666690000000  0.5440850000000 1.0
C      1  0.5641600000000  0.5427980000000  0.4760850000000 1.0
C      1  0.5415250000000  0.5216020000000  0.4344200000000 1.0
C      1  0.4585330000000  0.4762630000000  0.4342500000000 1.0
C      1  0.4539220000000  0.5326000000000  0.5702370000000 1.0
C      1  0.4782820000000  0.4305240000000  0.4530900000000 1.0
C      1  0.5243450000000  0.5671920000000  0.4542490000000 1.0
C      1  0.5252390000000  0.4344010000000  0.5431960000000 1.0
C      1  0.5701800000000  0.4537190000000  0.5233650000000 1.0
C      1  0.4324740000000  0.5465660000000  0.5252780000000 1.0
C      1  0.4425050000000  0.4580550000000  0.4808240000000 1.0
C      1  0.4999300000000  0.5048740000000  0.5079570000000 1.0
END
