TITL C-64407-471-8 21.588812504591 125000 -404.959106404612 0 0 61 (C1) n - 1
REM
REM in /rds/project/t2_vol4/rds-t2-cs072/BORA/CARBON/from-Arr/AIRSS/Generating-Clusters/GAP-ML-2020/Higher-Symm/SD-CG/HFTN-CG
REM
REM
REM
REM
REM
REM ./C.cell (b20cbc046b6831c77cfcea5457e17084)
REM AIRSS Version 0.9.1 bugfix July 2018 build 013d7b7c2542+ Fri, 06 Jul 2018 19:26:36 +0100
REM compiler GCC version 9.3.0
REM options -cpp -mtune=generic -march=x86-64 -g -O0
REM seed 1965725883 -384851220 -348074079 -1950502851 952732303 746690988 -217542322 1013229865 -246061508 509263141 -1051668265 -2061966675 2036561721 -699111686 -506789135 57271765 -1106394111 978044187 1272649446 2013444858 -1978445463 -1709140621 -968218795 -809527877 604778861 1150331900 1651834267 -1913467069 -1932605387 2127486931 -1732251744 1844938576 731722335
REM
CELL 1.54180   50.00000   50.00000   50.00000   90.00000   90.00000   90.00000
LATT -1
SFAC C  
C      1  0.5618830000000  0.5005600000000  0.4707860000000 1.0
C      1  0.5197930000000  0.4405660000000  0.4672400000000 1.0
C      1  0.4512990000000  0.4605800000000  0.4704260000000 1.0
C      1  0.4487830000000  0.5349750000000  0.4700220000000 1.0
C      1  0.5206420000000  0.5594050000000  0.4698450000000 1.0
C      1  0.5431310000000  0.4474510000000  0.5422100000000 1.0
C      1  0.4644290000000  0.4418420000000  0.5438320000000 1.0
C      1  0.4348320000000  0.5149670000000  0.5411300000000 1.0
C      1  0.4939220000000  0.5683380000000  0.5392630000000 1.0
C      1  0.5628880000000  0.5264730000000  0.5433320000000 1.0
C      1  0.5215430000000  0.5129310000000  0.5704350000000 1.0
C      1  0.5168420000000  0.4844440000000  0.5627730000000 1.0
C      1  0.4871710000000  0.4800820000000  0.5711990000000 1.0
C      1  0.4738090000000  0.5059720000000  0.5735390000000 1.0
C      1  0.4943660000000  0.5257440000000  0.5627650000000 1.0
C      1  0.4851540000000  0.4790790000000  0.4385190000000 1.0
C      1  0.4693770000000  0.5024530000000  0.4416770000000 1.0
C      1  0.5059420000000  0.5315830000000  0.4382550000000 1.0
C      1  0.5247500000000  0.5108500000000  0.4378670000000 1.0
C      1  0.5138010000000  0.4834000000000  0.4381780000000 1.0
C      1  0.5438820000000  0.5450820000000  0.4621540000000 1.0
C      1  0.5459200000000  0.4777420000000  0.4667370000000 1.0
C      1  0.4942300000000  0.4366770000000  0.4577750000000 1.0
C      1  0.4385090000000  0.4841370000000  0.4624300000000 1.0
C      1  0.4713810000000  0.5497970000000  0.4581860000000 1.0
C      1  0.4497510000000  0.5342080000000  0.4980550000000 1.0
C      1  0.5187720000000  0.5584540000000  0.4980570000000 1.0
C      1  0.5637330000000  0.5014450000000  0.4998580000000 1.0
C      1  0.5215490000000  0.4384100000000  0.4970830000000 1.0
C      1  0.4526610000000  0.4605410000000  0.4992610000000 1.0
C      1  0.4727690000000  0.4561550000000  0.5636320000000 1.0
C      1  0.4476960000000  0.5106700000000  0.5629060000000 1.0
C      1  0.4929980000000  0.5550420000000  0.5611890000000 1.0
C      1  0.5468260000000  0.5227260000000  0.5632890000000 1.0
C      1  0.5350430000000  0.4604510000000  0.5628320000000 1.0
C      1  0.5230570000000  0.4890130000000  0.5319730000000 1.0
C      1  0.4993200000000  0.4734740000000  0.5250750000000 1.0
C      1  0.4775590000000  0.4918810000000  0.5278960000000 1.0
C      1  0.4880610000000  0.5191760000000  0.5312210000000 1.0
C      1  0.5158100000000  0.5160120000000  0.5243100000000 1.0
C      1  0.4786160000000  0.5373050000000  0.5077750000000 1.0
C      1  0.5322990000000  0.5335950000000  0.5080410000000 1.0
C      1  0.5430280000000  0.4795270000000  0.5111160000000 1.0
C      1  0.4959120000000  0.4506820000000  0.5074610000000 1.0
C      1  0.4565330000000  0.4889720000000  0.5088070000000 1.0
C      1  0.5252590000000  0.4858330000000  0.4877660000000 1.0
C      1  0.4984940000000  0.4739820000000  0.4902020000000 1.0
C      1  0.4781680000000  0.4936950000000  0.4899930000000 1.0
C      1  0.4906600000000  0.5192400000000  0.4854670000000 1.0
C      1  0.5181910000000  0.5139130000000  0.4913250000000 1.0
C      1  0.4438460000000  0.5086880000000  0.4540820000000 1.0
C      1  0.4997540000000  0.5577380000000  0.4503050000000 1.0
C      1  0.5485980000000  0.5197060000000  0.4532920000000 1.0
C      1  0.5306170000000  0.4625260000000  0.4499260000000 1.0
C      1  0.4749200000000  0.4553350000000  0.4524020000000 1.0
C      1  0.4683320000000  0.4443190000000  0.5162820000000 1.0
C      1  0.4390000000000  0.5128970000000  0.5139690000000 1.0
C      1  0.4946610000000  0.5620220000000  0.5125260000000 1.0
C      1  0.5592820000000  0.5243930000000  0.5158660000000 1.0
C      1  0.5421530000000  0.4494000000000  0.5144870000000 1.0
C      1  0.4841670000000  0.5230680000000  0.4551200000000 1.0
END
