TITL C-64783-5773-4 -15.1056269086845 125000 -518.727198236436 0 0 76 (C1) n - 1
REM
REM in /rds/project/t2_vol4/rds-t2-cs072/BORA/CARBON/from-Arr/AIRSS/Generating-Clusters/GAP-ML-2020/Higher-Symm/SD-CG/HFTN-CG
REM
REM
REM
REM
REM
REM ./C.cell (b20cbc046b6831c77cfcea5457e17084)
REM AIRSS Version 0.9.1 bugfix July 2018 build 013d7b7c2542+ Fri, 06 Jul 2018 19:26:36 +0100
REM compiler GCC version 9.3.0
REM options -cpp -mtune=generic -march=x86-64 -g -O0
REM seed 1301923677 -1160690679 1606930993 -1954922200 -175558158 991532609 -380265568 256197345 -2027010268 476161873 -505405261 1183400325 1108017999 -75306542 1791074266 953620112 -1218452318 -357879049 1176898852 360146 1956162852 -1933807049 -370051110 978890068 -1623903281 1330775226 1594771987 1204796893 349044941 -1402514321 233940816 1921662363 -942901980
REM
CELL 1.54180   50.00000   50.00000   50.00000   90.00000   90.00000   90.00000
LATT -1
SFAC C  
C      1  0.4994440000000  0.4602050000000  0.5672660000000 1.0
C      1  0.4240230000000  0.4567080000000  0.4626330000000 1.0
C      1  0.5709970000000  0.4621270000000  0.4622520000000 1.0
C      1  0.4916530000000  0.5329410000000  0.5807130000000 1.0
C      1  0.5768030000000  0.5430760000000  0.4590940000000 1.0
C      1  0.4288680000000  0.5380590000000  0.4631700000000 1.0
C      1  0.5247910000000  0.4445380000000  0.4639120000000 1.0
C      1  0.5213340000000  0.4467080000000  0.5337840000000 1.0
C      1  0.4577230000000  0.4481040000000  0.4988400000000 1.0
C      1  0.4748900000000  0.5558800000000  0.4644700000000 1.0
C      1  0.4821850000000  0.5539190000000  0.5354900000000 1.0
C      1  0.5444570000000  0.5531580000000  0.4952150000000 1.0
C      1  0.5639840000000  0.4844520000000  0.5342380000000 1.0
C      1  0.4308350000000  0.4898470000000  0.5274930000000 1.0
C      1  0.5080980000000  0.4869440000000  0.4271250000000 1.0
C      1  0.4365720000000  0.5170250000000  0.5351220000000 1.0
C      1  0.5702060000000  0.5114380000000  0.5260000000000 1.0
C      1  0.4909300000000  0.5126510000000  0.4269990000000 1.0
C      1  0.4323830000000  0.4605580000000  0.4886990000000 1.0
C      1  0.5440270000000  0.4625070000000  0.4521250000000 1.0
C      1  0.5280580000000  0.4610980000000  0.5585010000000 1.0
C      1  0.5692380000000  0.5397520000000  0.4854490000000 1.0
C      1  0.4556190000000  0.5377320000000  0.4526750000000 1.0
C      1  0.4735160000000  0.5389510000000  0.5606370000000 1.0
C      1  0.4671100000000  0.4826050000000  0.4497170000000 1.0
C      1  0.5488880000000  0.4919670000000  0.4941890000000 1.0
C      1  0.4672300000000  0.4894380000000  0.5562460000000 1.0
C      1  0.5324990000000  0.5177090000000  0.4482190000000 1.0
C      1  0.4518890000000  0.5090580000000  0.4953960000000 1.0
C      1  0.5336750000000  0.5134760000000  0.5555570000000 1.0
C      1  0.4626500000000  0.5552680000000  0.5137780000000 1.0
C      1  0.5019760000000  0.5518080000000  0.4576440000000 1.0
C      1  0.5379240000000  0.5497220000000  0.5223130000000 1.0
C      1  0.5391740000000  0.4458470000000  0.5117800000000 1.0
C      1  0.4975950000000  0.4487370000000  0.4589530000000 1.0
C      1  0.4639550000000  0.4514040000000  0.5262380000000 1.0
C      1  0.4335590000000  0.4990970000000  0.4373450000000 1.0
C      1  0.5895980000000  0.4929380000000  0.4816970000000 1.0
C      1  0.4791690000000  0.4899500000000  0.6052260000000 1.0
C      1  0.5658610000000  0.5003820000000  0.4357400000000 1.0
C      1  0.4110430000000  0.5075660000000  0.4836100000000 1.0
C      1  0.5197940000000  0.5177290000000  0.6074080000000 1.0
C      1  0.5216530000000  0.4984180000000  0.4944410000000 1.0
C      1  0.4887500000000  0.4832170000000  0.5355520000000 1.0
C      1  0.4772760000000  0.4818750000000  0.4769240000000 1.0
C      1  0.4793400000000  0.5031560000000  0.4949960000000 1.0
C      1  0.5108260000000  0.5189610000000  0.5362500000000 1.0
C      1  0.5231900000000  0.5192460000000  0.4757660000000 1.0
C      1  0.5811240000000  0.4652170000000  0.4894560000000 1.0
C      1  0.4805940000000  0.4778410000000  0.5804250000000 1.0
C      1  0.4386890000000  0.4718230000000  0.4454270000000 1.0
C      1  0.4196950000000  0.5355890000000  0.4906930000000 1.0
C      1  0.5212990000000  0.5257490000000  0.5805050000000 1.0
C      1  0.5609850000000  0.5279360000000  0.4429920000000 1.0
C      1  0.5605340000000  0.4672570000000  0.5102980000000 1.0
C      1  0.4488900000000  0.4720900000000  0.5402740000000 1.0
C      1  0.4910140000000  0.4683650000000  0.4386010000000 1.0
C      1  0.4404870000000  0.5341490000000  0.5114630000000 1.0
C      1  0.5525490000000  0.5297370000000  0.5380940000000 1.0
C      1  0.5080820000000  0.5316540000000  0.4375880000000 1.0
C      1  0.5364680000000  0.4879230000000  0.4377100000000 1.0
C      1  0.5450140000000  0.4843300000000  0.5551990000000 1.0
C      1  0.4283800000000  0.4884420000000  0.4987230000000 1.0
C      1  0.4628810000000  0.5119840000000  0.4383070000000 1.0
C      1  0.4556140000000  0.5171230000000  0.5557640000000 1.0
C      1  0.5728500000000  0.5124200000000  0.4968910000000 1.0
C      1  0.5211110000000  0.5479230000000  0.4788280000000 1.0
C      1  0.5101470000000  0.5479990000000  0.5312720000000 1.0
C      1  0.4677810000000  0.5649130000000  0.4892360000000 1.0
C      1  0.4801000000000  0.4535650000000  0.4814700000000 1.0
C      1  0.4919280000000  0.4529030000000  0.5382210000000 1.0
C      1  0.5326400000000  0.4354560000000  0.4881100000000 1.0
C      1  0.5816240000000  0.4877710000000  0.4547560000000 1.0
C      1  0.4181970000000  0.5122110000000  0.4563590000000 1.0
C      1  0.4904310000000  0.5148590000000  0.6050040000000 1.0
C      1  0.5006930000000  0.5007410000000  0.5148970000000 1.0
END
