TITL C-64782-4679-4 11.5512538339543 125000 -245.193410702717 0 0 37 (C1) n - 1
REM
REM in /rds/project/t2_vol4/rds-t2-cs072/BORA/CARBON/from-Arr/AIRSS/Generating-Clusters/GAP-ML-2020/Higher-Symm/SD-CG/HFTN-CG
REM
REM
REM
REM
REM
REM ./C.cell (b20cbc046b6831c77cfcea5457e17084)
REM AIRSS Version 0.9.1 bugfix July 2018 build 013d7b7c2542+ Fri, 06 Jul 2018 19:26:36 +0100
REM compiler GCC version 9.3.0
REM options -cpp -mtune=generic -march=x86-64 -g -O0
REM seed -555122308 -1987033732 -341377797 -1135751489 558039841 21533638 2137600239 -581009604 647936023 696131533 1640516140 859813119 -852371789 -382779288 1243507827 -1066764779 610477091 -317565887 693937743 -1901835826 414936707 -160022652 848217328 484309434 1894598973 -736740532 -92085932 1229849269 2109616269 789527097 -766993930 -270793989 2012895728
REM
CELL 1.54180   50.00000   50.00000   50.00000   90.00000   90.00000   90.00000
LATT -1
SFAC C  
C      1  0.5713510000000  0.5230730000000  0.5203540000000 1.0
C      1  0.5447640000000  0.4299540000000  0.5338570000000 1.0
C      1  0.4704110000000  0.4283950000000  0.4926620000000 1.0
C      1  0.4318260000000  0.5194570000000  0.5349050000000 1.0
C      1  0.4916370000000  0.5767620000000  0.5113580000000 1.0
C      1  0.5729110000000  0.5292650000000  0.4934620000000 1.0
C      1  0.5475710000000  0.4298450000000  0.5062310000000 1.0
C      1  0.4785880000000  0.4443040000000  0.4742350000000 1.0
C      1  0.4217610000000  0.5251380000000  0.5091330000000 1.0
C      1  0.4868180000000  0.5782680000000  0.4847500000000 1.0
C      1  0.4775540000000  0.4695360000000  0.4641130000000 1.0
C      1  0.4367130000000  0.5240440000000  0.4881150000000 1.0
C      1  0.4953030000000  0.5534520000000  0.4769090000000 1.0
C      1  0.5589730000000  0.5265570000000  0.4717270000000 1.0
C      1  0.5343380000000  0.4456120000000  0.4911600000000 1.0
C      1  0.4785470000000  0.4489890000000  0.5104210000000 1.0
C      1  0.4579240000000  0.5156200000000  0.5366970000000 1.0
C      1  0.5009100000000  0.5627960000000  0.5310170000000 1.0
C      1  0.5481290000000  0.5093850000000  0.5231330000000 1.0
C      1  0.5307800000000  0.4458590000000  0.5497590000000 1.0
C      1  0.4645110000000  0.5161690000000  0.4858870000000 1.0
C      1  0.4852120000000  0.5288070000000  0.4676870000000 1.0
C      1  0.5310070000000  0.5183700000000  0.4788890000000 1.0
C      1  0.5198230000000  0.4715250000000  0.4913070000000 1.0
C      1  0.5021060000000  0.4822510000000  0.4697280000000 1.0
C      1  0.4770900000000  0.4952280000000  0.5300540000000 1.0
C      1  0.5051260000000  0.5344880000000  0.5195230000000 1.0
C      1  0.5209000000000  0.5120150000000  0.5312100000000 1.0
C      1  0.5134770000000  0.4646680000000  0.5403380000000 1.0
C      1  0.4677710000000  0.4756660000000  0.5108450000000 1.0
C      1  0.4673500000000  0.4868390000000  0.4854490000000 1.0
C      1  0.5036110000000  0.4597410000000  0.5133780000000 1.0
C      1  0.5337760000000  0.4969210000000  0.4992790000000 1.0
C      1  0.4768290000000  0.5222740000000  0.5143780000000 1.0
C      1  0.5166920000000  0.5411450000000  0.4931710000000 1.0
C      1  0.5066180000000  0.5097870000000  0.4649910000000 1.0
C      1  0.5041410000000  0.4914900000000  0.5415940000000 1.0
END
