TITL C-64407-471-5 -90.1158149212977 125000 -89.6697132544 0 0 14 (C2) n - 1
REM
REM in /rds/project/t2_vol4/rds-t2-cs072/BORA/CARBON/from-Arr/AIRSS/Generating-Clusters/GAP-ML-2020/Higher-Symm/SD-CG/HFTN-CG
REM
REM
REM
REM
REM
REM ./C.cell (b20cbc046b6831c77cfcea5457e17084)
REM AIRSS Version 0.9.1 bugfix July 2018 build 013d7b7c2542+ Fri, 06 Jul 2018 19:26:36 +0100
REM compiler GCC version 9.3.0
REM options -cpp -mtune=generic -march=x86-64 -g -O0
REM seed -794033334 1489344857 1764719554 -2019716021 -1136120777 2059634543 -1606306808 -1900827872 -1863264163 -1149774803 -1903738390 -643380128 1077050283 1476087219 -79188134 570304669 -37486235 -2086302679 -356981562 -1916439972 990177695 -1446615731 -1198708412 169854241 299953340 -921679663 1922256230 2082939834 -283069645 85875188 1030672816 -331593968 1249360048
REM
CELL 1.54180   50.00000   50.00000   50.00000   90.00000   90.00000   90.00000
LATT -1
SFAC C  
C      1  0.4878240000000  0.5183920000000  0.4721880000000 1.0
C      1  0.4784720000000  0.5246060000000  0.4988210000000 1.0
C      1  0.5101420000000  0.5225300000000  0.5287480000000 1.0
C      1  0.5144300000000  0.5269760000000  0.4817360000000 1.0
C      1  0.5008800000000  0.4704760000000  0.4795680000000 1.0
C      1  0.4674990000000  0.4809230000000  0.5115810000000 1.0
C      1  0.5105140000000  0.4770390000000  0.5177060000000 1.0
C      1  0.5255670000000  0.4793660000000  0.4931420000000 1.0
C      1  0.5250790000000  0.5020390000000  0.4763850000000 1.0
C      1  0.4745720000000  0.5056140000000  0.5184570000000 1.0
C      1  0.4989090000000  0.4985020000000  0.5305970000000 1.0
C      1  0.4997580000000  0.4938950000000  0.4649330000000 1.0
C      1  0.4883390000000  0.4661810000000  0.5036900000000 1.0
C      1  0.5039490000000  0.5349390000000  0.5059100000000 1.0
END
