TITL C-64385-467-7 -17.7543161837717 125000 -214.091329733261 0 0 32 (C4v) n - 1
REM
REM in /rds/project/t2_vol4/rds-t2-cs072/BORA/CARBON/from-Arr/AIRSS/Generating-Clusters/GAP-ML-2020/Higher-Symm/SD-CG/HFTN-CG
REM
REM
REM
REM
REM
REM ./C.cell (b20cbc046b6831c77cfcea5457e17084)
REM AIRSS Version 0.9.1 bugfix July 2018 build 013d7b7c2542+ Fri, 06 Jul 2018 19:26:36 +0100
REM compiler GCC version 9.3.0
REM options -cpp -mtune=generic -march=x86-64 -g -O0
REM seed 894592354 30964893 -41164751 2072677851 -1275742789 1476574524 -303338393 -1332129930 -242265468 -292949346 -524133958 2100133895 -2087702730 -1940734490 1525360153 -1583934211 902218921 986242429 -1510440478 -271338516 1636526118 29159826 296112571 885479503 -1263799797 2022195333 -339200420 1976918920 -1679245238 -2067114674 -815992095 232597890 1318766045
REM
CELL 1.54180   50.00000   50.00000   50.00000   90.00000   90.00000   90.00000
LATT -1
SFAC C  
C      1  0.5137820000000  0.5790560000000  0.4806730000000 1.0
C      1  0.4219720000000  0.5124110000000  0.4758280000000 1.0
C      1  0.4884200000000  0.4204840000000  0.4811560000000 1.0
C      1  0.5802300000000  0.4871290000000  0.4860000000000 1.0
C      1  0.5135950000000  0.4204740000000  0.4827230000000 1.0
C      1  0.4219420000000  0.4871890000000  0.4761530000000 1.0
C      1  0.4886060000000  0.5790660000000  0.4791070000000 1.0
C      1  0.5802590000000  0.5123510000000  0.4856740000000 1.0
C      1  0.5652540000000  0.5327930000000  0.4975210000000 1.0
C      1  0.4675500000000  0.5649950000000  0.4910260000000 1.0
C      1  0.4353310000000  0.4670840000000  0.4902930000000 1.0
C      1  0.5330340000000  0.4348830000000  0.4967900000000 1.0
C      1  0.5651770000000  0.4670350000000  0.4983710000000 1.0
C      1  0.4673980000000  0.4349080000000  0.4927060000000 1.0
C      1  0.4354080000000  0.5328420000000  0.4894440000000 1.0
C      1  0.5331870000000  0.5649700000000  0.4951080000000 1.0
C      1  0.4734850000000  0.4542100000000  0.5146160000000 1.0
C      1  0.5448490000000  0.4747530000000  0.5187890000000 1.0
C      1  0.5244010000000  0.5462320000000  0.5165870000000 1.0
C      1  0.4530380000000  0.5256890000000  0.5124160000000 1.0
C      1  0.4735930000000  0.5462510000000  0.5134270000000 1.0
C      1  0.5449080000000  0.5256540000000  0.5181300000000 1.0
C      1  0.5242930000000  0.4541910000000  0.5177770000000 1.0
C      1  0.4529780000000  0.4747870000000  0.5130730000000 1.0
C      1  0.4556540000000  0.5003430000000  0.5211260000000 1.0
C      1  0.4983830000000  0.4574680000000  0.5243420000000 1.0
C      1  0.5412130000000  0.5003110000000  0.5264490000000 1.0
C      1  0.4984840000000  0.5431860000000  0.5232340000000 1.0
C      1  0.5588240000000  0.4416860000000  0.4886010000000 1.0
C      1  0.5589600000000  0.5578970000000  0.4870980000000 1.0
C      1  0.4429640000000  0.5579410000000  0.4798840000000 1.0
C      1  0.4428280000000  0.4417300000000  0.4813840000000 1.0
END
