TITL C-64760-4600-1 -2.82507477243452 125000 -599.484694697351 0 0 86 (C1) n - 1
REM
REM in /rds/project/t2_vol4/rds-t2-cs072/BORA/CARBON/from-Arr/AIRSS/Generating-Clusters/GAP-ML-2020/Higher-Symm/SD-CG/HFTN-CG
REM
REM
REM
REM
REM
REM ./C.cell (b20cbc046b6831c77cfcea5457e17084)
REM AIRSS Version 0.9.1 bugfix July 2018 build 013d7b7c2542+ Fri, 06 Jul 2018 19:26:36 +0100
REM compiler GCC version 9.3.0
REM options -cpp -mtune=generic -march=x86-64 -g -O0
REM seed -662478433 1433997821 341983667 -72698201 454798925 989717693 714582581 -776160955 2085364443 -1320905771 -465215418 -911568663 -1222761974 -1212525758 -909102510 -996675694 790692119 235863962 1581838141 324336348 -663197251 -399488675 1207718657 -759412744 217356607 -631423145 1176541763 1075988783 980243671 -2014784882 599685196 -2107132301 431517629
REM
CELL 1.54180   50.00000   50.00000   50.00000   90.00000   90.00000   90.00000
LATT -1
SFAC C  
C      1  0.4118260000000  0.4863610000000  0.5136700000000 1.0
C      1  0.5547690000000  0.4297200000000  0.5121600000000 1.0
C      1  0.5326140000000  0.5811280000000  0.5099220000000 1.0
C      1  0.5322740000000  0.4645090000000  0.4844150000000 1.0
C      1  0.5034900000000  0.5409760000000  0.4675540000000 1.0
C      1  0.4534140000000  0.4942380000000  0.4875790000000 1.0
C      1  0.5602040000000  0.5459940000000  0.4880130000000 1.0
C      1  0.4240730000000  0.5286270000000  0.4904780000000 1.0
C      1  0.5120070000000  0.4247400000000  0.4868810000000 1.0
C      1  0.5629450000000  0.4568240000000  0.5232330000000 1.0
C      1  0.5048590000000  0.5751140000000  0.5213870000000 1.0
C      1  0.4321600000000  0.4663020000000  0.5221620000000 1.0
C      1  0.5637480000000  0.4614100000000  0.4750320000000 1.0
C      1  0.4978030000000  0.5708320000000  0.4712850000000 1.0
C      1  0.4341710000000  0.4644630000000  0.4739080000000 1.0
C      1  0.5421590000000  0.5030110000000  0.5689780000000 1.0
C      1  0.4763890000000  0.5342250000000  0.5687150000000 1.0
C      1  0.4820780000000  0.4612210000000  0.5680280000000 1.0
C      1  0.4949460000000  0.4834870000000  0.5802120000000 1.0
C      1  0.5161560000000  0.5026650000000  0.5806870000000 1.0
C      1  0.4888850000000  0.5115600000000  0.5807490000000 1.0
C      1  0.5319400000000  0.4264710000000  0.4651790000000 1.0
C      1  0.5459010000000  0.5575120000000  0.4662080000000 1.0
C      1  0.4167710000000  0.5103390000000  0.4679600000000 1.0
C      1  0.4515440000000  0.4890590000000  0.5401510000000 1.0
C      1  0.5341570000000  0.4630910000000  0.5392950000000 1.0
C      1  0.5147340000000  0.5477390000000  0.5366620000000 1.0
C      1  0.5256440000000  0.4250720000000  0.5136330000000 1.0
C      1  0.5515490000000  0.5582730000000  0.5132420000000 1.0
C      1  0.4208790000000  0.5147270000000  0.5163760000000 1.0
C      1  0.5632280000000  0.5249310000000  0.4362120000000 1.0
C      1  0.4545100000000  0.5292040000000  0.4421480000000 1.0
C      1  0.4998570000000  0.4556110000000  0.4404650000000 1.0
C      1  0.4954050000000  0.5542240000000  0.5597490000000 1.0
C      1  0.4547700000000  0.4674710000000  0.5610240000000 1.0
C      1  0.5502710000000  0.4762170000000  0.5617290000000 1.0
C      1  0.4857640000000  0.5743250000000  0.4988540000000 1.0
C      1  0.4402630000000  0.4505170000000  0.4981150000000 1.0
C      1  0.5736350000000  0.4719770000000  0.5003400000000 1.0
C      1  0.5613090000000  0.4792090000000  0.4524710000000 1.0
C      1  0.4746590000000  0.5731310000000  0.4539780000000 1.0
C      1  0.4533230000000  0.4632130000000  0.4524820000000 1.0
C      1  0.5015280000000  0.5080090000000  0.4287030000000 1.0
C      1  0.4729490000000  0.5087370000000  0.4315540000000 1.0
C      1  0.5118070000000  0.4809630000000  0.4299840000000 1.0
C      1  0.5269120000000  0.5792880000000  0.4726930000000 1.0
C      1  0.4106870000000  0.4827010000000  0.4764200000000 1.0
C      1  0.5597310000000  0.4315580000000  0.4750070000000 1.0
C      1  0.4438600000000  0.4486420000000  0.5431630000000 1.0
C      1  0.5728520000000  0.4757570000000  0.5452220000000 1.0
C      1  0.4837310000000  0.5745510000000  0.5442690000000 1.0
C      1  0.5013680000000  0.5272370000000  0.5184700000000 1.0
C      1  0.4777160000000  0.4876650000000  0.5249740000000 1.0
C      1  0.5233880000000  0.4871120000000  0.5239290000000 1.0
C      1  0.5260110000000  0.4446720000000  0.4445920000000 1.0
C      1  0.5411980000000  0.5400570000000  0.4431070000000 1.0
C      1  0.4342880000000  0.5093050000000  0.4463520000000 1.0
C      1  0.4774190000000  0.4885220000000  0.4974910000000 1.0
C      1  0.5223430000000  0.4862550000000  0.4963430000000 1.0
C      1  0.5024020000000  0.5246020000000  0.4904550000000 1.0
C      1  0.5171070000000  0.4379180000000  0.5378610000000 1.0
C      1  0.5450750000000  0.5448570000000  0.5377550000000 1.0
C      1  0.4375770000000  0.5158230000000  0.5397350000000 1.0
C      1  0.4601140000000  0.5622040000000  0.5343540000000 1.0
C      1  0.4663050000000  0.4352830000000  0.5316530000000 1.0
C      1  0.5738870000000  0.5020300000000  0.5340680000000 1.0
C      1  0.4553910000000  0.5533840000000  0.4586100000000 1.0
C      1  0.4778350000000  0.4483480000000  0.4571990000000 1.0
C      1  0.5683500000000  0.5069860000000  0.4571780000000 1.0
C      1  0.5772060000000  0.4998820000000  0.5052790000000 1.0
C      1  0.4596990000000  0.5642800000000  0.5052910000000 1.0
C      1  0.4635740000000  0.4347170000000  0.5024430000000 1.0
C      1  0.5383630000000  0.4705750000000  0.4371320000000 1.0
C      1  0.5139730000000  0.5314270000000  0.4417420000000 1.0
C      1  0.4529340000000  0.4879160000000  0.4382910000000 1.0
C      1  0.3924140000000  0.4785710000000  0.4958130000000 1.0
C      1  0.5712380000000  0.4166700000000  0.4942480000000 1.0
C      1  0.5352790000000  0.5995130000000  0.4894410000000 1.0
C      1  0.5560670000000  0.5208050000000  0.5492210000000 1.0
C      1  0.4531490000000  0.5377690000000  0.5503540000000 1.0
C      1  0.4905090000000  0.4404960000000  0.5481370000000 1.0
C      1  0.4434120000000  0.5501480000000  0.4855220000000 1.0
C      1  0.4842840000000  0.4329440000000  0.4818030000000 1.0
C      1  0.5709930000000  0.5188570000000  0.4844100000000 1.0
C      1  0.5006730000000  0.5019380000000  0.5312610000000 1.0
C      1  0.5003260000000  0.4973820000000  0.4842070000000 1.0
END
