TITL C-64391-574-7 0.0065925370584483 125000 -104.871775642518 0 0 16 (C3v) n - 1
REM
REM in /rds/project/t2_vol4/rds-t2-cs072/BORA/CARBON/from-Arr/AIRSS/Generating-Clusters/GAP-ML-2020/Higher-Symm/SD-CG/HFTN-CG
REM
REM
REM
REM
REM
REM ./C.cell (b20cbc046b6831c77cfcea5457e17084)
REM AIRSS Version 0.9.1 bugfix July 2018 build 013d7b7c2542+ Fri, 06 Jul 2018 19:26:36 +0100
REM compiler GCC version 9.3.0
REM options -cpp -mtune=generic -march=x86-64 -g -O0
REM seed -1686176956 -59377192 -1887864589 -1483652156 -28796447 -646981345 1334807822 1269175199 1166689227 -1389204513 1681117257 -1947517761 1072980730 -917464714 1253908162 -493153771 -2058979488 1993950074 -24826591 1865023199 1238657303 1952581632 1081717804 344238483 1195265815 -2085714642 1012587209 -714011780 1523208885 -1522613859 1970437583 -1794349926 585528660
REM
CELL 1.54180   50.00000   50.00000   50.00000   90.00000   90.00000   90.00000
LATT -1
SFAC C  
C      1  0.5313110000000  0.5017770000000  0.4648950000000 1.0
C      1  0.4896500000000  0.4758260000000  0.4648840000000 1.0
C      1  0.4880060000000  0.5248810000000  0.4648890000000 1.0
C      1  0.5202100000000  0.5013960000000  0.5450070000000 1.0
C      1  0.4948560000000  0.4856020000000  0.5450000000000 1.0
C      1  0.4938550000000  0.5154570000000  0.5450030000000 1.0
C      1  0.4775670000000  0.5416310000000  0.4816960000000 1.0
C      1  0.5510330000000  0.5024360000000  0.4817050000000 1.0
C      1  0.4803560000000  0.4584100000000  0.4816870000000 1.0
C      1  0.5446370000000  0.5022160000000  0.5317990000000 1.0
C      1  0.4833550000000  0.4640430000000  0.5317830000000 1.0
C      1  0.4809370000000  0.5362010000000  0.5317910000000 1.0
C      1  0.5551630000000  0.5025710000000  0.5085010000000 1.0
C      1  0.4784030000000  0.4547570000000  0.5084810000000 1.0
C      1  0.4753750000000  0.5451400000000  0.5084910000000 1.0
C      1  0.5029900000000  0.5008280000000  0.4594220000000 1.0
END
