TITL C-64771-4568-8 -25.381373573354 125000 -489.526728263894 0 0 69 (C3) n - 1
REM
REM in /rds/project/t2_vol4/rds-t2-cs072/BORA/CARBON/from-Arr/AIRSS/Generating-Clusters/GAP-ML-2020/Higher-Symm/SD-CG/HFTN-CG
REM
REM
REM
REM
REM
REM ./C.cell (b20cbc046b6831c77cfcea5457e17084)
REM AIRSS Version 0.9.1 bugfix July 2018 build 013d7b7c2542+ Fri, 06 Jul 2018 19:26:36 +0100
REM compiler GCC version 9.3.0
REM options -cpp -mtune=generic -march=x86-64 -g -O0
REM seed 783539338 -1251278084 1045057963 825576648 1510415237 1043310118 -845267635 562237220 -465503494 -109687178 -1464893516 2123533290 560698455 776151884 -1371188261 738918171 -307502997 92750277 -1635096336 -1444539201 -1748419423 -1992816551 -100979073 215489841 -1828482229 -540830938 -1881749815 -557356698 -2138766867 -819175101 -1943056424 767797680 537339214
REM
CELL 1.54180   50.00000   50.00000   50.00000   90.00000   90.00000   90.00000
LATT -1
SFAC C  
C      1  0.4245670000000  0.5003960000000  0.5186190000000 1.0
C      1  0.5373650000000  0.4345580000000  0.5189260000000 1.0
C      1  0.5379840000000  0.5651640000000  0.5186540000000 1.0
C      1  0.5065040000000  0.5162280000000  0.4791040000000 1.0
C      1  0.4827040000000  0.4974260000000  0.4791080000000 1.0
C      1  0.5108870000000  0.4862150000000  0.4791740000000 1.0
C      1  0.5284160000000  0.5233880000000  0.4361310000000 1.0
C      1  0.4655660000000  0.5126310000000  0.4360590000000 1.0
C      1  0.5063060000000  0.4635800000000  0.4362230000000 1.0
C      1  0.5004330000000  0.5545130000000  0.5488980000000 1.0
C      1  0.4525520000000  0.4733360000000  0.5489950000000 1.0
C      1  0.5467930000000  0.4724590000000  0.5491390000000 1.0
C      1  0.5091110000000  0.4459040000000  0.5539660000000 1.0
C      1  0.5422690000000  0.5351780000000  0.5538290000000 1.0
C      1  0.4483770000000  0.5192560000000  0.5537220000000 1.0
C      1  0.5596990000000  0.5479280000000  0.5118470000000 1.0
C      1  0.4286380000000  0.5277890000000  0.5116920000000 1.0
C      1  0.5116090000000  0.4243570000000  0.5120330000000 1.0
C      1  0.4577710000000  0.4934990000000  0.4569960000000 1.0
C      1  0.5267640000000  0.4664880000000  0.4571560000000 1.0
C      1  0.5156590000000  0.5397430000000  0.4569860000000 1.0
C      1  0.5339410000000  0.5551810000000  0.4741380000000 1.0
C      1  0.4352530000000  0.5016890000000  0.4741020000000 1.0
C      1  0.5309220000000  0.4429680000000  0.4743680000000 1.0
C      1  0.5214460000000  0.5691960000000  0.4959120000000 1.0
C      1  0.4293530000000  0.4839570000000  0.4959520000000 1.0
C      1  0.5492190000000  0.4468220000000  0.4962100000000 1.0
C      1  0.5021620000000  0.4713750000000  0.5659290000000 1.0
C      1  0.5236800000000  0.5164770000000  0.5658670000000 1.0
C      1  0.4738610000000  0.5125610000000  0.5658000000000 1.0
C      1  0.5264370000000  0.4878800000000  0.5645660000000 1.0
C      1  0.4972490000000  0.5292410000000  0.5644360000000 1.0
C      1  0.4760230000000  0.4832830000000  0.5645000000000 1.0
C      1  0.5054510000000  0.5155920000000  0.5098430000000 1.0
C      1  0.4837670000000  0.4969680000000  0.5098500000000 1.0
C      1  0.5107380000000  0.4875020000000  0.5099100000000 1.0
C      1  0.4418270000000  0.4589050000000  0.5001810000000 1.0
C      1  0.5646750000000  0.4701690000000  0.5003420000000 1.0
C      1  0.4934960000000  0.5709260000000  0.5000240000000 1.0
C      1  0.4414820000000  0.5403270000000  0.5349310000000 1.0
C      1  0.4943190000000  0.4293140000000  0.5352420000000 1.0
C      1  0.5640410000000  0.5305790000000  0.5351350000000 1.0
C      1  0.4538250000000  0.5473900000000  0.4699380000000 1.0
C      1  0.4820590000000  0.4361830000000  0.4702130000000 1.0
C      1  0.5642500000000  0.5162390000000  0.4701690000000 1.0
C      1  0.4659980000000  0.5393570000000  0.4452270000000 1.0
C      1  0.4829410000000  0.4506320000000  0.4454380000000 1.0
C      1  0.5513070000000  0.5096680000000  0.4454170000000 1.0
C      1  0.5358790000000  0.4472810000000  0.5441980000000 1.0
C      1  0.5276970000000  0.5576270000000  0.5439550000000 1.0
C      1  0.4362250000000  0.4953680000000  0.5439470000000 1.0
C      1  0.4680880000000  0.4327100000000  0.5314160000000 1.0
C      1  0.5742160000000  0.5061480000000  0.5314210000000 1.0
C      1  0.4575540000000  0.5613390000000  0.5311310000000 1.0
C      1  0.5124180000000  0.5109030000000  0.4165110000000 1.0
C      1  0.4843860000000  0.5049320000000  0.4164810000000 1.0
C      1  0.5035730000000  0.4836410000000  0.4165550000000 1.0
C      1  0.4783760000000  0.5634110000000  0.4768690000000 1.0
C      1  0.4559060000000  0.4494660000000  0.4770740000000 1.0
C      1  0.5658210000000  0.4869790000000  0.4771610000000 1.0
C      1  0.4580950000000  0.4646390000000  0.4526620000000 1.0
C      1  0.5515970000000  0.4811790000000  0.4527680000000 1.0
C      1  0.4905220000000  0.5538840000000  0.4525240000000 1.0
C      1  0.4837640000000  0.5658750000000  0.5277820000000 1.0
C      1  0.4510560000000  0.4531250000000  0.5279680000000 1.0
C      1  0.5650540000000  0.4811750000000  0.5280810000000 1.0
C      1  0.5069200000000  0.4293300000000  0.4836920000000 1.0
C      1  0.5577500000000  0.5412550000000  0.4835340000000 1.0
C      1  0.4354050000000  0.5293120000000  0.4833750000000 1.0
END
