TITL C-64760-4600-5 -59.4541654405399 125000 -527.008028862932 0 0 80 (C2h) n - 1
REM
REM in /rds/project/t2_vol4/rds-t2-cs072/BORA/CARBON/from-Arr/AIRSS/Generating-Clusters/GAP-ML-2020/Higher-Symm/SD-CG/HFTN-CG
REM
REM
REM
REM
REM
REM ./C.cell (b20cbc046b6831c77cfcea5457e17084)
REM AIRSS Version 0.9.1 bugfix July 2018 build 013d7b7c2542+ Fri, 06 Jul 2018 19:26:36 +0100
REM compiler GCC version 9.3.0
REM options -cpp -mtune=generic -march=x86-64 -g -O0
REM seed 5137426 489935687 -256004693 -1475822126 -2085670965 1357382030 2135097246 1497384037 1393222173 1255441888 -1713415066 -388080007 -1866992763 1287737813 149302150 -2016916102 2007620241 632283431 -735814606 -1708360451 729458306 -1006645928 949255139 -1132324150 -579194268 1248844144 -192680116 1141054626 2002340991 -576295050 -1200288591 672056006 -912672032
REM
CELL 1.54180   50.00000   50.00000   50.00000   90.00000   90.00000   90.00000
LATT -1
SFAC C  
C      1  0.5222450000000  0.5293270000000  0.5565360000000 1.0
C      1  0.5574260000000  0.5291770000000  0.4763370000000 1.0
C      1  0.4777630000000  0.5293630000000  0.4434800000000 1.0
C      1  0.4425820000000  0.5291800000000  0.5236790000000 1.0
C      1  0.5222370000000  0.4706370000000  0.5565200000000 1.0
C      1  0.5574180000000  0.4708200000000  0.4763210000000 1.0
C      1  0.4777550000000  0.4706730000000  0.4434640000000 1.0
C      1  0.4425740000000  0.4708230000000  0.5236630000000 1.0
C      1  0.4444750000000  0.4695150000000  0.4755750000000 1.0
C      1  0.4735660000000  0.4690340000000  0.5578280000000 1.0
C      1  0.5555170000000  0.4694870000000  0.5244090000000 1.0
C      1  0.5264260000000  0.4690570000000  0.4421560000000 1.0
C      1  0.4444830000000  0.5305130000000  0.4755910000000 1.0
C      1  0.4735740000000  0.5309430000000  0.5578440000000 1.0
C      1  0.5555250000000  0.5304850000000  0.5244250000000 1.0
C      1  0.5264340000000  0.5309660000000  0.4421720000000 1.0
C      1  0.4948360000000  0.4385460000000  0.4797890000000 1.0
C      1  0.4796650000000  0.4492860000000  0.5051620000000 1.0
C      1  0.5051470000000  0.4385340000000  0.5201780000000 1.0
C      1  0.5203210000000  0.4492830000000  0.4948110000000 1.0
C      1  0.4948530000000  0.5614660000000  0.4798220000000 1.0
C      1  0.4796790000000  0.5507170000000  0.5051890000000 1.0
C      1  0.5051640000000  0.5614540000000  0.5202110000000 1.0
C      1  0.5203350000000  0.5507140000000  0.4948380000000 1.0
C      1  0.4507020000000  0.5154040000000  0.5472880000000 1.0
C      1  0.5455020000000  0.5151390000000  0.5470360000000 1.0
C      1  0.5493020000000  0.5154160000000  0.4527200000000 1.0
C      1  0.4545020000000  0.5151760000000  0.4529720000000 1.0
C      1  0.4506980000000  0.4845850000000  0.5472800000000 1.0
C      1  0.5454980000000  0.4848240000000  0.5470280000000 1.0
C      1  0.5492980000000  0.4845960000000  0.4527120000000 1.0
C      1  0.4544980000000  0.4848610000000  0.4529640000000 1.0
C      1  0.5185030000000  0.4156360000000  0.4534240000000 1.0
C      1  0.4540890000000  0.4161410000000  0.4841600000000 1.0
C      1  0.4814740000000  0.4156160000000  0.5465310000000 1.0
C      1  0.5458880000000  0.4161210000000  0.5157960000000 1.0
C      1  0.5185260000000  0.5843840000000  0.4534690000000 1.0
C      1  0.4541120000000  0.5838790000000  0.4842040000000 1.0
C      1  0.4814970000000  0.5843640000000  0.5465760000000 1.0
C      1  0.5459110000000  0.5838590000000  0.5158400000000 1.0
C      1  0.5558830000000  0.5578000000000  0.5144980000000 1.0
C      1  0.5166540000000  0.5583150000000  0.4431590000000 1.0
C      1  0.4441320000000  0.5578220000000  0.4855320000000 1.0
C      1  0.4833610000000  0.5582900000000  0.5568720000000 1.0
C      1  0.5558680000000  0.4421780000000  0.5144680000000 1.0
C      1  0.5166390000000  0.4417100000000  0.4431280000000 1.0
C      1  0.4441170000000  0.4422000000000  0.4855020000000 1.0
C      1  0.4833460000000  0.4416850000000  0.5568410000000 1.0
C      1  0.5208560000000  0.4065600000000  0.5073920000000 1.0
C      1  0.5064160000000  0.4098660000000  0.4791630000000 1.0
C      1  0.4791190000000  0.4065700000000  0.4925590000000 1.0
C      1  0.4935600000000  0.4098570000000  0.5207900000000 1.0
C      1  0.5208810000000  0.5934300000000  0.5074410000000 1.0
C      1  0.5064400000000  0.5901430000000  0.4792100000000 1.0
C      1  0.4791440000000  0.5934390000000  0.4926080000000 1.0
C      1  0.4935840000000  0.5901340000000  0.5208370000000 1.0
C      1  0.5111660000000  0.5540480000000  0.5482690000000 1.0
C      1  0.5488710000000  0.5548870000000  0.4867540000000 1.0
C      1  0.4888480000000  0.5540760000000  0.4517590000000 1.0
C      1  0.4511440000000  0.5548930000000  0.5132750000000 1.0
C      1  0.5111520000000  0.4459240000000  0.5482410000000 1.0
C      1  0.5488560000000  0.4451070000000  0.4867250000000 1.0
C      1  0.4888340000000  0.4459520000000  0.4517310000000 1.0
C      1  0.4511290000000  0.4451130000000  0.5132460000000 1.0
C      1  0.5507600000000  0.5145090000000  0.5004430000000 1.0
C      1  0.5023660000000  0.5153750000000  0.4473500000000 1.0
C      1  0.4492430000000  0.5145230000000  0.4995650000000 1.0
C      1  0.4976390000000  0.5153480000000  0.5526590000000 1.0
C      1  0.5507570000000  0.4854770000000  0.5004350000000 1.0
C      1  0.5023610000000  0.4846520000000  0.4473410000000 1.0
C      1  0.4492400000000  0.4854910000000  0.4995570000000 1.0
C      1  0.4976340000000  0.4846250000000  0.5526500000000 1.0
C      1  0.4794820000000  0.4766410000000  0.5003230000000 1.0
C      1  0.4997890000000  0.4857740000000  0.5203840000000 1.0
C      1  0.5205120000000  0.4766360000000  0.4996650000000 1.0
C      1  0.5002070000000  0.4857840000000  0.4796080000000 1.0
C      1  0.4794880000000  0.5233640000000  0.5003350000000 1.0
C      1  0.4997930000000  0.5142160000000  0.5203920000000 1.0
C      1  0.5205180000000  0.5233590000000  0.4996770000000 1.0
C      1  0.5002110000000  0.5142260000000  0.4796160000000 1.0
END
