TITL C-64761-4591-13 0.620975293530856 125000 -506.00608173339 0 0 74 (C3) n - 1
REM
REM in /rds/project/t2_vol4/rds-t2-cs072/BORA/CARBON/from-Arr/AIRSS/Generating-Clusters/GAP-ML-2020/Higher-Symm/SD-CG/HFTN-CG
REM
REM
REM
REM
REM
REM ./C.cell (b20cbc046b6831c77cfcea5457e17084)
REM AIRSS Version 0.9.1 bugfix July 2018 build 013d7b7c2542+ Fri, 06 Jul 2018 19:26:36 +0100
REM compiler GCC version 9.3.0
REM options -cpp -mtune=generic -march=x86-64 -g -O0
REM seed -952136948 -590906846 -840808003 -963317561 407465976 1577633764 -850645597 -1361116388 -992964446 -1019702134 1973214422 107959543 1308530404 1043626270 -1895217112 2115913738 -811541950 -1559302847 -652245851 756256658 34800491 134725722 671523924 -1644213607 567246546 -1004922860 -588243700 22356625 1728652427 -1080582705 1208045610 -600068892 1820562493
REM
CELL 1.54180   50.00000   50.00000   50.00000   90.00000   90.00000   90.00000
LATT -1
SFAC C  
C      1  0.4753430000000  0.5645630000000  0.5302740000000 1.0
C      1  0.4595670000000  0.4453470000000  0.5298300000000 1.0
C      1  0.5706420000000  0.4913130000000  0.5265140000000 1.0
C      1  0.5641210000000  0.5234620000000  0.4788010000000 1.0
C      1  0.4487160000000  0.5448020000000  0.4828070000000 1.0
C      1  0.4879200000000  0.4341320000000  0.4806060000000 1.0
C      1  0.5116790000000  0.4301270000000  0.4646380000000 1.0
C      1  0.5550660000000  0.5466710000000  0.4641440000000 1.0
C      1  0.4325040000000  0.5259660000000  0.4680460000000 1.0
C      1  0.5172760000000  0.4933240000000  0.5278440000000 1.0
C      1  0.5002530000000  0.5173350000000  0.5286050000000 1.0
C      1  0.4879770000000  0.4905740000000  0.5287950000000 1.0
C      1  0.5271970000000  0.4887790000000  0.5570270000000 1.0
C      1  0.5004920000000  0.5269960000000  0.5582240000000 1.0
C      1  0.4807580000000  0.4847390000000  0.5585370000000 1.0
C      1  0.4462970000000  0.5150000000000  0.4451110000000 1.0
C      1  0.5133210000000  0.4484790000000  0.4423440000000 1.0
C      1  0.5374030000000  0.5398300000000  0.4422870000000 1.0
C      1  0.5008740000000  0.5813790000000  0.4934320000000 1.0
C      1  0.4307080000000  0.4605350000000  0.4947810000000 1.0
C      1  0.5703750000000  0.4601880000000  0.4901400000000 1.0
C      1  0.4454990000000  0.4853720000000  0.4467740000000 1.0
C      1  0.5394450000000  0.4625320000000  0.4434690000000 1.0
C      1  0.5122640000000  0.5553590000000  0.4451250000000 1.0
C      1  0.5346480000000  0.4321660000000  0.4807600000000 1.0
C      1  0.5425420000000  0.5648640000000  0.4815760000000 1.0
C      1  0.4237370000000  0.5053230000000  0.4850380000000 1.0
C      1  0.4889580000000  0.4589560000000  0.4325050000000 1.0
C      1  0.5400520000000  0.5139190000000  0.4312540000000 1.0
C      1  0.4669430000000  0.5306960000000  0.4338190000000 1.0
C      1  0.5608630000000  0.4474400000000  0.5135940000000 1.0
C      1  0.5176550000000  0.5785640000000  0.5160940000000 1.0
C      1  0.4257510000000  0.4755330000000  0.5183100000000 1.0
C      1  0.5142810000000  0.5241830000000  0.4834900000000 1.0
C      1  0.4731290000000  0.5011330000000  0.4846700000000 1.0
C      1  0.5136470000000  0.4770060000000  0.4831280000000 1.0
C      1  0.4430980000000  0.4670320000000  0.5389400000000 1.0
C      1  0.5604600000000  0.4658530000000  0.5350330000000 1.0
C      1  0.5028280000000  0.5681340000000  0.5377780000000 1.0
C      1  0.5860640000000  0.5081750000000  0.4836230000000 1.0
C      1  0.4512240000000  0.5712300000000  0.4886130000000 1.0
C      1  0.4640340000000  0.4228520000000  0.4869820000000 1.0
C      1  0.4895420000000  0.4413730000000  0.5401960000000 1.0
C      1  0.5595880000000  0.5188070000000  0.5384980000000 1.0
C      1  0.4575570000000  0.5407650000000  0.5420650000000 1.0
C      1  0.4961240000000  0.5331480000000  0.5046870000000 1.0
C      1  0.4753200000000  0.4800760000000  0.5049460000000 1.0
C      1  0.5316550000000  0.4885980000000  0.5031450000000 1.0
C      1  0.4299720000000  0.4799030000000  0.4726060000000 1.0
C      1  0.5530230000000  0.4507760000000  0.4682830000000 1.0
C      1  0.5167380000000  0.5719670000000  0.4704720000000 1.0
C      1  0.5407100000000  0.4884110000000  0.4318100000000 1.0
C      1  0.4887260000000  0.5439930000000  0.4339880000000 1.0
C      1  0.4665950000000  0.4711470000000  0.4341310000000 1.0
C      1  0.5498640000000  0.5056670000000  0.5598700000000 1.0
C      1  0.4746930000000  0.5380470000000  0.5626290000000 1.0
C      1  0.4842340000000  0.4567160000000  0.5616520000000 1.0
C      1  0.4732840000000  0.5773660000000  0.5032400000000 1.0
C      1  0.4483520000000  0.4382710000000  0.5029380000000 1.0
C      1  0.5812090000000  0.4862480000000  0.4989160000000 1.0
C      1  0.5354550000000  0.4619240000000  0.5482880000000 1.0
C      1  0.5192570000000  0.5479230000000  0.5495240000000 1.0
C      1  0.4529140000000  0.4908680000000  0.5512640000000 1.0
C      1  0.5360270000000  0.4334220000000  0.5105800000000 1.0
C      1  0.5420420000000  0.5642090000000  0.5114430000000 1.0
C      1  0.4258300000000  0.5039960000000  0.5148130000000 1.0
C      1  0.4694850000000  0.5275260000000  0.4940250000000 1.0
C      1  0.4930080000000  0.4602760000000  0.4926980000000 1.0
C      1  0.5394620000000  0.5143000000000  0.4915940000000 1.0
C      1  0.5440530000000  0.5439650000000  0.5332780000000 1.0
C      1  0.4432900000000  0.5149630000000  0.5363890000000 1.0
C      1  0.5187510000000  0.4421620000000  0.5332910000000 1.0
C      1  0.4999730000000  0.5008670000000  0.4723200000000 1.0
C      1  0.5031850000000  0.5000810000000  0.5690410000000 1.0
END
