TITL C-64767-4646-1 0.129861897062643 125000 -940.955972390951 0 0 129 (C1) n - 1
REM
REM in /rds/project/t2_vol4/rds-t2-cs072/BORA/CARBON/from-Arr/AIRSS/Generating-Clusters/GAP-ML-2020/Higher-Symm/SD-CG/HFTN-CG
REM
REM
REM
REM
REM
REM ./C.cell (b20cbc046b6831c77cfcea5457e17084)
REM AIRSS Version 0.9.1 bugfix July 2018 build 013d7b7c2542+ Fri, 06 Jul 2018 19:26:36 +0100
REM compiler GCC version 9.3.0
REM options -cpp -mtune=generic -march=x86-64 -g -O0
REM seed -98300346 139654512 1424479558 646565078 586223215 149238401 -816429641 586786778 119717657 257926848 283256041 -1114334706 817875224 -1030773676 -671964628 -1302164900 -47601676 -460945400 -1421298459 175796826 1508219966 -632722958 -680256794 1676147181 577170450 138946347 -316339291 815200906 2118134318 -427991913 1699890100 -923232213 1170977081
REM
CELL 1.54180   50.00000   50.00000   50.00000   90.00000   90.00000   90.00000
LATT -1
SFAC C  
C      1  0.4173430000000  0.4418250000000  0.5070990000000 1.0
C      1  0.4184080000000  0.4628100000000  0.4539990000000 1.0
C      1  0.4190570000000  0.4907720000000  0.4423280000000 1.0
C      1  0.4176890000000  0.5419660000000  0.4561770000000 1.0
C      1  0.4175130000000  0.5587310000000  0.5055610000000 1.0
C      1  0.4170710000000  0.5478430000000  0.5337490000000 1.0
C      1  0.4136640000000  0.5010640000000  0.5620230000000 1.0
C      1  0.4172240000000  0.4536080000000  0.5348130000000 1.0
C      1  0.4965790000000  0.5575020000000  0.5749440000000 1.0
C      1  0.4962680000000  0.4870580000000  0.5925060000000 1.0
C      1  0.4970920000000  0.4243360000000  0.5564020000000 1.0
C      1  0.4970140000000  0.4059590000000  0.4861300000000 1.0
C      1  0.4984390000000  0.4424500000000  0.4238140000000 1.0
C      1  0.4981810000000  0.5129110000000  0.4077160000000 1.0
C      1  0.4971670000000  0.5757230000000  0.4425460000000 1.0
C      1  0.4975920000000  0.5948870000000  0.5124220000000 1.0
C      1  0.5918830000000  0.5343850000000  0.4829880000000 1.0
C      1  0.5846680000000  0.5308890000000  0.5112610000000 1.0
C      1  0.5914690000000  0.5144890000000  0.5347880000000 1.0
C      1  0.5913920000000  0.4866330000000  0.5351670000000 1.0
C      1  0.5848260000000  0.4697340000000  0.5122430000000 1.0
C      1  0.5917630000000  0.4656150000000  0.4841060000000 1.0
C      1  0.5921090000000  0.4852530000000  0.4630930000000 1.0
C      1  0.5920770000000  0.5141360000000  0.4626520000000 1.0
C      1  0.4973580000000  0.4229660000000  0.4444490000000 1.0
C      1  0.4986460000000  0.4844340000000  0.4076710000000 1.0
C      1  0.4975820000000  0.5550190000000  0.4229860000000 1.0
C      1  0.4972630000000  0.5942310000000  0.4837840000000 1.0
C      1  0.4972060000000  0.5776400000000  0.5545280000000 1.0
C      1  0.4963000000000  0.5157670000000  0.5921510000000 1.0
C      1  0.4964470000000  0.4448840000000  0.5764270000000 1.0
C      1  0.4974790000000  0.4060350000000  0.5147950000000 1.0
C      1  0.5240840000000  0.4786890000000  0.5915480000000 1.0
C      1  0.5245590000000  0.4198650000000  0.5493240000000 1.0
C      1  0.5247660000000  0.4071380000000  0.4776450000000 1.0
C      1  0.5261370000000  0.4494510000000  0.4188610000000 1.0
C      1  0.5256670000000  0.5215840000000  0.4079320000000 1.0
C      1  0.5250150000000  0.5804670000000  0.4493610000000 1.0
C      1  0.5252170000000  0.5925420000000  0.5205490000000 1.0
C      1  0.5244500000000  0.5501180000000  0.5796210000000 1.0
C      1  0.5653780000000  0.4489080000000  0.5507650000000 1.0
C      1  0.5664270000000  0.4275640000000  0.4992280000000 1.0
C      1  0.5682270000000  0.4475910000000  0.4475490000000 1.0
C      1  0.5678740000000  0.4992010000000  0.4257030000000 1.0
C      1  0.5679410000000  0.5512270000000  0.4461010000000 1.0
C      1  0.5664350000000  0.5724780000000  0.4974010000000 1.0
C      1  0.5654470000000  0.5526550000000  0.5491580000000 1.0
C      1  0.5659730000000  0.5011620000000  0.5736200000000 1.0
C      1  0.5253920000000  0.5482650000000  0.4178770000000 1.0
C      1  0.5249270000000  0.5924670000000  0.4752060000000 1.0
C      1  0.5246730000000  0.5818460000000  0.5472390000000 1.0
C      1  0.5241260000000  0.5240610000000  0.5910170000000 1.0
C      1  0.5243130000000  0.4523050000000  0.5809890000000 1.0
C      1  0.5250990000000  0.4084820000000  0.5228920000000 1.0
C      1  0.5251880000000  0.4183620000000  0.4515290000000 1.0
C      1  0.5261600000000  0.4760420000000  0.4082980000000 1.0
C      1  0.4424680000000  0.5495190000000  0.4513810000000 1.0
C      1  0.4426120000000  0.5691340000000  0.4987920000000 1.0
C      1  0.4407000000000  0.5518270000000  0.5476930000000 1.0
C      1  0.4375630000000  0.5011790000000  0.5730900000000 1.0
C      1  0.4407430000000  0.4498450000000  0.5490010000000 1.0
C      1  0.4423240000000  0.4314460000000  0.5002930000000 1.0
C      1  0.4429410000000  0.4499640000000  0.4524970000000 1.0
C      1  0.4442420000000  0.4983000000000  0.4342360000000 1.0
C      1  0.5113830000000  0.4618230000000  0.4955350000000 1.0
C      1  0.5010340000000  0.4727790000000  0.4713650000000 1.0
C      1  0.5010390000000  0.5267320000000  0.4704880000000 1.0
C      1  0.5116880000000  0.5382500000000  0.4942840000000 1.0
C      1  0.5000730000000  0.5307980000000  0.5176320000000 1.0
C      1  0.5144420000000  0.5147300000000  0.5341780000000 1.0
C      1  0.5141700000000  0.4866420000000  0.5347270000000 1.0
C      1  0.4997480000000  0.4702740000000  0.5185300000000 1.0
C      1  0.5421730000000  0.4379240000000  0.5632710000000 1.0
C      1  0.5430390000000  0.4105110000000  0.4999110000000 1.0
C      1  0.5438080000000  0.4358570000000  0.4371450000000 1.0
C      1  0.5438530000000  0.4989700000000  0.4098300000000 1.0
C      1  0.5433830000000  0.5624670000000  0.4354520000000 1.0
C      1  0.5431390000000  0.5896620000000  0.4976120000000 1.0
C      1  0.5422850000000  0.5640280000000  0.5614910000000 1.0
C      1  0.5418880000000  0.5013310000000  0.5885690000000 1.0
C      1  0.3985150000000  0.4742460000000  0.5264930000000 1.0
C      1  0.3976490000000  0.4621080000000  0.4992780000000 1.0
C      1  0.3978220000000  0.4721870000000  0.4728040000000 1.0
C      1  0.3990950000000  0.4996680000000  0.4614400000000 1.0
C      1  0.3995620000000  0.5271820000000  0.4705580000000 1.0
C      1  0.3988130000000  0.5376720000000  0.4978140000000 1.0
C      1  0.3985120000000  0.5269320000000  0.5255920000000 1.0
C      1  0.3986410000000  0.5007700000000  0.5388570000000 1.0
C      1  0.4541290000000  0.4744010000000  0.5651050000000 1.0
C      1  0.4585090000000  0.4377890000000  0.5262810000000 1.0
C      1  0.4535530000000  0.4303750000000  0.4724570000000 1.0
C      1  0.4609040000000  0.4729120000000  0.4404570000000 1.0
C      1  0.4590530000000  0.5251680000000  0.4397290000000 1.0
C      1  0.4541480000000  0.5692040000000  0.4710770000000 1.0
C      1  0.4585740000000  0.5634730000000  0.5248500000000 1.0
C      1  0.4542030000000  0.5277160000000  0.5644350000000 1.0
C      1  0.5770620000000  0.4754750000000  0.4409880000000 1.0
C      1  0.5769990000000  0.5232790000000  0.4403090000000 1.0
C      1  0.5771750000000  0.5571730000000  0.4736880000000 1.0
C      1  0.5719330000000  0.5557270000000  0.5207440000000 1.0
C      1  0.5711910000000  0.5238870000000  0.5542450000000 1.0
C      1  0.5711520000000  0.4777880000000  0.5549850000000 1.0
C      1  0.5710450000000  0.4454880000000  0.5220690000000 1.0
C      1  0.5772220000000  0.4424630000000  0.4753390000000 1.0
C      1  0.4709710000000  0.5318900000000  0.5175470000000 1.0
C      1  0.4612850000000  0.5143690000000  0.5388810000000 1.0
C      1  0.4611080000000  0.4871260000000  0.5391990000000 1.0
C      1  0.4706580000000  0.4691740000000  0.5182470000000 1.0
C      1  0.4588800000000  0.4786260000000  0.4928880000000 1.0
C      1  0.4752130000000  0.4839520000000  0.4680520000000 1.0
C      1  0.4749260000000  0.5159420000000  0.4674660000000 1.0
C      1  0.4589660000000  0.5221910000000  0.4923820000000 1.0
C      1  0.4804660000000  0.5321710000000  0.4194540000000 1.0
C      1  0.4790700000000  0.5825010000000  0.4645220000000 1.0
C      1  0.4799810000000  0.5830780000000  0.5321530000000 1.0
C      1  0.4784430000000  0.5354840000000  0.5806130000000 1.0
C      1  0.4783460000000  0.4670750000000  0.5815230000000 1.0
C      1  0.4798540000000  0.4183430000000  0.5341590000000 1.0
C      1  0.4789130000000  0.4172570000000  0.4664780000000 1.0
C      1  0.4814520000000  0.4650540000000  0.4196930000000 1.0
C      1  0.5384190000000  0.4705460000000  0.4894580000000 1.0
C      1  0.5267570000000  0.4857410000000  0.4674250000000 1.0
C      1  0.5265690000000  0.5131700000000  0.4668660000000 1.0
C      1  0.5385780000000  0.5288190000000  0.4882890000000 1.0
C      1  0.5554260000000  0.5253750000000  0.5094100000000 1.0
C      1  0.5453140000000  0.5153060000000  0.5333190000000 1.0
C      1  0.5451730000000  0.4854220000000  0.5341370000000 1.0
C      1  0.5550190000000  0.4731340000000  0.5111170000000 1.0
C      1  0.4435220000000  0.5004860000000  0.4977220000000 1.0
END
