TITL C-64773-4626-9 -0.182030556099508 125000 -649.748406256915 0 0 92 (C1) n - 1
REM
REM in /rds/project/t2_vol4/rds-t2-cs072/BORA/CARBON/from-Arr/AIRSS/Generating-Clusters/GAP-ML-2020/Higher-Symm/SD-CG/HFTN-CG
REM
REM
REM
REM
REM
REM ./C.cell (b20cbc046b6831c77cfcea5457e17084)
REM AIRSS Version 0.9.1 bugfix July 2018 build 013d7b7c2542+ Fri, 06 Jul 2018 19:26:36 +0100
REM compiler GCC version 9.3.0
REM options -cpp -mtune=generic -march=x86-64 -g -O0
REM seed 484048314 435110656 -536822603 244745270 1457122358 1816814508 1205453798 1363386159 421841923 1870444208 -2080108824 -2123504322 1013566698 -1138006982 2001551480 1877443924 614507494 -369417409 -701306792 -1090693301 -1399947362 -1510547080 34128255 -482202047 949135552 931260669 -469193378 1782654669 -1241904873 1952184644 -1275299762 1569492692 114291227
REM
CELL 1.54180   50.00000   50.00000   50.00000   90.00000   90.00000   90.00000
LATT -1
SFAC C  
C      1  0.4747620000000  0.4147640000000  0.5217330000000 1.0
C      1  0.4887210000000  0.4568780000000  0.5690910000000 1.0
C      1  0.4856320000000  0.5049750000000  0.5850800000000 1.0
C      1  0.4891380000000  0.5627940000000  0.5534150000000 1.0
C      1  0.4868020000000  0.5876940000000  0.5092580000000 1.0
C      1  0.4923530000000  0.5658390000000  0.4477160000000 1.0
C      1  0.4848030000000  0.5262060000000  0.4175020000000 1.0
C      1  0.4845610000000  0.4618610000000  0.4230670000000 1.0
C      1  0.4840400000000  0.4216920000000  0.4724510000000 1.0
C      1  0.5731280000000  0.5256250000000  0.5305300000000 1.0
C      1  0.5696250000000  0.5452080000000  0.5067350000000 1.0
C      1  0.5578630000000  0.5406820000000  0.4782650000000 1.0
C      1  0.5678560000000  0.5203070000000  0.4587090000000 1.0
C      1  0.5719320000000  0.4907770000000  0.4600250000000 1.0
C      1  0.5723870000000  0.4677480000000  0.4767280000000 1.0
C      1  0.5750940000000  0.4594990000000  0.5056800000000 1.0
C      1  0.5753760000000  0.4713720000000  0.5311790000000 1.0
C      1  0.5716530000000  0.4995050000000  0.5412750000000 1.0
C      1  0.5400200000000  0.5613220000000  0.4655450000000 1.0
C      1  0.5511610000000  0.5175940000000  0.4352400000000 1.0
C      1  0.5534200000000  0.4880180000000  0.4369380000000 1.0
C      1  0.5536780000000  0.4451270000000  0.4728430000000 1.0
C      1  0.5570110000000  0.4371410000000  0.5010270000000 1.0
C      1  0.5561820000000  0.4612970000000  0.5519850000000 1.0
C      1  0.5524390000000  0.4884930000000  0.5622960000000 1.0
C      1  0.5518570000000  0.5420650000000  0.5421920000000 1.0
C      1  0.5530910000000  0.5632940000000  0.5221090000000 1.0
C      1  0.4287060000000  0.4631970000000  0.4976730000000 1.0
C      1  0.4287770000000  0.4705990000000  0.5259530000000 1.0
C      1  0.4296610000000  0.4942030000000  0.5420550000000 1.0
C      1  0.4302210000000  0.5229690000000  0.5392060000000 1.0
C      1  0.4304860000000  0.5428620000000  0.5177080000000 1.0
C      1  0.4322110000000  0.5449880000000  0.4888240000000 1.0
C      1  0.4312090000000  0.5284360000000  0.4652490000000 1.0
C      1  0.4310750000000  0.5003470000000  0.4583350000000 1.0
C      1  0.4309760000000  0.4745860000000  0.4714830000000 1.0
C      1  0.4596790000000  0.4607390000000  0.5621110000000 1.0
C      1  0.4590030000000  0.5103290000000  0.5760280000000 1.0
C      1  0.4605850000000  0.5575990000000  0.5520460000000 1.0
C      1  0.4597150000000  0.5793790000000  0.5062150000000 1.0
C      1  0.4635110000000  0.5636020000000  0.4560170000000 1.0
C      1  0.4581970000000  0.5230840000000  0.4264600000000 1.0
C      1  0.4585410000000  0.4705730000000  0.4327890000000 1.0
C      1  0.4575910000000  0.4342440000000  0.4715750000000 1.0
C      1  0.4509920000000  0.4291720000000  0.5214990000000 1.0
C      1  0.5129410000000  0.4641230000000  0.5074450000000 1.0
C      1  0.4863470000000  0.4761210000000  0.5099080000000 1.0
C      1  0.4882020000000  0.4965340000000  0.5294560000000 1.0
C      1  0.4752570000000  0.5190090000000  0.5243330000000 1.0
C      1  0.4881580000000  0.5346920000000  0.5063690000000 1.0
C      1  0.4791630000000  0.5281990000000  0.4816060000000 1.0
C      1  0.4912020000000  0.5067340000000  0.4709750000000 1.0
C      1  0.4890500000000  0.4811020000000  0.4805110000000 1.0
C      1  0.5123030000000  0.4646730000000  0.4783720000000 1.0
C      1  0.4503150000000  0.5673190000000  0.4818660000000 1.0
C      1  0.4484250000000  0.5418940000000  0.4452310000000 1.0
C      1  0.4476100000000  0.4970870000000  0.4343290000000 1.0
C      1  0.4476200000000  0.4561670000000  0.4553500000000 1.0
C      1  0.4426020000000  0.4376230000000  0.4957260000000 1.0
C      1  0.4444120000000  0.4499460000000  0.5402360000000 1.0
C      1  0.4471510000000  0.4868310000000  0.5650070000000 1.0
C      1  0.4486950000000  0.5328300000000  0.5605150000000 1.0
C      1  0.4473930000000  0.5647440000000  0.5277820000000 1.0
C      1  0.5168570000000  0.5399090000000  0.5104790000000 1.0
C      1  0.5318540000000  0.5244870000000  0.4887190000000 1.0
C      1  0.5160060000000  0.5183040000000  0.4654890000000 1.0
C      1  0.5317950000000  0.4702070000000  0.4349560000000 1.0
C      1  0.5278390000000  0.4497610000000  0.4571870000000 1.0
C      1  0.5397760000000  0.4270920000000  0.5211800000000 1.0
C      1  0.5361500000000  0.4420380000000  0.5466660000000 1.0
C      1  0.5174950000000  0.5009670000000  0.5385650000000 1.0
C      1  0.5242280000000  0.5310930000000  0.5384520000000 1.0
C      1  0.5008010000000  0.5783300000000  0.5329260000000 1.0
C      1  0.5102360000000  0.5839790000000  0.4923560000000 1.0
C      1  0.5013560000000  0.5469560000000  0.4291030000000 1.0
C      1  0.5056470000000  0.5065350000000  0.4182800000000 1.0
C      1  0.4909790000000  0.4354650000000  0.4286320000000 1.0
C      1  0.4917190000000  0.4118250000000  0.4981460000000 1.0
C      1  0.4977660000000  0.4181380000000  0.5389430000000 1.0
C      1  0.5001840000000  0.4802960000000  0.5798940000000 1.0
C      1  0.5086750000000  0.5210340000000  0.5787700000000 1.0
C      1  0.5247500000000  0.5701810000000  0.5150930000000 1.0
C      1  0.5147880000000  0.5729490000000  0.4664880000000 1.0
C      1  0.5231050000000  0.5252910000000  0.4360680000000 1.0
C      1  0.5081540000000  0.4789990000000  0.4212600000000 1.0
C      1  0.5036700000000  0.4295540000000  0.4516850000000 1.0
C      1  0.5153480000000  0.4132360000000  0.5159220000000 1.0
C      1  0.5078190000000  0.4390500000000  0.5557000000000 1.0
C      1  0.5238380000000  0.4956480000000  0.5685440000000 1.0
C      1  0.5075160000000  0.5422180000000  0.5606810000000 1.0
C      1  0.5403250000000  0.4997710000000  0.4977950000000 1.0
C      1  0.5300570000000  0.4850250000000  0.5174830000000 1.0
END
