TITL C-64401-982-1 -31.4481195701385 125000 -823.057527592355 0 0 119 (C2) n - 1
REM
REM in /rds/project/t2_vol4/rds-t2-cs072/BORA/CARBON/from-Arr/AIRSS/Generating-Clusters/GAP-ML-2020/Higher-Symm/SD-CG/HFTN-CG
REM
REM
REM
REM
REM
REM ./C.cell (b20cbc046b6831c77cfcea5457e17084)
REM AIRSS Version 0.9.1 bugfix July 2018 build 013d7b7c2542+ Fri, 06 Jul 2018 19:26:36 +0100
REM compiler GCC version 9.3.0
REM options -cpp -mtune=generic -march=x86-64 -g -O0
REM seed 1792620818 -1583608199 -369122370 1212197610 1615563345 364960776 579524062 52205395 -642841410 872557194 725296545 -1721969844 401470518 -38837 -867331295 600318407 -1436986018 1960527703 825183664 727747252 96625611 -198576914 805057229 1572331081 439379357 1956005564 -356725720 -461988294 -1862801345 -1342415102 -2077126855 -1076344186 450874626
REM
CELL 1.54180   50.00000   50.00000   50.00000   90.00000   90.00000   90.00000
LATT -1
SFAC C  
C      1  0.4252100000000  0.5006340000000  0.5054550000000 1.0
C      1  0.4923360000000  0.4980140000000  0.4259330000000 1.0
C      1  0.5738110000000  0.5006470000000  0.4943620000000 1.0
C      1  0.5066850000000  0.4979880000000  0.5738830000000 1.0
C      1  0.4395900000000  0.5240920000000  0.4554120000000 1.0
C      1  0.5438480000000  0.4747340000000  0.4396240000000 1.0
C      1  0.5594280000000  0.5240840000000  0.5444130000000 1.0
C      1  0.4551770000000  0.4747060000000  0.5601840000000 1.0
C      1  0.5507350000000  0.5716890000000  0.5267280000000 1.0
C      1  0.4731190000000  0.4276610000000  0.5512020000000 1.0
C      1  0.4482760000000  0.5716910000000  0.4731140000000 1.0
C      1  0.5259130000000  0.4276830000000  0.4485890000000 1.0
C      1  0.4334080000000  0.5511260000000  0.4630150000000 1.0
C      1  0.5365290000000  0.4477160000000  0.4333830000000 1.0
C      1  0.5656060000000  0.5511220000000  0.5368200000000 1.0
C      1  0.4625000000000  0.4476870000000  0.5664150000000 1.0
C      1  0.4327080000000  0.4083070000000  0.4732440000000 1.0
C      1  0.5261840000000  0.5901840000000  0.4335310000000 1.0
C      1  0.5663270000000  0.4083070000000  0.5265400000000 1.0
C      1  0.4728250000000  0.5901560000000  0.5663180000000 1.0
C      1  0.5745570000000  0.4974380000000  0.4658950000000 1.0
C      1  0.5351220000000  0.5013870000000  0.5767310000000 1.0
C      1  0.4244650000000  0.4974160000000  0.5339200000000 1.0
C      1  0.4638990000000  0.5014100000000  0.4230860000000 1.0
C      1  0.4330080000000  0.5447180000000  0.5407300000000 1.0
C      1  0.4582310000000  0.4554910000000  0.4331630000000 1.0
C      1  0.5660070000000  0.5447420000000  0.4591020000000 1.0
C      1  0.5407970000000  0.4554730000000  0.5666380000000 1.0
C      1  0.5152420000000  0.5153740000000  0.4231210000000 1.0
C      1  0.5765280000000  0.4830670000000  0.5171590000000 1.0
C      1  0.4837770000000  0.5153450000000  0.5767010000000 1.0
C      1  0.4224960000000  0.4830620000000  0.4826520000000 1.0
C      1  0.5250750000000  0.4075840000000  0.4968410000000 1.0
C      1  0.5026910000000  0.5922460000000  0.5254900000000 1.0
C      1  0.4739600000000  0.4075790000000  0.5029430000000 1.0
C      1  0.4963170000000  0.5922550000000  0.4743600000000 1.0
C      1  0.5221540000000  0.5965080000000  0.4622520000000 1.0
C      1  0.5372870000000  0.4028330000000  0.5224470000000 1.0
C      1  0.4768540000000  0.5964920000000  0.5375990000000 1.0
C      1  0.4617480000000  0.4028350000000  0.4773350000000 1.0
C      1  0.4784090000000  0.4890930000000  0.4766340000000 1.0
C      1  0.5321350000000  0.5132340000000  0.4714160000000 1.0
C      1  0.5206140000000  0.4890870000000  0.5231780000000 1.0
C      1  0.4668850000000  0.5132190000000  0.5284050000000 1.0
C      1  0.4761100000000  0.4840490000000  0.5372500000000 1.0
C      1  0.4642480000000  0.5159660000000  0.4787420000000 1.0
C      1  0.5229140000000  0.4840660000000  0.4625610000000 1.0
C      1  0.5347710000000  0.5159630000000  0.5210800000000 1.0
C      1  0.4459550000000  0.5832570000000  0.5722450000000 1.0
C      1  0.4271460000000  0.4156680000000  0.4463430000000 1.0
C      1  0.5530550000000  0.5832910000000  0.4276010000000 1.0
C      1  0.5718870000000  0.4156590000000  0.5534440000000 1.0
C      1  0.4289210000000  0.4534200000000  0.5235760000000 1.0
C      1  0.4754720000000  0.5457310000000  0.4298970000000 1.0
C      1  0.5701070000000  0.4534390000000  0.4762240000000 1.0
C      1  0.5235430000000  0.5457100000000  0.5699360000000 1.0
C      1  0.5628010000000  0.5443920000000  0.4871090000000 1.0
C      1  0.5132430000000  0.4567590000000  0.5611780000000 1.0
C      1  0.4362140000000  0.5443780000000  0.5127230000000 1.0
C      1  0.4857850000000  0.4567790000000  0.4386230000000 1.0
C      1  0.4571910000000  0.5038030000000  0.5714450000000 1.0
C      1  0.4293270000000  0.4946670000000  0.4563570000000 1.0
C      1  0.5418300000000  0.5038350000000  0.4283730000000 1.0
C      1  0.5696950000000  0.4946620000000  0.5434570000000 1.0
C      1  0.5205840000000  0.5562240000000  0.4958640000000 1.0
C      1  0.5038940000000  0.4435980000000  0.5210020000000 1.0
C      1  0.4784300000000  0.5562200000000  0.5039730000000 1.0
C      1  0.4951350000000  0.4436050000000  0.4787950000000 1.0
C      1  0.4353590000000  0.4572930000000  0.4920650000000 1.0
C      1  0.5070380000000  0.5414900000000  0.4365640000000 1.0
C      1  0.5636690000000  0.4572990000000  0.5077370000000 1.0
C      1  0.4919780000000  0.5414660000000  0.5632680000000 1.0
C      1  0.5574360000000  0.5174800000000  0.4505460000000 1.0
C      1  0.5530360000000  0.4816440000000  0.5649980000000 1.0
C      1  0.4415830000000  0.5174540000000  0.5492770000000 1.0
C      1  0.4459880000000  0.4816590000000  0.4348120000000 1.0
C      1  0.5263980000000  0.4141410000000  0.5469060000000 1.0
C      1  0.4522390000000  0.5859590000000  0.5264980000000 1.0
C      1  0.4726350000000  0.4141540000000  0.4528810000000 1.0
C      1  0.5467700000000  0.5859750000000  0.4733490000000 1.0
C      1  0.4916330000000  0.5708580000000  0.5721350000000 1.0
C      1  0.4270030000000  0.4277450000000  0.4918570000000 1.0
C      1  0.5073780000000  0.5708850000000  0.4277070000000 1.0
C      1  0.5720290000000  0.4277520000000  0.5079340000000 1.0
C      1  0.4821660000000  0.4655580000000  0.5150470000000 1.0
C      1  0.4838100000000  0.5369190000000  0.4809470000000 1.0
C      1  0.5168600000000  0.4655650000000  0.4847580000000 1.0
C      1  0.5152060000000  0.5369150000000  0.5188820000000 1.0
C      1  0.4597070000000  0.4157200000000  0.5268890000000 1.0
C      1  0.4723550000000  0.5838580000000  0.4599710000000 1.0
C      1  0.5393260000000  0.4157360000000  0.4728980000000 1.0
C      1  0.5266550000000  0.5838480000000  0.5398760000000 1.0
C      1  0.4685170000000  0.4611410000000  0.4880860000000 1.0
C      1  0.5116920000000  0.5370960000000  0.4708060000000 1.0
C      1  0.5305100000000  0.4611410000000  0.5117170000000 1.0
C      1  0.4873240000000  0.5370840000000  0.5290240000000 1.0
C      1  0.5653210000000  0.4255310000000  0.4798060000000 1.0
C      1  0.5197350000000  0.5736160000000  0.5655770000000 1.0
C      1  0.4337110000000  0.4255140000000  0.5199840000000 1.0
C      1  0.4792760000000  0.5736370000000  0.4342660000000 1.0
C      1  0.4508430000000  0.5679730000000  0.5033880000000 1.0
C      1  0.4957400000000  0.4321900000000  0.4514700000000 1.0
C      1  0.5481680000000  0.5679810000000  0.4964530000000 1.0
C      1  0.5032910000000  0.4321740000000  0.5483220000000 1.0
C      1  0.5687150000000  0.4721850000000  0.4564550000000 1.0
C      1  0.5432840000000  0.5271560000000  0.5692490000000 1.0
C      1  0.4303100000000  0.4721600000000  0.5433520000000 1.0
C      1  0.4557340000000  0.5271750000000  0.4305770000000 1.0
C      1  0.5037870000000  0.4822820000000  0.5491470000000 1.0
C      1  0.4481570000000  0.5183340000000  0.5039630000000 1.0
C      1  0.4952370000000  0.4822990000000  0.4506630000000 1.0
C      1  0.5508620000000  0.5183420000000  0.4958600000000 1.0
C      1  0.4374300000000  0.5719970000000  0.5489920000000 1.0
C      1  0.4503460000000  0.4277820000000  0.4384210000000 1.0
C      1  0.5615820000000  0.5720230000000  0.4508500000000 1.0
C      1  0.5486860000000  0.4277670000000  0.5613700000000 1.0
C      1  0.4995160000000  0.4224010000000  0.4998950000000 1.0
C      1  0.4995050000000  0.5778710000000  0.4999220000000 1.0
C      1  0.4995120000000  0.4862700000000  0.4999060000000 1.0
END
