TITL C-64410-936-4 0.0319075404921202 125000 -282.748358568205 0 0 43 (C3) n - 1
REM
REM in /rds/project/t2_vol4/rds-t2-cs072/BORA/CARBON/from-Arr/AIRSS/Generating-Clusters/GAP-ML-2020/Higher-Symm/SD-CG/HFTN-CG
REM
REM
REM
REM
REM
REM ./C.cell (b20cbc046b6831c77cfcea5457e17084)
REM AIRSS Version 0.9.1 bugfix July 2018 build 013d7b7c2542+ Fri, 06 Jul 2018 19:26:36 +0100
REM compiler GCC version 9.3.0
REM options -cpp -mtune=generic -march=x86-64 -g -O0
REM seed 683993186 -1997938323 -636935965 -1239743530 490229851 2108774949 -2006062159 -124540619 2139115813 -1173952764 -2068775422 -296076344 397093109 68633133 1736121341 386275224 -892478083 -2123332350 -50962508 -594034725 937770165 1256978013 968825909 -1664887568 -1855490915 1544047214 -686544032 -1700474683 1418960661 649957707 175731784 1356590547 344700883
REM
CELL 1.54180   50.00000   50.00000   50.00000   90.00000   90.00000   90.00000
LATT -1
SFAC C  
C      1  0.5502060000000  0.5284410000000  0.4590940000000 1.0
C      1  0.4657080000000  0.5442000000000  0.5245260000000 1.0
C      1  0.5242370000000  0.4627770000000  0.5480150000000 1.0
C      1  0.4531700000000  0.4762800000000  0.4659360000000 1.0
C      1  0.4514070000000  0.5236550000000  0.5370480000000 1.0
C      1  0.5445130000000  0.4761140000000  0.5340720000000 1.0
C      1  0.5336760000000  0.4527330000000  0.5239380000000 1.0
C      1  0.5419620000000  0.5509230000000  0.4742030000000 1.0
C      1  0.4637490000000  0.4522150000000  0.4748020000000 1.0
C      1  0.4752450000000  0.5328070000000  0.5478950000000 1.0
C      1  0.4767960000000  0.4669540000000  0.4549040000000 1.0
C      1  0.5273970000000  0.5432300000000  0.4511730000000 1.0
C      1  0.5474460000000  0.5261030000000  0.5392390000000 1.0
C      1  0.4617780000000  0.5482890000000  0.4745060000000 1.0
C      1  0.5268950000000  0.4630080000000  0.4519570000000 1.0
C      1  0.4517220000000  0.4737290000000  0.5346450000000 1.0
C      1  0.4511180000000  0.5266650000000  0.4612920000000 1.0
C      1  0.5505450000000  0.4753280000000  0.4617720000000 1.0
C      1  0.5395550000000  0.4518260000000  0.4736480000000 1.0
C      1  0.5379760000000  0.5500510000000  0.5272280000000 1.0
C      1  0.4649220000000  0.4513800000000  0.5247650000000 1.0
C      1  0.4743600000000  0.5393440000000  0.4506500000000 1.0
C      1  0.4742700000000  0.4640430000000  0.5476480000000 1.0
C      1  0.5255070000000  0.5385520000000  0.5501720000000 1.0
C      1  0.4414800000000  0.5015170000000  0.4741010000000 1.0
C      1  0.5023120000000  0.4779400000000  0.4504410000000 1.0
C      1  0.5551020000000  0.5016370000000  0.4712590000000 1.0
C      1  0.5492880000000  0.5018650000000  0.5237890000000 1.0
C      1  0.4401620000000  0.4991090000000  0.5253430000000 1.0
C      1  0.5261150000000  0.4416420000000  0.4982470000000 1.0
C      1  0.4766300000000  0.5495410000000  0.4991530000000 1.0
C      1  0.5008870000000  0.5305780000000  0.4459200000000 1.0
C      1  0.4994100000000  0.4736360000000  0.5594900000000 1.0
C      1  0.5006430000000  0.5249370000000  0.5594370000000 1.0
C      1  0.4748270000000  0.4403840000000  0.4993630000000 1.0
C      1  0.5291480000000  0.5552310000000  0.5008060000000 1.0
C      1  0.5015920000000  0.4992490000000  0.5668950000000 1.0
C      1  0.5060740000000  0.5049650000000  0.4585780000000 1.0
C      1  0.5418260000000  0.5062640000000  0.4966650000000 1.0
C      1  0.5038420000000  0.5421200000000  0.4952520000000 1.0
C      1  0.4333940000000  0.5018940000000  0.4996130000000 1.0
C      1  0.5006070000000  0.4336240000000  0.4970570000000 1.0
C      1  0.5132760000000  0.5137290000000  0.4873640000000 1.0
END
