TITL C-64765-5763-1 -19.1195463522578 125000 -207.457594475834 0 0 31 (C1) n - 1
REM
REM in /rds/project/t2_vol4/rds-t2-cs072/BORA/CARBON/from-Arr/AIRSS/Generating-Clusters/GAP-ML-2020/Higher-Symm/SD-CG/HFTN-CG
REM
REM
REM
REM
REM
REM ./C.cell (b20cbc046b6831c77cfcea5457e17084)
REM AIRSS Version 0.9.1 bugfix July 2018 build 013d7b7c2542+ Fri, 06 Jul 2018 19:26:36 +0100
REM compiler GCC version 9.3.0
REM options -cpp -mtune=generic -march=x86-64 -g -O0
REM seed -693522070 -996967523 -1813476049 958528321 1315368656 -1203021231 -103591712 1259926127 766360039 -748880561 -853637621 -659850796 330482130 1119104556 1704389680 -2072123230 708816214 -2119143551 1555572655 1181224793 1051522075 -107811753 -160656015 -124734553 1771670379 618652985 783768399 -463254765 -1820498926 -121212059 989455603 -1933917551 1903466710
REM
CELL 1.54180   50.00000   50.00000   50.00000   90.00000   90.00000   90.00000
LATT -1
SFAC C  
C      1  0.5557590000000  0.5074280000000  0.5542660000000 1.0
C      1  0.4441220000000  0.4898770000000  0.5565910000000 1.0
C      1  0.5513960000000  0.5416970000000  0.4490580000000 1.0
C      1  0.4440130000000  0.4582410000000  0.4503620000000 1.0
C      1  0.5319060000000  0.4897580000000  0.5155670000000 1.0
C      1  0.4677980000000  0.5110620000000  0.5178840000000 1.0
C      1  0.5242660000000  0.5077040000000  0.4723460000000 1.0
C      1  0.4742410000000  0.4917630000000  0.4720150000000 1.0
C      1  0.5756810000000  0.5325790000000  0.5196620000000 1.0
C      1  0.4193730000000  0.4724830000000  0.5194630000000 1.0
C      1  0.5604740000000  0.5288560000000  0.4966890000000 1.0
C      1  0.4366330000000  0.4749230000000  0.4975980000000 1.0
C      1  0.5404640000000  0.4908680000000  0.5417460000000 1.0
C      1  0.4605730000000  0.5041120000000  0.5434710000000 1.0
C      1  0.5326150000000  0.5243840000000  0.4520240000000 1.0
C      1  0.4616920000000  0.4768030000000  0.4524890000000 1.0
C      1  0.4975640000000  0.4519140000000  0.5079870000000 1.0
C      1  0.5015210000000  0.5496940000000  0.5061030000000 1.0
C      1  0.4791730000000  0.4355510000000  0.5016060000000 1.0
C      1  0.5178210000000  0.5684140000000  0.4974640000000 1.0
C      1  0.4232920000000  0.4770400000000  0.5444800000000 1.0
C      1  0.5724610000000  0.5260990000000  0.5443120000000 1.0
C      1  0.4439960000000  0.4521130000000  0.4781930000000 1.0
C      1  0.5527110000000  0.5496020000000  0.4761690000000 1.0
C      1  0.5093790000000  0.4757330000000  0.5028910000000 1.0
C      1  0.4870250000000  0.5299860000000  0.5110860000000 1.0
C      1  0.4571630000000  0.4299700000000  0.4883550000000 1.0
C      1  0.5396650000000  0.5723780000000  0.4847400000000 1.0
C      1  0.4572800000000  0.4941190000000  0.4961120000000 1.0
C      1  0.5415340000000  0.5082470000000  0.4954540000000 1.0
C      1  0.5016140000000  0.4924420000000  0.4794540000000 1.0
END
