TITL C-64383-458-8 0.0423509877620781 125000 -432.170817337052 0 0 65 (C3) n - 1
REM
REM in /rds/project/t2_vol4/rds-t2-cs072/BORA/CARBON/from-Arr/AIRSS/Generating-Clusters/GAP-ML-2020/Higher-Symm/SD-CG/HFTN-CG
REM
REM
REM
REM
REM
REM ./C.cell (b20cbc046b6831c77cfcea5457e17084)
REM AIRSS Version 0.9.1 bugfix July 2018 build 013d7b7c2542+ Fri, 06 Jul 2018 19:26:36 +0100
REM compiler GCC version 9.3.0
REM options -cpp -mtune=generic -march=x86-64 -g -O0
REM seed 1115545269 2044674279 -541910563 1235591871 1180947920 -172863675 1622214472 -1418665750 -1149331065 709397749 208324149 -347647405 1953872083 -2095390978 1978229725 1363297625 -654570319 -2119198735 173560963 -365468093 -334590717 116969455 -165718639 462185794 1067455306 -238201836 1419459389 35973363 -2024348964 390611364 633981081 897034296 -1442040022
REM
CELL 1.54180   50.00000   50.00000   50.00000   90.00000   90.00000   90.00000
LATT -1
SFAC C  
C      1  0.4905400000000  0.5484040000000  0.4609520000000 1.0
C      1  0.4711280000000  0.5484030000000  0.5282520000000 1.0
C      1  0.5391180000000  0.5484020000000  0.5114130000000 1.0
C      1  0.4896540000000  0.4506120000000  0.4621180000000 1.0
C      1  0.4725810000000  0.4506110000000  0.5284320000000 1.0
C      1  0.5385470000000  0.4506110000000  0.5100600000000 1.0
C      1  0.5169910000000  0.4365720000000  0.5221750000000 1.0
C      1  0.5109230000000  0.4365730000000  0.4747290000000 1.0
C      1  0.4728680000000  0.4365730000000  0.5037070000000 1.0
C      1  0.5162740000000  0.5617160000000  0.5226190000000 1.0
C      1  0.5116670000000  0.5617170000000  0.4751320000000 1.0
C      1  0.4728460000000  0.5617160000000  0.5028650000000 1.0
C      1  0.5688310000000  0.4765990000000  0.4626380000000 1.0
C      1  0.4334430000000  0.4766010000000  0.4596040000000 1.0
C      1  0.4985100000000  0.4765980000000  0.5783700000000 1.0
C      1  0.5652270000000  0.5196410000000  0.4616260000000 1.0
C      1  0.4343680000000  0.5196430000000  0.4632330000000 1.0
C      1  0.5011900000000  0.5196400000000  0.5757560000000 1.0
C      1  0.5212080000000  0.5107770000000  0.4833320000000 1.0
C      1  0.4751760000000  0.5107770000000  0.4905010000000 1.0
C      1  0.5044000000000  0.5107760000000  0.5267810000000 1.0
C      1  0.5226900000000  0.4865210000000  0.4736590000000 1.0
C      1  0.4660580000000  0.4865210000000  0.4940530000000 1.0
C      1  0.5120350000000  0.4865200000000  0.5329010000000 1.0
C      1  0.4961960000000  0.5547150000000  0.5418790000000 1.0
C      1  0.5383850000000  0.5547150000000  0.4828900000000 1.0
C      1  0.4662040000000  0.5547160000000  0.4758480000000 1.0
C      1  0.4982670000000  0.4442430000000  0.5419800000000 1.0
C      1  0.5374370000000  0.4442430000000  0.4810420000000 1.0
C      1  0.4650780000000  0.4442440000000  0.4775890000000 1.0
C      1  0.5444260000000  0.5276730000000  0.4430640000000 1.0
C      1  0.4286940000000  0.5276730000000  0.4905280000000 1.0
C      1  0.5276650000000  0.5276710000000  0.5670230000000 1.0
C      1  0.5478400000000  0.4714660000000  0.4399720000000 1.0
C      1  0.4243090000000  0.4714670000000  0.4891160000000 1.0
C      1  0.5286340000000  0.4714640000000  0.5715250000000 1.0
C      1  0.5217960000000  0.4852640000000  0.4427690000000 1.0
C      1  0.4397530000000  0.4852640000000  0.5102720000000 1.0
C      1  0.5392340000000  0.4852620000000  0.5475710000000 1.0
C      1  0.5200130000000  0.5150950000000  0.4373890000000 1.0
C      1  0.4359850000000  0.5150950000000  0.5145070000000 1.0
C      1  0.5447860000000  0.5150930000000  0.5487180000000 1.0
C      1  0.5520780000000  0.5240490000000  0.5224840000000 1.0
C      1  0.4936480000000  0.5240510000000  0.4441910000000 1.0
C      1  0.4550590000000  0.5240500000000  0.5339400000000 1.0
C      1  0.5502440000000  0.4752200000000  0.5215090000000 1.0
C      1  0.4937200000000  0.4752220000000  0.4462650000000 1.0
C      1  0.4568190000000  0.4752210000000  0.5328380000000 1.0
C      1  0.5551820000000  0.4528190000000  0.4607760000000 1.0
C      1  0.4386550000000  0.4528200000000  0.4723550000000 1.0
C      1  0.5069460000000  0.4528170000000  0.5674800000000 1.0
C      1  0.5553390000000  0.5454870000000  0.4623340000000 1.0
C      1  0.4399250000000  0.5454880000000  0.4714430000000 1.0
C      1  0.5055210000000  0.5454860000000  0.5668390000000 1.0
C      1  0.5600700000000  0.4991760000000  0.5076670000000 1.0
C      1  0.4638950000000  0.4991760000000  0.5482690000000 1.0
C      1  0.4768190000000  0.4991780000000  0.4446780000000 1.0
C      1  0.4481570000000  0.4987480000000  0.4502330000000 1.0
C      1  0.4830370000000  0.4987450000000  0.5703140000000 1.0
C      1  0.5695900000000  0.4987460000000  0.4800660000000 1.0
C      1  0.5002620000000  0.5752010000000  0.5002060000000 1.0
C      1  0.5002600000000  0.4215350000000  0.5002030000000 1.0
C      1  0.5002600000000  0.3943350000000  0.5002030000000 1.0
C      1  0.5002620000000  0.6029800000000  0.5002060000000 1.0
C      1  0.5002620000000  0.5169710000000  0.5002050000000 1.0
END
