TITL C-65443-6103-2 588.622603781162 125000 -509.064674808338 0 0 75 (C5) n - 1
REM
REM in /rds/project/t2_vol4/rds-t2-cs072/BORA/CARBON/from-Arr/AIRSS/Generating-Clusters/GAP-ML-2020/Higher-Symm/SD-CG/HFTN-CG
REM
REM
REM
REM
REM
REM ./C.cell (b20cbc046b6831c77cfcea5457e17084)
REM AIRSS Version 0.9.1 bugfix July 2018 build 013d7b7c2542+ Fri, 06 Jul 2018 19:26:36 +0100
REM compiler GCC version 9.3.0
REM options -cpp -mtune=generic -march=x86-64 -g -O0
REM seed 1185276304 431065209 -279490628 -2010023047 2107691489 1809417653 2124044209 -90427051 -1072604429 2051696730 1146074721 682556314 694026931 -1997226134 28040971 2080045144 1011099674 1315809971 757413210 2062340962 285125447 177430983 1326204177 1481108027 1103987866 -1339566731 2142131569 78242710 -1024194504 -1548126885 601126422 -1719941330 -1092824669
REM
CELL 1.54180   50.00000   50.00000   50.00000   90.00000   90.00000   90.00000
LATT -1
SFAC C  
C      1  0.4834720000000  0.4194500000000  0.4817410000000 1.0
C      1  0.5117330000000  0.4192190000000  0.4792250000000 1.0
C      1  0.5228590000000  0.4191050000000  0.5053260000000 1.0
C      1  0.5014740000000  0.4192660000000  0.5239730000000 1.0
C      1  0.4771320000000  0.4194790000000  0.5093970000000 1.0
C      1  0.5092100000000  0.5796400000000  0.5230460000000 1.0
C      1  0.4814470000000  0.5798750000000  0.5153020000000 1.0
C      1  0.4802330000000  0.5799100000000  0.4865040000000 1.0
C      1  0.5072450000000  0.5796950000000  0.4764490000000 1.0
C      1  0.5251550000000  0.5795280000000  0.4990330000000 1.0
C      1  0.5769330000000  0.5423540000000  0.4652130000000 1.0
C      1  0.5571360000000  0.5424370000000  0.5621090000000 1.0
C      1  0.4588680000000  0.5432380000000  0.5732220000000 1.0
C      1  0.4179340000000  0.5436510000000  0.4831950000000 1.0
C      1  0.4909020000000  0.5431050000000  0.4164420000000 1.0
C      1  0.4806150000000  0.4434830000000  0.4409190000000 1.0
C      1  0.5498290000000  0.4428930000000  0.4637180000000 1.0
C      1  0.5495340000000  0.4428340000000  0.5365920000000 1.0
C      1  0.4801380000000  0.4433880000000  0.5588320000000 1.0
C      1  0.4375440000000  0.4437890000000  0.4997020000000 1.0
C      1  0.4534250000000  0.4311890000000  0.5195360000000 1.0
C      1  0.4665790000000  0.4311280000000  0.4622440000000 1.0
C      1  0.5251300000000  0.4306490000000  0.4570490000000 1.0
C      1  0.5481630000000  0.4304140000000  0.5111310000000 1.0
C      1  0.5038470000000  0.4307480000000  0.5497500000000 1.0
C      1  0.5451490000000  0.5088540000000  0.5097760000000 1.0
C      1  0.5047150000000  0.5091570000000  0.5458950000000 1.0
C      1  0.4578700000000  0.5095670000000  0.5185990000000 1.0
C      1  0.4693530000000  0.5095160000000  0.4656110000000 1.0
C      1  0.5232940000000  0.5090760000000  0.4601580000000 1.0
C      1  0.5713730000000  0.5351200000000  0.5416160000000 1.0
C      1  0.4827100000000  0.5358190000000  0.5804830000000 1.0
C      1  0.4183480000000  0.5364100000000  0.5081670000000 1.0
C      1  0.4672340000000  0.5360770000000  0.4246060000000 1.0
C      1  0.5618090000000  0.5352790000000  0.4452780000000 1.0
C      1  0.5077770000000  0.4433280000000  0.4385270000000 1.0
C      1  0.5604970000000  0.4428510000000  0.4888120000000 1.0
C      1  0.5289660000000  0.4430570000000  0.5544930000000 1.0
C      1  0.4567580000000  0.4436610000000  0.5448010000000 1.0
C      1  0.4436630000000  0.4438290000000  0.4731300000000 1.0
C      1  0.4768910000000  0.4734010000000  0.4948320000000 1.0
C      1  0.4975990000000  0.4732450000000  0.4766190000000 1.0
C      1  0.5213200000000  0.4730380000000  0.4906860000000 1.0
C      1  0.5152720000000  0.4730650000000  0.5175940000000 1.0
C      1  0.4878130000000  0.4732890000000  0.5201560000000 1.0
C      1  0.4773130000000  0.5322980000000  0.5119500000000 1.0
C      1  0.4818330000000  0.5322850000000  0.4818820000000 1.0
C      1  0.5118260000000  0.5320420000000  0.4768900000000 1.0
C      1  0.5258420000000  0.5319040000000  0.5038720000000 1.0
C      1  0.5045120000000  0.5320620000000  0.5255410000000 1.0
C      1  0.5293260000000  0.5453070000000  0.5619500000000 1.0
C      1  0.4504420000000  0.5459710000000  0.5467040000000 1.0
C      1  0.4405660000000  0.5461190000000  0.4669670000000 1.0
C      1  0.5133460000000  0.5455470000000  0.4329330000000 1.0
C      1  0.5682020000000  0.5450450000000  0.4916360000000 1.0
C      1  0.5137950000000  0.5570050000000  0.5409440000000 1.0
C      1  0.4656960000000  0.5574150000000  0.5253570000000 1.0
C      1  0.4656560000000  0.5574580000000  0.4747940000000 1.0
C      1  0.5137310000000  0.5570740000000  0.4591310000000 1.0
C      1  0.5434810000000  0.5567940000000  0.5000140000000 1.0
C      1  0.4767530000000  0.4927630000000  0.5392200000000 1.0
C      1  0.4554700000000  0.4929800000000  0.4900640000000 1.0
C      1  0.4956410000000  0.4926780000000  0.4546310000000 1.0
C      1  0.5417520000000  0.4922750000000  0.4818880000000 1.0
C      1  0.5300790000000  0.4923270000000  0.5341670000000 1.0
C      1  0.5068720000000  0.5263860000000  0.5707740000000 1.0
C      1  0.4349880000000  0.5270150000000  0.5282140000000 1.0
C      1  0.4532510000000  0.5269320000000  0.4466940000000 1.0
C      1  0.5364220000000  0.5262520000000  0.4388720000000 1.0
C      1  0.5695610000000  0.5259140000000  0.5155580000000 1.0
C      1  0.5577980000000  0.4679500000000  0.4751890000000 1.0
C      1  0.5412500000000  0.4680260000000  0.5475340000000 1.0
C      1  0.4673360000000  0.4686310000000  0.5541520000000 1.0
C      1  0.4382020000000  0.4689280000000  0.4858970000000 1.0
C      1  0.4941110000000  0.4685080000000  0.4370960000000 1.0
END
