TITL C-65450-4930-7 0.141399486856435 125000 -683.799758750543 0 0 102 (C3) n - 1
REM
REM in /rds/project/t2_vol4/rds-t2-cs072/BORA/CARBON/from-Arr/AIRSS/Generating-Clusters/GAP-ML-2020/Higher-Symm/SD-CG/HFTN-CG
REM
REM
REM
REM
REM
REM ./C.cell (b20cbc046b6831c77cfcea5457e17084)
REM AIRSS Version 0.9.1 bugfix July 2018 build 013d7b7c2542+ Fri, 06 Jul 2018 19:26:36 +0100
REM compiler GCC version 9.3.0
REM options -cpp -mtune=generic -march=x86-64 -g -O0
REM seed -329449492 -2023988560 1247124563 225058063 -39405489 1640511967 1884324367 -1534502508 -1245829528 -1687470518 -1819869356 -532367050 -1182959005 1688532448 1098673427 -9814575 -1951352493 507004855 -1667445727 200961271 39613339 -975011245 1096946224 436165634 -1143107974 1979498484 1982139581 1597184027 -586884923 1715716862 -1790292020 1109303893 -1050125158
REM
CELL 1.54180   50.00000   50.00000   50.00000   90.00000   90.00000   90.00000
LATT -1
SFAC C  
C      1  0.4440220000000  0.5120390000000  0.5119860000000 1.0
C      1  0.5546930000000  0.4969290000000  0.5177800000000 1.0
C      1  0.4438220000000  0.4840450000000  0.5034090000000 1.0
C      1  0.5547830000000  0.4857030000000  0.4894520000000 1.0
C      1  0.4441560000000  0.5054690000000  0.4834540000000 1.0
C      1  0.5550310000000  0.5158480000000  0.4938950000000 1.0
C      1  0.4205370000000  0.5193160000000  0.5253380000000 1.0
C      1  0.5783170000000  0.4860310000000  0.5293060000000 1.0
C      1  0.4202280000000  0.4690300000000  0.5026060000000 1.0
C      1  0.5786440000000  0.4809810000000  0.4746840000000 1.0
C      1  0.4208630000000  0.5138570000000  0.4704240000000 1.0
C      1  0.5789480000000  0.5308080000000  0.4976250000000 1.0
C      1  0.4502240000000  0.5252260000000  0.5685660000000 1.0
C      1  0.5500030000000  0.4496010000000  0.5562620000000 1.0
C      1  0.4498900000000  0.4284020000000  0.4866550000000 1.0
C      1  0.5511180000000  0.4760700000000  0.4291480000000 1.0
C      1  0.4512870000000  0.5477450000000  0.4437610000000 1.0
C      1  0.5514210000000  0.5729190000000  0.5156350000000 1.0
C      1  0.5532510000000  0.5755720000000  0.4871180000000 1.0
C      1  0.4450860000000  0.5518660000000  0.5585040000000 1.0
C      1  0.5517160000000  0.4729580000000  0.5728490000000 1.0
C      1  0.4442030000000  0.4238410000000  0.5146580000000 1.0
C      1  0.5524060000000  0.4500150000000  0.4411100000000 1.0
C      1  0.4457550000000  0.5258180000000  0.4257080000000 1.0
C      1  0.4904100000000  0.4818900000000  0.4577690000000 1.0
C      1  0.5124660000000  0.5217710000000  0.4686520000000 1.0
C      1  0.4906740000000  0.5457030000000  0.5052570000000 1.0
C      1  0.5119620000000  0.5161670000000  0.5347510000000 1.0
C      1  0.4897830000000  0.4726760000000  0.5367750000000 1.0
C      1  0.5117180000000  0.4617270000000  0.4968440000000 1.0
C      1  0.4605520000000  0.5015620000000  0.4220990000000 1.0
C      1  0.5415590000000  0.5785190000000  0.4603490000000 1.0
C      1  0.4603520000000  0.5670000000000  0.5395770000000 1.0
C      1  0.5399070000000  0.4947620000000  0.5885700000000 1.0
C      1  0.4591240000000  0.4325470000000  0.5375030000000 1.0
C      1  0.5402040000000  0.4255950000000  0.4519150000000 1.0
C      1  0.5037490000000  0.4744120000000  0.4180680000000 1.0
C      1  0.4971500000000  0.5550130000000  0.4399770000000 1.0
C      1  0.5040690000000  0.5837190000000  0.5188730000000 1.0
C      1  0.4959260000000  0.5245070000000  0.5775900000000 1.0
C      1  0.5024540000000  0.4417740000000  0.5631290000000 1.0
C      1  0.4956170000000  0.4205840000000  0.4823560000000 1.0
C      1  0.4281550000000  0.4413930000000  0.4982950000000 1.0
C      1  0.5705970000000  0.4726670000000  0.4484040000000 1.0
C      1  0.4293250000000  0.5313420000000  0.4487930000000 1.0
C      1  0.5710070000000  0.5577890000000  0.5034180000000 1.0
C      1  0.4286030000000  0.5292420000000  0.5514470000000 1.0
C      1  0.5698570000000  0.4675900000000  0.5496270000000 1.0
C      1  0.6022270000000  0.5156440000000  0.5004400000000 1.0
C      1  0.3971390000000  0.5100070000000  0.5132970000000 1.0
C      1  0.6018980000000  0.4909880000000  0.5151940000000 1.0
C      1  0.3969910000000  0.4842970000000  0.5001380000000 1.0
C      1  0.6020910000000  0.4905380000000  0.4864630000000 1.0
C      1  0.3973230000000  0.5085470000000  0.4844520000000 1.0
C      1  0.5256490000000  0.4512250000000  0.4567840000000 1.0
C      1  0.4776360000000  0.5054970000000  0.4446370000000 1.0
C      1  0.5265110000000  0.5616060000000  0.4798410000000 1.0
C      1  0.4774060000000  0.5453770000000  0.5320290000000 1.0
C      1  0.5252410000000  0.4864540000000  0.5639050000000 1.0
C      1  0.4765850000000  0.4497580000000  0.5228660000000 1.0
C      1  0.5264330000000  0.4915970000000  0.4277800000000 1.0
C      1  0.4747910000000  0.5584560000000  0.4585220000000 1.0
C      1  0.5264300000000  0.5665380000000  0.5293130000000 1.0
C      1  0.4735450000000  0.5069020000000  0.5708910000000 1.0
C      1  0.5251750000000  0.4411430000000  0.5434420000000 1.0
C      1  0.4735740000000  0.4353630000000  0.4700520000000 1.0
C      1  0.5383890000000  0.5440510000000  0.4241350000000 1.0
C      1  0.4624320000000  0.5923790000000  0.4992730000000 1.0
C      1  0.5373370000000  0.5433800000000  0.5767720000000 1.0
C      1  0.4606100000000  0.4547500000000  0.5796660000000 1.0
C      1  0.5366450000000  0.4115310000000  0.4998630000000 1.0
C      1  0.4616940000000  0.4539360000000  0.4202720000000 1.0
C      1  0.4845730000000  0.4650810000000  0.4814340000000 1.0
C      1  0.5174230000000  0.4932050000000  0.4608370000000 1.0
C      1  0.4852250000000  0.5336560000000  0.4787640000000 1.0
C      1  0.5174660000000  0.5371760000000  0.5140130000000 1.0
C      1  0.4845140000000  0.5016850000000  0.5394880000000 1.0
C      1  0.5167580000000  0.4691420000000  0.5255030000000 1.0
C      1  0.5243920000000  0.5571370000000  0.5575050000000 1.0
C      1  0.4743630000000  0.4779560000000  0.5803720000000 1.0
C      1  0.5233870000000  0.4214420000000  0.5211700000000 1.0
C      1  0.4749870000000  0.4416160000000  0.4402640000000 1.0
C      1  0.5249850000000  0.5207490000000  0.4218230000000 1.0
C      1  0.4760120000000  0.5811190000000  0.4788530000000 1.0
C      1  0.4734460000000  0.5877040000000  0.5251480000000 1.0
C      1  0.5254530000000  0.5188270000000  0.5844720000000 1.0
C      1  0.4717720000000  0.4345900000000  0.5628830000000 1.0
C      1  0.5252670000000  0.4172290000000  0.4745370000000 1.0
C      1  0.4732150000000  0.4784600000000  0.4114100000000 1.0
C      1  0.5268420000000  0.5632270000000  0.4415220000000 1.0
C      1  0.4678670000000  0.4693220000000  0.5038300000000 1.0
C      1  0.5307380000000  0.4728360000000  0.4781140000000 1.0
C      1  0.4684890000000  0.5122730000000  0.4709360000000 1.0
C      1  0.5312190000000  0.5322900000000  0.4879830000000 1.0
C      1  0.4681860000000  0.5192870000000  0.5245810000000 1.0
C      1  0.5305470000000  0.4940190000000  0.5345370000000 1.0
C      1  0.5001680000000  0.5400980000000  0.5540490000000 1.0
C      1  0.5002610000000  0.4697570000000  0.5670590000000 1.0
C      1  0.4994970000000  0.4331450000000  0.5077020000000 1.0
C      1  0.5010120000000  0.4570380000000  0.4402930000000 1.0
C      1  0.5008380000000  0.5267530000000  0.4382530000000 1.0
C      1  0.5017260000000  0.5731770000000  0.4926680000000 1.0
END
