TITL C-65434-6104-3 0.745908453001999 125000 -347.813123666072 0 0 52 (C1) n - 1
REM
REM in /rds/project/t2_vol4/rds-t2-cs072/BORA/CARBON/from-Arr/AIRSS/Generating-Clusters/GAP-ML-2020/Higher-Symm/SD-CG/HFTN-CG
REM
REM
REM
REM
REM
REM ./C.cell (b20cbc046b6831c77cfcea5457e17084)
REM AIRSS Version 0.9.1 bugfix July 2018 build 013d7b7c2542+ Fri, 06 Jul 2018 19:26:36 +0100
REM compiler GCC version 9.3.0
REM options -cpp -mtune=generic -march=x86-64 -g -O0
REM seed -305754788 -1532690683 1256924830 2084773309 1472113810 -488742368 2053441175 762261553 1896729036 -707560315 1257809310 -993730471 134655786 1008422943 -1943132284 63336970 816624568 -1633156554 -1348464336 -628240010 -168382636 -981573025 278327249 -384236497 228103101 -818297888 1994436791 -159882334 1480451322 -1502826657 964402450 1722754401 1873634287
REM
CELL 1.54180   50.00000   50.00000   50.00000   90.00000   90.00000   90.00000
LATT -1
SFAC C  
C      1  0.4426260000000  0.5053300000000  0.5349120000000 1.0
C      1  0.5593710000000  0.5012090000000  0.5334400000000 1.0
C      1  0.4744050000000  0.5177300000000  0.4269680000000 1.0
C      1  0.5162330000000  0.5199460000000  0.4308860000000 1.0
C      1  0.4668670000000  0.4590260000000  0.5475920000000 1.0
C      1  0.5391790000000  0.4513910000000  0.5400150000000 1.0
C      1  0.4394150000000  0.5356100000000  0.4945350000000 1.0
C      1  0.5492610000000  0.5347980000000  0.4971650000000 1.0
C      1  0.5488550000000  0.4939190000000  0.4572090000000 1.0
C      1  0.4460540000000  0.4875460000000  0.4591980000000 1.0
C      1  0.4526300000000  0.4804970000000  0.5365410000000 1.0
C      1  0.5547930000000  0.4748670000000  0.5326570000000 1.0
C      1  0.5452020000000  0.4506560000000  0.4859900000000 1.0
C      1  0.4591880000000  0.4495820000000  0.4930700000000 1.0
C      1  0.5527950000000  0.4715230000000  0.4683730000000 1.0
C      1  0.4464920000000  0.4665600000000  0.4734410000000 1.0
C      1  0.5496380000000  0.4529030000000  0.5143930000000 1.0
C      1  0.4589950000000  0.4560410000000  0.5211110000000 1.0
C      1  0.4582800000000  0.5134210000000  0.4524420000000 1.0
C      1  0.5363560000000  0.5183650000000  0.4514080000000 1.0
C      1  0.4809230000000  0.4330280000000  0.4843180000000 1.0
C      1  0.5224320000000  0.4337030000000  0.4812070000000 1.0
C      1  0.5148010000000  0.5581300000000  0.4731780000000 1.0
C      1  0.4645220000000  0.5596330000000  0.4630040000000 1.0
C      1  0.4387170000000  0.5244510000000  0.5175610000000 1.0
C      1  0.5571420000000  0.5225850000000  0.5182810000000 1.0
C      1  0.5359740000000  0.5387740000000  0.4732050000000 1.0
C      1  0.4477070000000  0.5386400000000  0.4682800000000 1.0
C      1  0.5132700000000  0.5853650000000  0.5211380000000 1.0
C      1  0.5009420000000  0.5030710000000  0.5356950000000 1.0
C      1  0.5033250000000  0.4267410000000  0.5026850000000 1.0
C      1  0.4841030000000  0.5188530000000  0.4681440000000 1.0
C      1  0.4925580000000  0.4584940000000  0.5621960000000 1.0
C      1  0.4920830000000  0.5090530000000  0.4918160000000 1.0
C      1  0.5003840000000  0.4830850000000  0.4943350000000 1.0
C      1  0.4989830000000  0.5321230000000  0.5718230000000 1.0
C      1  0.5045280000000  0.4789780000000  0.5206050000000 1.0
C      1  0.4967650000000  0.4985420000000  0.4231830000000 1.0
C      1  0.4947960000000  0.5394070000000  0.4313060000000 1.0
C      1  0.4980110000000  0.4712140000000  0.4236540000000 1.0
C      1  0.4992490000000  0.5566060000000  0.5654620000000 1.0
C      1  0.5127280000000  0.4419530000000  0.5487990000000 1.0
C      1  0.4991070000000  0.4493600000000  0.4372170000000 1.0
C      1  0.5034600000000  0.4249950000000  0.5288170000000 1.0
C      1  0.4910880000000  0.5491380000000  0.4580910000000 1.0
C      1  0.4929920000000  0.5504980000000  0.5164360000000 1.0
C      1  0.5000870000000  0.4371970000000  0.4619280000000 1.0
C      1  0.4994600000000  0.5053010000000  0.5646680000000 1.0
C      1  0.5002060000000  0.5673500000000  0.5399310000000 1.0
C      1  0.5077360000000  0.5688550000000  0.4985640000000 1.0
C      1  0.4980640000000  0.4802750000000  0.5773690000000 1.0
C      1  0.4961550000000  0.5233340000000  0.5157470000000 1.0
END
