TITL C-65791-1292-2 0.171497562218442 125000 -616.855163360881 0 0 87 (C1) n - 1
REM
REM in /rds/project/t2_vol4/rds-t2-cs072/BORA/CARBON/from-Arr/AIRSS/Generating-Clusters/GAP-ML-2020/Higher-Symm/SD-CG/HFTN-CG
REM
REM
REM
REM
REM
REM ./C.cell (b20cbc046b6831c77cfcea5457e17084)
REM AIRSS Version 0.9.1 bugfix July 2018 build 013d7b7c2542+ Fri, 06 Jul 2018 19:26:36 +0100
REM compiler GCC version 9.3.0
REM options -cpp -mtune=generic -march=x86-64 -g -O0
REM seed -1678746514 -1845035578 1556057418 -308489760 763463369 -1742224598 -897979904 -35886970 1736871709 2099137255 1143577189 1326821334 -1632669167 -1220628086 352583684 -643722687 2138194738 -2032209255 -1563165577 -2070474271 954622253 -688004307 1181286240 1825831523 53681945 -2104765933 1201264315 859500587 -667546088 899023679 -1643594629 833740746 814840447
REM
CELL 1.54180   50.00000   50.00000   50.00000   90.00000   90.00000   90.00000
LATT -1
SFAC C  
C      1  0.4655950000000  0.4445790000000  0.4486110000000 1.0
C      1  0.4467020000000  0.4940390000000  0.4446420000000 1.0
C      1  0.4893040000000  0.5544830000000  0.4417900000000 1.0
C      1  0.5562590000000  0.5365250000000  0.4423460000000 1.0
C      1  0.5364950000000  0.4664970000000  0.4422160000000 1.0
C      1  0.5343020000000  0.5666700000000  0.5190820000000 1.0
C      1  0.5685710000000  0.4879850000000  0.5148140000000 1.0
C      1  0.5099600000000  0.4263980000000  0.5186560000000 1.0
C      1  0.4341180000000  0.4656450000000  0.5214500000000 1.0
C      1  0.4506730000000  0.5477260000000  0.5144210000000 1.0
C      1  0.5052230000000  0.4546450000000  0.5209240000000 1.0
C      1  0.4603350000000  0.4779600000000  0.5213230000000 1.0
C      1  0.4710810000000  0.5269690000000  0.5149010000000 1.0
C      1  0.5212210000000  0.5401420000000  0.5185830000000 1.0
C      1  0.5396420000000  0.4909570000000  0.5153660000000 1.0
C      1  0.5122110000000  0.5226540000000  0.5398890000000 1.0
C      1  0.5255060000000  0.4951720000000  0.5399610000000 1.0
C      1  0.5038400000000  0.4737230000000  0.5426860000000 1.0
C      1  0.4771020000000  0.4877880000000  0.5428490000000 1.0
C      1  0.4822080000000  0.5178110000000  0.5397640000000 1.0
C      1  0.5130030000000  0.5451000000000  0.4310010000000 1.0
C      1  0.5447240000000  0.5128370000000  0.4317290000000 1.0
C      1  0.5085440000000  0.4692830000000  0.4350970000000 1.0
C      1  0.4970430000000  0.4969880000000  0.4286880000000 1.0
C      1  0.4696330000000  0.5086670000000  0.4346810000000 1.0
C      1  0.4656500000000  0.5671890000000  0.4782430000000 1.0
C      1  0.5608320000000  0.5604080000000  0.4814970000000 1.0
C      1  0.5681980000000  0.4631670000000  0.4768150000000 1.0
C      1  0.4833520000000  0.4176440000000  0.4824150000000 1.0
C      1  0.4181670000000  0.4837940000000  0.4814770000000 1.0
C      1  0.5189050000000  0.5355310000000  0.5654830000000 1.0
C      1  0.5414420000000  0.4927620000000  0.5651390000000 1.0
C      1  0.5067830000000  0.4593260000000  0.5683140000000 1.0
C      1  0.4641630000000  0.4821300000000  0.5686910000000 1.0
C      1  0.4712030000000  0.5296620000000  0.5649010000000 1.0
C      1  0.5371140000000  0.4625990000000  0.5681820000000 1.0
C      1  0.4769090000000  0.4544490000000  0.5718210000000 1.0
C      1  0.4493570000000  0.5088470000000  0.5692210000000 1.0
C      1  0.4924950000000  0.5505970000000  0.5685480000000 1.0
C      1  0.5461250000000  0.5221700000000  0.5690970000000 1.0
C      1  0.5379240000000  0.5712120000000  0.4667020000000 1.0
C      1  0.5715120000000  0.4888920000000  0.4645170000000 1.0
C      1  0.5051900000000  0.4277820000000  0.4658180000000 1.0
C      1  0.4276060000000  0.4595440000000  0.4702530000000 1.0
C      1  0.4511260000000  0.5464580000000  0.4641930000000 1.0
C      1  0.4674310000000  0.5365300000000  0.4424720000000 1.0
C      1  0.5363890000000  0.5565340000000  0.4423070000000 1.0
C      1  0.5539300000000  0.4888960000000  0.4418530000000 1.0
C      1  0.4941930000000  0.4460970000000  0.4452140000000 1.0
C      1  0.4452930000000  0.4652530000000  0.4484470000000 1.0
C      1  0.5476560000000  0.4487220000000  0.4624970000000 1.0
C      1  0.4594110000000  0.4269950000000  0.4705610000000 1.0
C      1  0.4278790000000  0.5051060000000  0.4643230000000 1.0
C      1  0.4897960000000  0.5725370000000  0.4642990000000 1.0
C      1  0.5714850000000  0.5381060000000  0.4659920000000 1.0
C      1  0.5723360000000  0.5362720000000  0.5238090000000 1.0
C      1  0.5552740000000  0.4418390000000  0.5207340000000 1.0
C      1  0.4617890000000  0.4258980000000  0.5280620000000 1.0
C      1  0.4203510000000  0.5117140000000  0.5233000000000 1.0
C      1  0.4878740000000  0.5789660000000  0.5226340000000 1.0
C      1  0.4170730000000  0.4856530000000  0.5096950000000 1.0
C      1  0.4641170000000  0.5712320000000  0.5062550000000 1.0
C      1  0.5605880000000  0.5603300000000  0.5094200000000 1.0
C      1  0.5712120000000  0.4611600000000  0.5047090000000 1.0
C      1  0.4846420000000  0.4159720000000  0.5107070000000 1.0
C      1  0.5209210000000  0.4884910000000  0.4932010000000 1.0
C      1  0.5002630000000  0.4695250000000  0.4976350000000 1.0
C      1  0.4749830000000  0.4826500000000  0.4975350000000 1.0
C      1  0.4797440000000  0.5104620000000  0.4930010000000 1.0
C      1  0.5226210000000  0.5311600000000  0.4930390000000 1.0
C      1  0.4388110000000  0.4385070000000  0.5135000000000 1.0
C      1  0.4277110000000  0.5339410000000  0.5048720000000 1.0
C      1  0.5133880000000  0.5821410000000  0.5072790000000 1.0
C      1  0.5797920000000  0.5127490000000  0.5066000000000 1.0
C      1  0.5352040000000  0.4261980000000  0.5050890000000 1.0
C      1  0.5790530000000  0.5133020000000  0.4781020000000 1.0
C      1  0.5316140000000  0.4299470000000  0.4765430000000 1.0
C      1  0.4372270000000  0.4371630000000  0.4854330000000 1.0
C      1  0.4309300000000  0.5306920000000  0.4763360000000 1.0
C      1  0.5136750000000  0.5802850000000  0.4787450000000 1.0
C      1  0.5489650000000  0.4491290000000  0.5471590000000 1.0
C      1  0.4673430000000  0.4360710000000  0.5536030000000 1.0
C      1  0.4299390000000  0.5114280000000  0.5497650000000 1.0
C      1  0.4894530000000  0.5698570000000  0.5488550000000 1.0
C      1  0.5634200000000  0.5311230000000  0.5493830000000 1.0
C      1  0.5169330000000  0.5169610000000  0.4255110000000 1.0
C      1  0.5077260000000  0.5121320000000  0.4830010000000 1.0
END
