TITL C-65794-1282-7 0.025757467703586 125000 -266.848790216836 0 0 40 (C1) n - 1
REM
REM in /rds/project/t2_vol4/rds-t2-cs072/BORA/CARBON/from-Arr/AIRSS/Generating-Clusters/GAP-ML-2020/Higher-Symm/SD-CG/HFTN-CG
REM
REM
REM
REM
REM
REM ./C.cell (b20cbc046b6831c77cfcea5457e17084)
REM AIRSS Version 0.9.1 bugfix July 2018 build 013d7b7c2542+ Fri, 06 Jul 2018 19:26:36 +0100
REM compiler GCC version 9.3.0
REM options -cpp -mtune=generic -march=x86-64 -g -O0
REM seed 1512552241 -1096997284 2095846062 949987779 -1241674314 -487412376 -262008231 -876951577 884784887 1769569161 -1542946451 -833893909 369795013 1739058884 -488182261 -1376369494 1505400289 1660616481 1415982386 764936867 -1550444944 -1253068226 447324142 -1410892620 -1666659274 -484210406 -457882358 67731101 1620312441 634479931 1273116257 -1461134781 -803642957
REM
CELL 1.54180   50.00000   50.00000   50.00000   90.00000   90.00000   90.00000
LATT -1
SFAC C  
C      1  0.4627230000000  0.4951410000000  0.4462230000000 1.0
C      1  0.4470680000000  0.4473520000000  0.4564670000000 1.0
C      1  0.4582610000000  0.4638260000000  0.5266020000000 1.0
C      1  0.5266360000000  0.5545030000000  0.5352620000000 1.0
C      1  0.4794520000000  0.4728390000000  0.5424330000000 1.0
C      1  0.4647780000000  0.4656680000000  0.4479560000000 1.0
C      1  0.5160290000000  0.5633470000000  0.4821740000000 1.0
C      1  0.5486150000000  0.4932650000000  0.5289540000000 1.0
C      1  0.5428500000000  0.5206290000000  0.5015400000000 1.0
C      1  0.5111310000000  0.4518860000000  0.5135500000000 1.0
C      1  0.4665860000000  0.5347550000000  0.5105350000000 1.0
C      1  0.4850980000000  0.5524540000000  0.5229380000000 1.0
C      1  0.4571870000000  0.5125420000000  0.5268400000000 1.0
C      1  0.4868930000000  0.4817560000000  0.4475620000000 1.0
C      1  0.5145010000000  0.5238030000000  0.5046700000000 1.0
C      1  0.5051430000000  0.5137860000000  0.5344310000000 1.0
C      1  0.5567170000000  0.5209830000000  0.5257690000000 1.0
C      1  0.4848460000000  0.4797380000000  0.4907110000000 1.0
C      1  0.4549530000000  0.5078300000000  0.4700460000000 1.0
C      1  0.5022240000000  0.5422070000000  0.5452780000000 1.0
C      1  0.5505850000000  0.5432530000000  0.5400390000000 1.0
C      1  0.5337410000000  0.4612910000000  0.4987580000000 1.0
C      1  0.4610300000000  0.4450360000000  0.5053470000000 1.0
C      1  0.5013260000000  0.5197650000000  0.4783040000000 1.0
C      1  0.5224820000000  0.4907940000000  0.5400550000000 1.0
C      1  0.5549730000000  0.4714770000000  0.5141730000000 1.0
C      1  0.4792060000000  0.5010710000000  0.5401820000000 1.0
C      1  0.5029570000000  0.4898130000000  0.4710480000000 1.0
C      1  0.5295100000000  0.4765890000000  0.4753120000000 1.0
C      1  0.4875110000000  0.4520620000000  0.4986840000000 1.0
C      1  0.5537220000000  0.4871420000000  0.4666620000000 1.0
C      1  0.4531930000000  0.4851670000000  0.4884250000000 1.0
C      1  0.5432510000000  0.5314070000000  0.4560320000000 1.0
C      1  0.5517590000000  0.5127140000000  0.4746010000000 1.0
C      1  0.4466190000000  0.4883980000000  0.5167200000000 1.0
C      1  0.4724350000000  0.5263220000000  0.4832720000000 1.0
C      1  0.5107860000000  0.5548610000000  0.5081650000000 1.0
C      1  0.4465760000000  0.4561870000000  0.4821040000000 1.0
C      1  0.5197740000000  0.5418880000000  0.4646970000000 1.0
C      1  0.5068720000000  0.4664550000000  0.5374790000000 1.0
END
