TITL C-65798-1199-6 589.903768855983 125000 -760.96697370937 0 0 110 (Cs) n - 1
REM
REM in /rds/project/t2_vol4/rds-t2-cs072/BORA/CARBON/from-Arr/AIRSS/Generating-Clusters/GAP-ML-2020/Higher-Symm/SD-CG/HFTN-CG
REM
REM
REM
REM
REM
REM ./C.cell (b20cbc046b6831c77cfcea5457e17084)
REM AIRSS Version 0.9.1 bugfix July 2018 build 013d7b7c2542+ Fri, 06 Jul 2018 19:26:36 +0100
REM compiler GCC version 9.3.0
REM options -cpp -mtune=generic -march=x86-64 -g -O0
REM seed -1880923975 -2042096912 2002301668 1434173179 -1543608791 -1137758912 1671321682 1892980419 -1871847503 -1672346860 1432538217 1020238449 -105000552 1799984235 -359309181 -573102827 389055322 -362269471 814137628 -1746364345 263617147 1343321384 -1637960300 -1068321756 -960282062 -1332682339 1495388376 -1018100342 -1044346073 624866131 -335521877 -1828029003 -884832717
REM
CELL 1.54180   50.00000   50.00000   50.00000   90.00000   90.00000   90.00000
LATT -1
SFAC C  
C      1  0.4442810000000  0.5247330000000  0.5601910000000 1.0
C      1  0.5509990000000  0.5258330000000  0.4369620000000 1.0
C      1  0.5560730000000  0.5249130000000  0.5597860000000 1.0
C      1  0.4484630000000  0.5256690000000  0.4373320000000 1.0
C      1  0.4493610000000  0.5738320000000  0.4455980000000 1.0
C      1  0.5554260000000  0.5642150000000  0.5362340000000 1.0
C      1  0.5500060000000  0.5739930000000  0.4452340000000 1.0
C      1  0.4446320000000  0.5640360000000  0.5366350000000 1.0
C      1  0.4846600000000  0.5484370000000  0.4617060000000 1.0
C      1  0.5151180000000  0.5441520000000  0.5332910000000 1.0
C      1  0.5149070000000  0.5484850000000  0.4615960000000 1.0
C      1  0.4849820000000  0.5441030000000  0.5334000000000 1.0
C      1  0.4657870000000  0.4824870000000  0.4313050000000 1.0
C      1  0.5334870000000  0.4842070000000  0.5736930000000 1.0
C      1  0.5337720000000  0.4825970000000  0.4310590000000 1.0
C      1  0.4670980000000  0.4841000000000  0.5739330000000 1.0
C      1  0.4844840000000  0.4310000000000  0.4746010000000 1.0
C      1  0.5158150000000  0.4313400000000  0.5317640000000 1.0
C      1  0.5155550000000  0.4310500000000  0.4744890000000 1.0
C      1  0.4846360000000  0.4312900000000  0.5318760000000 1.0
C      1  0.4404760000000  0.4479370000000  0.4493660000000 1.0
C      1  0.5592650000000  0.4489290000000  0.5570800000000 1.0
C      1  0.5593240000000  0.4481290000000  0.4489360000000 1.0
C      1  0.4413150000000  0.4487390000000  0.5575070000000 1.0
C      1  0.5144070000000  0.5330480000000  0.5836980000000 1.0
C      1  0.4857940000000  0.5291670000000  0.4131760000000 1.0
C      1  0.4860930000000  0.5330030000000  0.5838000000000 1.0
C      1  0.5134840000000  0.5292120000000  0.4130760000000 1.0
C      1  0.5148820000000  0.5867950000000  0.5108360000000 1.0
C      1  0.4852070000000  0.5913030000000  0.4812590000000 1.0
C      1  0.4849180000000  0.5867460000000  0.5109440000000 1.0
C      1  0.5143630000000  0.5913500000000  0.4811540000000 1.0
C      1  0.5600410000000  0.5540010000000  0.5618810000000 1.0
C      1  0.4354840000000  0.5491670000000  0.4435600000000 1.0
C      1  0.4402350000000  0.5538080000000  0.5623140000000 1.0
C      1  0.5639480000000  0.5493740000000  0.4430960000000 1.0
C      1  0.5342750000000  0.5224610000000  0.5995190000000 1.0
C      1  0.4642220000000  0.5175230000000  0.3996230000000 1.0
C      1  0.4663740000000  0.5223520000000  0.5997650000000 1.0
C      1  0.5349950000000  0.5176370000000  0.3993670000000 1.0
C      1  0.4856090000000  0.4383760000000  0.4454060000000 1.0
C      1  0.5146010000000  0.4398200000000  0.5607520000000 1.0
C      1  0.5141940000000  0.4384220000000  0.4453030000000 1.0
C      1  0.4860330000000  0.4397740000000  0.5608560000000 1.0
C      1  0.5371310000000  0.4559940000000  0.5709910000000 1.0
C      1  0.4627910000000  0.4541050000000  0.4353080000000 1.0
C      1  0.4635260000000  0.4558750000000  0.5712570000000 1.0
C      1  0.5368880000000  0.4542250000000  0.4350400000000 1.0
C      1  0.4846830000000  0.5277980000000  0.5059390000000 1.0
C      1  0.5293290000000  0.5419090000000  0.4859050000000 1.0
C      1  0.5152700000000  0.5278470000000  0.5058280000000 1.0
C      1  0.4704350000000  0.5418140000000  0.4861180000000 1.0
C      1  0.5160970000000  0.4971280000000  0.5519320000000 1.0
C      1  0.4834680000000  0.4972720000000  0.4512680000000 1.0
C      1  0.4842890000000  0.4970760000000  0.5520470000000 1.0
C      1  0.5161870000000  0.4973250000000  0.4511490000000 1.0
C      1  0.4656390000000  0.4134390000000  0.4888710000000 1.0
C      1  0.5350150000000  0.4140240000000  0.5183140000000 1.0
C      1  0.5345580000000  0.4135510000000  0.4886220000000 1.0
C      1  0.4653960000000  0.4139120000000  0.5185650000000 1.0
C      1  0.4498050000000  0.5024670000000  0.4181170000000 1.0
C      1  0.5497780000000  0.5055090000000  0.5836050000000 1.0
C      1  0.5495940000000  0.5026270000000  0.4177560000000 1.0
C      1  0.4508110000000  0.5053490000000  0.5839630000000 1.0
C      1  0.5257670000000  0.4872980000000  0.4786520000000 1.0
C      1  0.4754090000000  0.4854510000000  0.5260180000000 1.0
C      1  0.4741200000000  0.4872150000000  0.4788390000000 1.0
C      1  0.5248260000000  0.4855310000000  0.5258400000000 1.0
C      1  0.4724860000000  0.5767080000000  0.4585710000000 1.0
C      1  0.5283530000000  0.5707240000000  0.5293900000000 1.0
C      1  0.5269660000000  0.5767960000000  0.4583740000000 1.0
C      1  0.4716330000000  0.5706330000000  0.5295950000000 1.0
C      1  0.4179850000000  0.4689110000000  0.5174930000000 1.0
C      1  0.5843080000000  0.4652650000000  0.4882380000000 1.0
C      1  0.5822400000000  0.4691760000000  0.5168980000000 1.0
C      1  0.4157220000000  0.4649930000000  0.4888480000000 1.0
C      1  0.4426490000000  0.5442330000000  0.4908460000000 1.0
C      1  0.5661310000000  0.5435180000000  0.5184220000000 1.0
C      1  0.5571410000000  0.5444170000000  0.4904320000000 1.0
C      1  0.4338640000000  0.5433050000000  0.5189000000000 1.0
C      1  0.5724640000000  0.5203590000000  0.5345830000000 1.0
C      1  0.4265900000000  0.5384040000000  0.4682530000000 1.0
C      1  0.4277230000000  0.5201260000000  0.5351060000000 1.0
C      1  0.5730550000000  0.5386400000000  0.4677230000000 1.0
C      1  0.4043230000000  0.5072600000000  0.4984460000000 1.0
C      1  0.5911440000000  0.5172890000000  0.4722670000000 1.0
C      1  0.5956400000000  0.5075690000000  0.4977540000000 1.0
C      1  0.4086030000000  0.5169940000000  0.4729270000000 1.0
C      1  0.4840550000000  0.4601950000000  0.4871130000000 1.0
C      1  0.5160160000000  0.4596300000000  0.5171550000000 1.0
C      1  0.5159800000000  0.4602470000000  0.4869980000000 1.0
C      1  0.4842380000000  0.4595790000000  0.5172700000000 1.0
C      1  0.4287520000000  0.4470460000000  0.5336020000000 1.0
C      1  0.5718110000000  0.4444280000000  0.4725990000000 1.0
C      1  0.5716600000000  0.4472760000000  0.5330850000000 1.0
C      1  0.4281720000000  0.4441960000000  0.4731190000000 1.0
C      1  0.5909380000000  0.4894110000000  0.4756870000000 1.0
C      1  0.4148370000000  0.4978290000000  0.5230190000000 1.0
C      1  0.4089240000000  0.4891170000000  0.4763450000000 1.0
C      1  0.5853340000000  0.4981040000000  0.5224020000000 1.0
C      1  0.5228090000000  0.5268740000000  0.4425430000000 1.0
C      1  0.4756560000000  0.5265610000000  0.5553530000000 1.0
C      1  0.4766900000000  0.5268000000000  0.4427100000000 1.0
C      1  0.5246590000000  0.5266400000000  0.5551760000000 1.0
C      1  0.4384370000000  0.4247800000000  0.5179400000000 1.0
C      1  0.5615920000000  0.4234360000000  0.4889310000000 1.0
C      1  0.5619340000000  0.4249790000000  0.5174940000000 1.0
C      1  0.4385770000000  0.4232380000000  0.4893760000000 1.0
C      1  0.5272620000000  0.5014630000000  0.5029560000000 1.0
C      1  0.4727550000000  0.5013750000000  0.5031530000000 1.0
END
