TITL C-65796-1203-3 -0.313040464873016 125000 -754.280622149853 0 0 107 (C1) n - 1
REM
REM in /rds/project/t2_vol4/rds-t2-cs072/BORA/CARBON/from-Arr/AIRSS/Generating-Clusters/GAP-ML-2020/Higher-Symm/SD-CG/HFTN-CG
REM
REM
REM
REM
REM
REM ./C.cell (b20cbc046b6831c77cfcea5457e17084)
REM AIRSS Version 0.9.1 bugfix July 2018 build 013d7b7c2542+ Fri, 06 Jul 2018 19:26:36 +0100
REM compiler GCC version 9.3.0
REM options -cpp -mtune=generic -march=x86-64 -g -O0
REM seed -1642486416 1074037761 1684066412 1917244218 366877644 2070775308 913555426 -8767120 702914896 1194449977 -2073807030 -1101271559 -75361844 794847887 -646772209 -768345851 -225587153 -933411480 -256222321 -1746951499 -1101542660 672157673 -1877661892 -483749545 -362910211 -635655174 -557734120 -1778063752 1672319416 1993216690 -1803213292 -676827984 477126551
REM
CELL 1.54180   50.00000   50.00000   50.00000   90.00000   90.00000   90.00000
LATT -1
SFAC C  
C      1  0.5773430000000  0.4745970000000  0.5146220000000 1.0
C      1  0.5159980000000  0.5720300000000  0.4817350000000 1.0
C      1  0.4724430000000  0.5186880000000  0.5859660000000 1.0
C      1  0.4218270000000  0.5266860000000  0.5158930000000 1.0
C      1  0.4269490000000  0.4775800000000  0.4868970000000 1.0
C      1  0.5753570000000  0.5244760000000  0.4868800000000 1.0
C      1  0.4857610000000  0.4194520000000  0.4727300000000 1.0
C      1  0.4861360000000  0.5797880000000  0.5297260000000 1.0
C      1  0.5136440000000  0.4219090000000  0.5189500000000 1.0
C      1  0.5257650000000  0.4966050000000  0.5917310000000 1.0
C      1  0.5257270000000  0.5105310000000  0.4171800000000 1.0
C      1  0.4745560000000  0.4763110000000  0.4136140000000 1.0
C      1  0.5783860000000  0.4749410000000  0.4855070000000 1.0
C      1  0.5153230000000  0.5812720000000  0.5289070000000 1.0
C      1  0.4740990000000  0.5037690000000  0.4083410000000 1.0
C      1  0.4242440000000  0.5265700000000  0.4865000000000 1.0
C      1  0.4240560000000  0.4766970000000  0.5154240000000 1.0
C      1  0.5745520000000  0.5241670000000  0.5153770000000 1.0
C      1  0.4845290000000  0.4272670000000  0.5204300000000 1.0
C      1  0.4874560000000  0.5796670000000  0.4822100000000 1.0
C      1  0.5151130000000  0.4205740000000  0.4713250000000 1.0
C      1  0.5289730000000  0.4818140000000  0.4146070000000 1.0
C      1  0.5258770000000  0.5241860000000  0.5873720000000 1.0
C      1  0.4744460000000  0.4904610000000  0.5852800000000 1.0
C      1  0.5655940000000  0.4516020000000  0.4746250000000 1.0
C      1  0.4766950000000  0.5719090000000  0.4579810000000 1.0
C      1  0.4525740000000  0.4792040000000  0.5684660000000 1.0
C      1  0.4364610000000  0.5520330000000  0.4805670000000 1.0
C      1  0.4358110000000  0.4527790000000  0.5253570000000 1.0
C      1  0.5624810000000  0.5481000000000  0.5246380000000 1.0
C      1  0.5248900000000  0.4334550000000  0.4479280000000 1.0
C      1  0.5225900000000  0.5666820000000  0.5520180000000 1.0
C      1  0.4765330000000  0.4342200000000  0.5475520000000 1.0
C      1  0.5499060000000  0.5302930000000  0.5706490000000 1.0
C      1  0.5509890000000  0.4755970000000  0.4315500000000 1.0
C      1  0.4516970000000  0.5129230000000  0.4257000000000 1.0
C      1  0.5653500000000  0.4490080000000  0.5204930000000 1.0
C      1  0.4761190000000  0.5670970000000  0.5531720000000 1.0
C      1  0.4507610000000  0.4708530000000  0.4315330000000 1.0
C      1  0.4351930000000  0.5496600000000  0.5266820000000 1.0
C      1  0.4395570000000  0.4543410000000  0.4776290000000 1.0
C      1  0.5629870000000  0.5483550000000  0.4777480000000 1.0
C      1  0.5252310000000  0.4295460000000  0.5427480000000 1.0
C      1  0.5243510000000  0.5665550000000  0.4536010000000 1.0
C      1  0.4782810000000  0.4344370000000  0.4499070000000 1.0
C      1  0.5505640000000  0.5228490000000  0.4314940000000 1.0
C      1  0.5492670000000  0.4877170000000  0.5762610000000 1.0
C      1  0.4496170000000  0.5254570000000  0.5700030000000 1.0
C      1  0.5275540000000  0.4304710000000  0.4952510000000 1.0
C      1  0.4281730000000  0.5018540000000  0.5305060000000 1.0
C      1  0.4735610000000  0.5708620000000  0.5058240000000 1.0
C      1  0.5699310000000  0.5002280000000  0.5312740000000 1.0
C      1  0.5699390000000  0.4995010000000  0.4716450000000 1.0
C      1  0.4327890000000  0.5010800000000  0.4707680000000 1.0
C      1  0.4974280000000  0.5204750000000  0.4095410000000 1.0
C      1  0.4692290000000  0.4194260000000  0.4965890000000 1.0
C      1  0.5315720000000  0.5791700000000  0.5047720000000 1.0
C      1  0.5016990000000  0.4679390000000  0.4227700000000 1.0
C      1  0.4990410000000  0.5323430000000  0.5781720000000 1.0
C      1  0.5019330000000  0.4815330000000  0.5856080000000 1.0
C      1  0.4988740000000  0.5622140000000  0.4419540000000 1.0
C      1  0.5566290000000  0.4363490000000  0.4963900000000 1.0
C      1  0.5018220000000  0.4410590000000  0.4340580000000 1.0
C      1  0.5026310000000  0.4397520000000  0.5569420000000 1.0
C      1  0.4447650000000  0.5645440000000  0.5048170000000 1.0
C      1  0.4990210000000  0.5592880000000  0.5672280000000 1.0
C      1  0.4364300000000  0.5017370000000  0.5601690000000 1.0
C      1  0.5651750000000  0.5076490000000  0.5637390000000 1.0
C      1  0.5640480000000  0.4995350000000  0.4415750000000 1.0
C      1  0.4357560000000  0.4935600000000  0.4391250000000 1.0
C      1  0.4494780000000  0.4416560000000  0.5012800000000 1.0
C      1  0.5558860000000  0.5635400000000  0.5018680000000 1.0
C      1  0.4907780000000  0.5358430000000  0.4340230000000 1.0
C      1  0.5098080000000  0.4673230000000  0.5612260000000 1.0
C      1  0.4581110000000  0.5018330000000  0.5242100000000 1.0
C      1  0.5393810000000  0.4986910000000  0.4769740000000 1.0
C      1  0.5190820000000  0.4628680000000  0.4904790000000 1.0
C      1  0.4824670000000  0.5361380000000  0.5101230000000 1.0
C      1  0.5025540000000  0.4843720000000  0.4491670000000 1.0
C      1  0.4636880000000  0.5058260000000  0.4709600000000 1.0
C      1  0.4754560000000  0.4570030000000  0.5110480000000 1.0
C      1  0.4981870000000  0.5157640000000  0.5496520000000 1.0
C      1  0.5403540000000  0.4952000000000  0.5310610000000 1.0
C      1  0.5158710000000  0.5390860000000  0.4860580000000 1.0
C      1  0.5482010000000  0.4468010000000  0.5427680000000 1.0
C      1  0.5457810000000  0.5448040000000  0.4529900000000 1.0
C      1  0.4543230000000  0.5465770000000  0.5495980000000 1.0
C      1  0.4543090000000  0.5540150000000  0.4587720000000 1.0
C      1  0.4543390000000  0.4557700000000  0.5495260000000 1.0
C      1  0.5466910000000  0.4542740000000  0.4515610000000 1.0
C      1  0.4586220000000  0.4559070000000  0.4549160000000 1.0
C      1  0.5427730000000  0.5458000000000  0.5471210000000 1.0
C      1  0.5269390000000  0.5230200000000  0.4653850000000 1.0
C      1  0.4696200000000  0.4763920000000  0.5334600000000 1.0
C      1  0.4728790000000  0.5261400000000  0.5369740000000 1.0
C      1  0.5385970000000  0.4719090000000  0.5540920000000 1.0
C      1  0.4641090000000  0.5290420000000  0.4470980000000 1.0
C      1  0.5270910000000  0.4744830000000  0.4638250000000 1.0
C      1  0.4788850000000  0.4798980000000  0.4658460000000 1.0
C      1  0.5240800000000  0.5217840000000  0.5356160000000 1.0
C      1  0.5097250000000  0.5128060000000  0.4437740000000 1.0
C      1  0.5097790000000  0.5264810000000  0.5097770000000 1.0
C      1  0.4911080000000  0.4710360000000  0.4918350000000 1.0
C      1  0.4957960000000  0.4875330000000  0.5387910000000 1.0
C      1  0.5292250000000  0.4877980000000  0.5037620000000 1.0
C      1  0.4725060000000  0.5101970000000  0.4993670000000 1.0
C      1  0.4997500000000  0.4958380000000  0.5081100000000 1.0
END
