TITL C-65434-6104-7 -0.0643344965023954 125000 -481.789679567978 0 0 74 (C2) n - 1
REM
REM in /rds/project/t2_vol4/rds-t2-cs072/BORA/CARBON/from-Arr/AIRSS/Generating-Clusters/GAP-ML-2020/Higher-Symm/SD-CG/HFTN-CG
REM
REM
REM
REM
REM
REM ./C.cell (b20cbc046b6831c77cfcea5457e17084)
REM AIRSS Version 0.9.1 bugfix July 2018 build 013d7b7c2542+ Fri, 06 Jul 2018 19:26:36 +0100
REM compiler GCC version 9.3.0
REM options -cpp -mtune=generic -march=x86-64 -g -O0
REM seed 715196182 -223251624 570023367 1848717594 -1638629188 1183130702 -1866112001 -1525204168 1750414971 -1099438850 -1971161577 -1522135947 482269313 -1938384180 -357168837 -414285959 516693730 2006918251 1223264321 -302778022 -2084796832 509781988 1470244129 -2025270604 -1729598116 2030284497 -839557297 -1636255240 -1519263922 -1186774681 304867479 -860469164 1795099247
REM
CELL 1.54180   50.00000   50.00000   50.00000   90.00000   90.00000   90.00000
LATT -1
SFAC C  
C      1  0.5654170000000  0.5125930000000  0.5091550000000 1.0
C      1  0.5177500000000  0.5206700000000  0.4393640000000 1.0
C      1  0.4433870000000  0.5258470000000  0.4760220000000 1.0
C      1  0.4708000000000  0.5224620000000  0.5572400000000 1.0
C      1  0.5570290000000  0.4765400000000  0.4760240000000 1.0
C      1  0.5295900000000  0.4798730000000  0.5572350000000 1.0
C      1  0.4349880000000  0.4897730000000  0.5091270000000 1.0
C      1  0.4826780000000  0.4817400000000  0.4393460000000 1.0
C      1  0.5584910000000  0.5352720000000  0.4615050000000 1.0
C      1  0.4685980000000  0.5351640000000  0.4430510000000 1.0
C      1  0.4393280000000  0.5301610000000  0.5303530000000 1.0
C      1  0.5205580000000  0.5341220000000  0.5640330000000 1.0
C      1  0.5610700000000  0.4721920000000  0.5303540000000 1.0
C      1  0.4798300000000  0.4682090000000  0.5640060000000 1.0
C      1  0.4419290000000  0.4671240000000  0.4614650000000 1.0
C      1  0.5318280000000  0.4672440000000  0.4430390000000 1.0
C      1  0.4945970000000  0.5346660000000  0.4347600000000 1.0
C      1  0.4315670000000  0.5196980000000  0.5042510000000 1.0
C      1  0.4963080000000  0.5285860000000  0.5697490000000 1.0
C      1  0.5675640000000  0.5297660000000  0.4870190000000 1.0
C      1  0.5040780000000  0.4737420000000  0.5697330000000 1.0
C      1  0.4328480000000  0.4726140000000  0.4869800000000 1.0
C      1  0.5058320000000  0.4677470000000  0.4347410000000 1.0
C      1  0.5688390000000  0.4826710000000  0.5042610000000 1.0
C      1  0.4540210000000  0.4419130000000  0.4555410000000 1.0
C      1  0.4586490000000  0.4627710000000  0.5463450000000 1.0
C      1  0.5412410000000  0.4555630000000  0.5429930000000 1.0
C      1  0.5442160000000  0.4510610000000  0.4649110000000 1.0
C      1  0.4591530000000  0.5467810000000  0.5430090000000 1.0
C      1  0.4562040000000  0.5513330000000  0.4649290000000 1.0
C      1  0.5464020000000  0.5604870000000  0.4555930000000 1.0
C      1  0.5417450000000  0.5395720000000  0.5463830000000 1.0
C      1  0.4756910000000  0.5654840000000  0.4812930000000 1.0
C      1  0.4811470000000  0.5614230000000  0.5299010000000 1.0
C      1  0.5305460000000  0.5572360000000  0.5240060000000 1.0
C      1  0.5252010000000  0.5638500000000  0.4735780000000 1.0
C      1  0.4698540000000  0.4451200000000  0.5239610000000 1.0
C      1  0.4752160000000  0.4385390000000  0.4735300000000 1.0
C      1  0.5247230000000  0.4368990000000  0.4812610000000 1.0
C      1  0.5192520000000  0.4409300000000  0.5298690000000 1.0
C      1  0.4701780000000  0.5119110000000  0.4847160000000 1.0
C      1  0.4862880000000  0.5097690000000  0.5326270000000 1.0
C      1  0.5316860000000  0.5065710000000  0.5122150000000 1.0
C      1  0.5142560000000  0.5087250000000  0.4670970000000 1.0
C      1  0.4687180000000  0.4957930000000  0.5122020000000 1.0
C      1  0.4861630000000  0.4936680000000  0.4670880000000 1.0
C      1  0.5302350000000  0.4904710000000  0.4847180000000 1.0
C      1  0.5141100000000  0.4925820000000  0.5326260000000 1.0
C      1  0.4868960000000  0.4667220000000  0.4812520000000 1.0
C      1  0.4804160000000  0.4687440000000  0.5097100000000 1.0
C      1  0.5086050000000  0.4673500000000  0.5183760000000 1.0
C      1  0.5147410000000  0.4651830000000  0.4892180000000 1.0
C      1  0.4917970000000  0.5350100000000  0.5183940000000 1.0
C      1  0.4856700000000  0.5371960000000  0.4892360000000 1.0
C      1  0.5135180000000  0.5356620000000  0.4812780000000 1.0
C      1  0.5199890000000  0.5336220000000  0.5097360000000 1.0
C      1  0.4935780000000  0.4272910000000  0.5329720000000 1.0
C      1  0.5235640000000  0.4222150000000  0.5068500000000 1.0
C      1  0.4998850000000  0.4216390000000  0.4750420000000 1.0
C      1  0.4681950000000  0.4261090000000  0.5011720000000 1.0
C      1  0.5005310000000  0.5807480000000  0.4750930000000 1.0
C      1  0.5322130000000  0.5762620000000  0.5012300000000 1.0
C      1  0.5068200000000  0.5750600000000  0.5330210000000 1.0
C      1  0.4768420000000  0.5801520000000  0.5068920000000 1.0
C      1  0.4407640000000  0.4842700000000  0.5381210000000 1.0
C      1  0.5566880000000  0.4929900000000  0.5507100000000 1.0
C      1  0.5524540000000  0.4886750000000  0.4486160000000 1.0
C      1  0.4547850000000  0.4861900000000  0.4432470000000 1.0
C      1  0.4479700000000  0.5137300000000  0.4486070000000 1.0
C      1  0.5456410000000  0.5162170000000  0.4432710000000 1.0
C      1  0.5596320000000  0.5180770000000  0.5381510000000 1.0
C      1  0.4437040000000  0.5093500000000  0.5506970000000 1.0
C      1  0.5053420000000  0.5896300000000  0.5048950000000 1.0
C      1  0.4950650000000  0.4127380000000  0.5048380000000 1.0
END
