TITL C-65804-1183-14 -0.344108273710133 125000 -960.917728475126 0 0 138 (S4) n - 1
REM
REM in /rds/project/t2_vol4/rds-t2-cs072/BORA/CARBON/from-Arr/AIRSS/Generating-Clusters/GAP-ML-2020/Higher-Symm/SD-CG/HFTN-CG
REM
REM
REM
REM
REM
REM ./C.cell (b20cbc046b6831c77cfcea5457e17084)
REM AIRSS Version 0.9.1 bugfix July 2018 build 013d7b7c2542+ Fri, 06 Jul 2018 19:26:36 +0100
REM compiler GCC version 9.3.0
REM options -cpp -mtune=generic -march=x86-64 -g -O0
REM seed 1568431368 -1854614119 -1441916504 1033258959 1083635624 1127809640 1904402635 -1212047798 922050144 -1899780909 -174721289 -98213506 -692760073 762459647 -497983324 -1069498017 1494417072 -1762991307 1167949706 -390115931 -857710119 -1290537230 -1204106871 1524666318 -953059684 371317165 2010988348 -704201209 -883786253 454860509 -281818087 -13545557 -1611625812
REM
CELL 1.54180   50.00000   50.00000   50.00000   90.00000   90.00000   90.00000
LATT -1
SFAC C  
C      1  0.4460550000000  0.4794390000000  0.5917040000000 1.0
C      1  0.5202890000000  0.4465760000000  0.4082890000000 1.0
C      1  0.5531610000000  0.5207880000000  0.5917110000000 1.0
C      1  0.4789410000000  0.5536810000000  0.4082970000000 1.0
C      1  0.5162530000000  0.4530160000000  0.5619610000000 1.0
C      1  0.5467140000000  0.5167700000000  0.4380390000000 1.0
C      1  0.4829660000000  0.5472160000000  0.5619680000000 1.0
C      1  0.4525130000000  0.4834820000000  0.4380330000000 1.0
C      1  0.4812820000000  0.4671860000000  0.5198570000000 1.0
C      1  0.5325460000000  0.4817940000000  0.4801390000000 1.0
C      1  0.5179400000000  0.5330530000000  0.5198640000000 1.0
C      1  0.4666780000000  0.5184520000000  0.4801400000000 1.0
C      1  0.4654990000000  0.4612230000000  0.4215060000000 1.0
C      1  0.5385130000000  0.4660000000000  0.5784880000000 1.0
C      1  0.5337290000000  0.5390320000000  0.4215150000000 1.0
C      1  0.4607040000000  0.5342300000000  0.5784910000000 1.0
C      1  0.4754730000000  0.4713570000000  0.4904890000000 1.0
C      1  0.5283760000000  0.4759810000000  0.5095070000000 1.0
C      1  0.5237510000000  0.5288870000000  0.4904950000000 1.0
C      1  0.4708460000000  0.5242600000000  0.5095090000000 1.0
C      1  0.4414010000000  0.5338550000000  0.4263240000000 1.0
C      1  0.4658810000000  0.4419020000000  0.5736710000000 1.0
C      1  0.5578270000000  0.4663990000000  0.4263230000000 1.0
C      1  0.5333370000000  0.5583280000000  0.5736830000000 1.0
C      1  0.4959030000000  0.5148330000000  0.5239540000000 1.0
C      1  0.4848980000000  0.4964160000000  0.4760470000000 1.0
C      1  0.5033180000000  0.4854050000000  0.5239510000000 1.0
C      1  0.5143260000000  0.5038300000000  0.4760480000000 1.0
C      1  0.5628920000000  0.5653190000000  0.5324440000000 1.0
C      1  0.4344120000000  0.5634050000000  0.4675670000000 1.0
C      1  0.4363290000000  0.4349180000000  0.5324280000000 1.0
C      1  0.5648130000000  0.4368420000000  0.4675610000000 1.0
C      1  0.5238790000000  0.4809300000000  0.5981780000000 1.0
C      1  0.5187980000000  0.5244000000000  0.4018240000000 1.0
C      1  0.4753370000000  0.5192950000000  0.5981790000000 1.0
C      1  0.4804320000000  0.4758580000000  0.4018190000000 1.0
C      1  0.4339930000000  0.5156150000000  0.4697440000000 1.0
C      1  0.4841190000000  0.4344990000000  0.5302490000000 1.0
C      1  0.5652320000000  0.4846320000000  0.4697460000000 1.0
C      1  0.5151020000000  0.5657380000000  0.5302610000000 1.0
C      1  0.4526660000000  0.5077580000000  0.4216410000000 1.0
C      1  0.4919780000000  0.4531660000000  0.5783540000000 1.0
C      1  0.5465630000000  0.4924970000000  0.4216430000000 1.0
C      1  0.5072390000000  0.5470630000000  0.5783620000000 1.0
C      1  0.4356400000000  0.5225560000000  0.5671950000000 1.0
C      1  0.4771730000000  0.4361570000000  0.4327980000000 1.0
C      1  0.5635790000000  0.4776750000000  0.5671960000000 1.0
C      1  0.5220550000000  0.5640960000000  0.4328100000000 1.0
C      1  0.4460590000000  0.4515070000000  0.5908130000000 1.0
C      1  0.5482220000000  0.4465790000000  0.4091790000000 1.0
C      1  0.5531570000000  0.5487210000000  0.5908250000000 1.0
C      1  0.4510080000000  0.5536770000000  0.4091840000000 1.0
C      1  0.4007580000000  0.4998970000000  0.5067940000000 1.0
C      1  0.4998350000000  0.4012690000000  0.4931950000000 1.0
C      1  0.5984640000000  0.5003440000000  0.5068010000000 1.0
C      1  0.4993880000000  0.5989750000000  0.4932110000000 1.0
C      1  0.4573120000000  0.5955910000000  0.4892340000000 1.0
C      1  0.4041420000000  0.4578200000000  0.5107660000000 1.0
C      1  0.5419120000000  0.4046530000000  0.4892210000000 1.0
C      1  0.5950800000000  0.5424200000000  0.5107790000000 1.0
C      1  0.4515590000000  0.5740240000000  0.5087240000000 1.0
C      1  0.4257080000000  0.4520690000000  0.4912740000000 1.0
C      1  0.5476640000000  0.4262160000000  0.5087150000000 1.0
C      1  0.5735160000000  0.5481740000000  0.4912870000000 1.0
C      1  0.5174270000000  0.4831040000000  0.5504300000000 1.0
C      1  0.5166260000000  0.5179430000000  0.4495710000000 1.0
C      1  0.4817920000000  0.5171300000000  0.5504310000000 1.0
C      1  0.4826010000000  0.4823080000000  0.4495670000000 1.0
C      1  0.4971850000000  0.4080250000000  0.4655550000000 1.0
C      1  0.5917090000000  0.4976900000000  0.5344400000000 1.0
C      1  0.5020410000000  0.5922220000000  0.4655700000000 1.0
C      1  0.4075120000000  0.5025460000000  0.5344340000000 1.0
C      1  0.5196030000000  0.5850250000000  0.5067180000000 1.0
C      1  0.4147070000000  0.5201130000000  0.4932890000000 1.0
C      1  0.4796200000000  0.4152160000000  0.5067020000000 1.0
C      1  0.5845170000000  0.4801300000000  0.4932910000000 1.0
C      1  0.5446050000000  0.4147670000000  0.4633970000000 1.0
C      1  0.5849670000000  0.5451100000000  0.5366050000000 1.0
C      1  0.4546210000000  0.5854810000000  0.4634070000000 1.0
C      1  0.4142530000000  0.4551260000000  0.5365910000000 1.0
C      1  0.5054260000000  0.4293820000000  0.4266500000000 1.0
C      1  0.5703540000000  0.5059270000000  0.5733480000000 1.0
C      1  0.4938020000000  0.5708720000000  0.4266610000000 1.0
C      1  0.4288640000000  0.4943030000000  0.5733420000000 1.0
C      1  0.6042900000000  0.5231830000000  0.4923170000000 1.0
C      1  0.4765500000000  0.6047990000000  0.5076970000000 1.0
C      1  0.3949330000000  0.4770600000000  0.4923060000000 1.0
C      1  0.5226730000000  0.3954420000000  0.5076810000000 1.0
C      1  0.5707050000000  0.4382940000000  0.4975590000000 1.0
C      1  0.5614390000000  0.5712140000000  0.5024460000000 1.0
C      1  0.4285180000000  0.5619480000000  0.4975640000000 1.0
C      1  0.4377840000000  0.4290270000000  0.5024300000000 1.0
C      1  0.5680860000000  0.4605830000000  0.4523090000000 1.0
C      1  0.5391520000000  0.5685900000000  0.5476970000000 1.0
C      1  0.4311410000000  0.5396670000000  0.4523110000000 1.0
C      1  0.4600680000000  0.4316450000000  0.5476830000000 1.0
C      1  0.4762290000000  0.5528240000000  0.5019310000000 1.0
C      1  0.4469080000000  0.4767390000000  0.4980690000000 1.0
C      1  0.5229940000000  0.4474180000000  0.5019240000000 1.0
C      1  0.5523150000000  0.5235030000000  0.4980760000000 1.0
C      1  0.5395840000000  0.5806310000000  0.4875660000000 1.0
C      1  0.4191020000000  0.5400920000000  0.5124420000000 1.0
C      1  0.4596400000000  0.4196130000000  0.4875500000000 1.0
C      1  0.5801200000000  0.4601480000000  0.5124420000000 1.0
C      1  0.4691190000000  0.5857580000000  0.5293780000000 1.0
C      1  0.4139730000000  0.4696320000000  0.4706230000000 1.0
C      1  0.5301020000000  0.4144790000000  0.5293660000000 1.0
C      1  0.5852520000000  0.5306150000000  0.4706340000000 1.0
C      1  0.4773500000000  0.5054390000000  0.4081080000000 1.0
C      1  0.4942980000000  0.4778490000000  0.5918900000000 1.0
C      1  0.5218790000000  0.4948180000000  0.4081080000000 1.0
C      1  0.5049180000000  0.5223780000000  0.5918940000000 1.0
C      1  0.4135410000000  0.4810030000000  0.5517290000000 1.0
C      1  0.5187270000000  0.4140560000000  0.4482600000000 1.0
C      1  0.5856790000000  0.5192310000000  0.5517380000000 1.0
C      1  0.4805000000000  0.5861940000000  0.4482730000000 1.0
C      1  0.5287670000000  0.5085280000000  0.6019620000000 1.0
C      1  0.4912000000000  0.5292890000000  0.3980420000000 1.0
C      1  0.4704490000000  0.4916970000000  0.6019580000000 1.0
C      1  0.5080310000000  0.4709700000000  0.3980380000000 1.0
C      1  0.4752000000000  0.4274230000000  0.4618820000000 1.0
C      1  0.5723120000000  0.4757050000000  0.5381120000000 1.0
C      1  0.5240250000000  0.5728260000000  0.4618960000000 1.0
C      1  0.4269090000000  0.5245300000000  0.5381110000000 1.0
C      1  0.4561540000000  0.5107220000000  0.5323850000000 1.0
C      1  0.4890090000000  0.4566670000000  0.4676100000000 1.0
C      1  0.5430670000000  0.4895150000000  0.5323860000000 1.0
C      1  0.5102160000000  0.5435800000000  0.4676180000000 1.0
C      1  0.5686660000000  0.5125490000000  0.4568040000000 1.0
C      1  0.4871850000000  0.5691710000000  0.5432050000000 1.0
C      1  0.4305600000000  0.4877000000000  0.4567970000000 1.0
C      1  0.5120350000000  0.4310640000000  0.5431940000000 1.0
C      1  0.5443500000000  0.5179620000000  0.5251820000000 1.0
C      1  0.4817690000000  0.5448630000000  0.4748240000000 1.0
C      1  0.4548710000000  0.4822760000000  0.5251760000000 1.0
C      1  0.5174560000000  0.4553830000000  0.4748180000000 1.0
C      1  0.4996140000000  0.5001270000000  0.4324310000000 1.0
C      1  0.4996090000000  0.5001150000000  0.5675690000000 1.0
END
