TITL C-65450-4930-8 0.0166226660940499 125000 -636.114837687573 0 0 93 (C1) n - 1
REM
REM in /rds/project/t2_vol4/rds-t2-cs072/BORA/CARBON/from-Arr/AIRSS/Generating-Clusters/GAP-ML-2020/Higher-Symm/SD-CG/HFTN-CG
REM
REM
REM
REM
REM
REM ./C.cell (b20cbc046b6831c77cfcea5457e17084)
REM AIRSS Version 0.9.1 bugfix July 2018 build 013d7b7c2542+ Fri, 06 Jul 2018 19:26:36 +0100
REM compiler GCC version 9.3.0
REM options -cpp -mtune=generic -march=x86-64 -g -O0
REM seed 1833626121 1650526986 2028179156 -1613613684 -1979301143 1951196308 -170719301 -453276719 -576809108 1710596159 -126352791 -1227360730 88490041 610571389 -1454434876 -684327181 -1361884892 -440244003 1493841442 1245133729 477249539 147113966 1272816883 1857549903 1029022267 339606783 773728457 1088689167 1446906579 -70073251 -1364914895 -1792603772 -350407669
REM
CELL 1.54180   50.00000   50.00000   50.00000   90.00000   90.00000   90.00000
LATT -1
SFAC C  
C      1  0.5342810000000  0.5898470000000  0.4707950000000 1.0
C      1  0.5266250000000  0.5530570000000  0.5656470000000 1.0
C      1  0.5345340000000  0.4477300000000  0.5755450000000 1.0
C      1  0.5291140000000  0.4170950000000  0.4775100000000 1.0
C      1  0.5307020000000  0.4981470000000  0.4088470000000 1.0
C      1  0.5342750000000  0.5866560000000  0.5334460000000 1.0
C      1  0.5250730000000  0.5570630000000  0.4321480000000 1.0
C      1  0.5265870000000  0.4546990000000  0.4270750000000 1.0
C      1  0.5353970000000  0.4105390000000  0.5228210000000 1.0
C      1  0.5272950000000  0.4925690000000  0.5829200000000 1.0
C      1  0.4900290000000  0.4533040000000  0.4838450000000 1.0
C      1  0.5039720000000  0.4936640000000  0.4587410000000 1.0
C      1  0.5083220000000  0.5333570000000  0.4905240000000 1.0
C      1  0.4905520000000  0.5304380000000  0.5365790000000 1.0
C      1  0.5068670000000  0.4847160000000  0.5234190000000 1.0
C      1  0.5064050000000  0.4678950000000  0.5034530000000 1.0
C      1  0.4911730000000  0.4994430000000  0.5428800000000 1.0
C      1  0.5078490000000  0.5397680000000  0.5161520000000 1.0
C      1  0.5031890000000  0.5126600000000  0.4760870000000 1.0
C      1  0.4885880000000  0.4699210000000  0.4568530000000 1.0
C      1  0.5458440000000  0.5339310000000  0.5595020000000 1.0
C      1  0.5510430000000  0.4499050000000  0.5523970000000 1.0
C      1  0.5471870000000  0.4371810000000  0.4697520000000 1.0
C      1  0.5452640000000  0.5111030000000  0.4290600000000 1.0
C      1  0.5522690000000  0.5750110000000  0.4861590000000 1.0
C      1  0.5457590000000  0.5385760000000  0.4373070000000 1.0
C      1  0.5454600000000  0.4550970000000  0.4476120000000 1.0
C      1  0.5513570000000  0.4332600000000  0.5289510000000 1.0
C      1  0.5464560000000  0.5067820000000  0.5681450000000 1.0
C      1  0.5510860000000  0.5730530000000  0.5150410000000 1.0
C      1  0.4542560000000  0.5645950000000  0.4845140000000 1.0
C      1  0.4454580000000  0.5331430000000  0.5567490000000 1.0
C      1  0.4546970000000  0.4605580000000  0.5427450000000 1.0
C      1  0.4463940000000  0.4330050000000  0.4698130000000 1.0
C      1  0.4487840000000  0.5017020000000  0.4405980000000 1.0
C      1  0.4524210000000  0.5596340000000  0.5125350000000 1.0
C      1  0.4493350000000  0.5295880000000  0.4460730000000 1.0
C      1  0.4446720000000  0.4491990000000  0.4465520000000 1.0
C      1  0.4536440000000  0.4423380000000  0.5208190000000 1.0
C      1  0.4463360000000  0.5059860000000  0.5643850000000 1.0
C      1  0.4895940000000  0.5938670000000  0.5514470000000 1.0
C      1  0.4830170000000  0.4751090000000  0.5874770000000 1.0
C      1  0.4911400000000  0.3930630000000  0.5141350000000 1.0
C      1  0.4813610000000  0.4625360000000  0.4092230000000 1.0
C      1  0.4804470000000  0.5656000000000  0.4434420000000 1.0
C      1  0.4963260000000  0.5869620000000  0.4536560000000 1.0
C      1  0.4878830000000  0.4814810000000  0.3938130000000 1.0
C      1  0.4848730000000  0.4042960000000  0.4922970000000 1.0
C      1  0.4893560000000  0.4510400000000  0.5920360000000 1.0
C      1  0.4818840000000  0.5719560000000  0.5613690000000 1.0
C      1  0.5634840000000  0.4551280000000  0.5129620000000 1.0
C      1  0.5590350000000  0.4765520000000  0.4630870000000 1.0
C      1  0.5608810000000  0.5310730000000  0.4621950000000 1.0
C      1  0.5624440000000  0.5453830000000  0.5141760000000 1.0
C      1  0.5615930000000  0.4990270000000  0.5439380000000 1.0
C      1  0.5614320000000  0.4577030000000  0.4856690000000 1.0
C      1  0.5632330000000  0.4723940000000  0.5372560000000 1.0
C      1  0.5608620000000  0.5271490000000  0.5348300000000 1.0
C      1  0.5635340000000  0.5471560000000  0.4844060000000 1.0
C      1  0.5591330000000  0.5025330000000  0.4539990000000 1.0
C      1  0.5078660000000  0.4073310000000  0.5325730000000 1.0
C      1  0.4972540000000  0.4506650000000  0.4326070000000 1.0
C      1  0.4977800000000  0.5494790000000  0.4262080000000 1.0
C      1  0.5067930000000  0.5961520000000  0.5288950000000 1.0
C      1  0.4981100000000  0.4982000000000  0.5774430000000 1.0
C      1  0.4994210000000  0.4221640000000  0.4735950000000 1.0
C      1  0.5070060000000  0.4376630000000  0.5741300000000 1.0
C      1  0.4972130000000  0.5464300000000  0.5649170000000 1.0
C      1  0.5062080000000  0.5968270000000  0.4792220000000 1.0
C      1  0.5031770000000  0.5046220000000  0.4016680000000 1.0
C      1  0.4865060000000  0.5254030000000  0.5828810000000 1.0
C      1  0.4936330000000  0.5941400000000  0.5040130000000 1.0
C      1  0.4887510000000  0.5255370000000  0.4140110000000 1.0
C      1  0.4953290000000  0.4257290000000  0.5508820000000 1.0
C      1  0.4881050000000  0.4254020000000  0.4456730000000 1.0
C      1  0.4629050000000  0.5184690000000  0.4238190000000 1.0
C      1  0.4584770000000  0.5249640000000  0.5803440000000 1.0
C      1  0.4701120000000  0.4370380000000  0.5427980000000 1.0
C      1  0.4681040000000  0.5806230000000  0.5026850000000 1.0
C      1  0.4600740000000  0.4258710000000  0.4469270000000 1.0
C      1  0.4579440000000  0.5355930000000  0.5297720000000 1.0
C      1  0.4595420000000  0.4901820000000  0.5426800000000 1.0
C      1  0.4575160000000  0.5544550000000  0.4576610000000 1.0
C      1  0.4557120000000  0.4759790000000  0.4537540000000 1.0
C      1  0.4582660000000  0.4493820000000  0.4920690000000 1.0
C      1  0.5240640000000  0.5812290000000  0.4456900000000 1.0
C      1  0.5374340000000  0.4690970000000  0.5932380000000 1.0
C      1  0.5372940000000  0.5766680000000  0.5589110000000 1.0
C      1  0.5359200000000  0.4710960000000  0.4080320000000 1.0
C      1  0.5395910000000  0.4006820000000  0.4969990000000 1.0
C      1  0.4447440000000  0.4997740000000  0.4948730000000 1.0
C      1  0.4485770000000  0.4765080000000  0.4822650000000 1.0
C      1  0.4513520000000  0.5082680000000  0.5190600000000 1.0
END
