TITL C-65802-1335-6 -0.157018505669387 125000 -433.934941885944 0 0 64 (Cs) n - 1
REM
REM in /rds/project/t2_vol4/rds-t2-cs072/BORA/CARBON/from-Arr/AIRSS/Generating-Clusters/GAP-ML-2020/Higher-Symm/SD-CG/HFTN-CG
REM
REM
REM
REM
REM
REM ./C.cell (b20cbc046b6831c77cfcea5457e17084)
REM AIRSS Version 0.9.1 bugfix July 2018 build 013d7b7c2542+ Fri, 06 Jul 2018 19:26:36 +0100
REM compiler GCC version 9.3.0
REM options -cpp -mtune=generic -march=x86-64 -g -O0
REM seed -1889800779 524430515 -1667684035 380211778 -1717733182 -602619910 -1547364102 -2090893238 -1366847775 -108935433 63047564 -1858025241 1557371831 -1880741526 1077900019 905067738 -2065887673 1026133088 -1854696254 71478923 -2065747704 -467361669 -1109107883 1292580333 1280634294 619997883 120150729 -43025596 -243516602 -740019333 -499406952 -2028195613 1557648605
REM
CELL 1.54180   50.00000   50.00000   50.00000   90.00000   90.00000   90.00000
LATT -1
SFAC C  
C      1  0.5720360000000  0.4853550000000  0.4838750000000 1.0
C      1  0.4286590000000  0.5150540000000  0.4814990000000 1.0
C      1  0.5721300000000  0.5141310000000  0.4838410000000 1.0
C      1  0.4285610000000  0.4853720000000  0.4815350000000 1.0
C      1  0.4427720000000  0.4859510000000  0.4554570000000 1.0
C      1  0.5601530000000  0.5146940000000  0.4574180000000 1.0
C      1  0.4428650000000  0.5143190000000  0.4554230000000 1.0
C      1  0.5600540000000  0.4848080000000  0.4574540000000 1.0
C      1  0.4699620000000  0.5155210000000  0.4979200000000 1.0
C      1  0.5244420000000  0.4849180000000  0.4974910000000 1.0
C      1  0.4698600000000  0.4846730000000  0.4979570000000 1.0
C      1  0.5245410000000  0.5149140000000  0.4974550000000 1.0
C      1  0.4886640000000  0.5653800000000  0.5449260000000 1.0
C      1  0.5076650000000  0.4295470000000  0.5257720000000 1.0
C      1  0.4882340000000  0.4348040000000  0.5450820000000 1.0
C      1  0.5081290000000  0.5704620000000  0.5256030000000 1.0
C      1  0.4879810000000  0.5139050000000  0.4355780000000 1.0
C      1  0.5157550000000  0.4842720000000  0.4477610000000 1.0
C      1  0.4878890000000  0.4860200000000  0.4356110000000 1.0
C      1  0.5158580000000  0.5154980000000  0.4477240000000 1.0
C      1  0.5449680000000  0.4476720000000  0.4992330000000 1.0
C      1  0.4553590000000  0.5555150000000  0.5090370000000 1.0
C      1  0.5453110000000  0.5520290000000  0.4991080000000 1.0
C      1  0.4549940000000  0.4448020000000  0.5091700000000 1.0
C      1  0.5547720000000  0.5138700000000  0.5309660000000 1.0
C      1  0.4382080000000  0.4865030000000  0.5304250000000 1.0
C      1  0.5546800000000  0.4858440000000  0.5310000000000 1.0
C      1  0.4382980000000  0.5139760000000  0.5303920000000 1.0
C      1  0.4636140000000  0.5546340000000  0.5359260000000 1.0
C      1  0.5303600000000  0.4434390000000  0.5228880000000 1.0
C      1  0.4632550000000  0.4456930000000  0.5360570000000 1.0
C      1  0.5307320000000  0.5564150000000  0.5227530000000 1.0
C      1  0.4679310000000  0.5262270000000  0.4519040000000 1.0
C      1  0.5394120000000  0.4673370000000  0.4508930000000 1.0
C      1  0.4677580000000  0.4738700000000  0.4519670000000 1.0
C      1  0.5396260000000  0.5322850000000  0.4508150000000 1.0
C      1  0.4893370000000  0.4187790000000  0.4772270000000 1.0
C      1  0.5146830000000  0.5772250000000  0.4703890000000 1.0
C      1  0.4898720000000  0.5812340000000  0.4770320000000 1.0
C      1  0.5141740000000  0.4226090000000  0.4705740000000 1.0
C      1  0.4422300000000  0.5271080000000  0.5036340000000 1.0
C      1  0.5546210000000  0.4744890000000  0.5033840000000 1.0
C      1  0.4420530000000  0.4732810000000  0.5036980000000 1.0
C      1  0.5547880000000  0.5251590000000  0.5033230000000 1.0
C      1  0.4825560000000  0.4846370000000  0.5255430000000 1.0
C      1  0.5117410000000  0.5155920000000  0.5248580000000 1.0
C      1  0.4826580000000  0.5155390000000  0.5255060000000 1.0
C      1  0.5116380000000  0.4843910000000  0.5248960000000 1.0
C      1  0.5107760000000  0.5292560000000  0.4752430000000 1.0
C      1  0.4809610000000  0.4657460000000  0.4773130000000 1.0
C      1  0.5105830000000  0.4706140000000  0.4753130000000 1.0
C      1  0.4811860000000  0.5343240000000  0.4772310000000 1.0
C      1  0.5317310000000  0.4691070000000  0.5417980000000 1.0
C      1  0.4611970000000  0.5267260000000  0.5429890000000 1.0
C      1  0.5319340000000  0.5307840000000  0.5417240000000 1.0
C      1  0.4610220000000  0.4736330000000  0.5430520000000 1.0
C      1  0.4732520000000  0.4393190000000  0.4884220000000 1.0
C      1  0.5310580000000  0.5537350000000  0.4734600000000 1.0
C      1  0.4736520000000  0.5608280000000  0.4882760000000 1.0
C      1  0.5307040000000  0.4459990000000  0.4735890000000 1.0
C      1  0.5020030000000  0.5563950000000  0.5683430000000 1.0
C      1  0.5211060000000  0.4609000000000  0.5684420000000 1.0
C      1  0.5016320000000  0.4437570000000  0.5684780000000 1.0
C      1  0.5213640000000  0.5391240000000  0.5683480000000 1.0
END
