TITL C-65438-8042-4 28.332891485367 125000 -660.672537362442 0 0 94 (C1) n - 1
REM
REM in /rds/project/t2_vol4/rds-t2-cs072/BORA/CARBON/from-Arr/AIRSS/Generating-Clusters/GAP-ML-2020/Higher-Symm/SD-CG/HFTN-CG
REM
REM
REM
REM
REM
REM ./C.cell (b20cbc046b6831c77cfcea5457e17084)
REM AIRSS Version 0.9.1 bugfix July 2018 build 013d7b7c2542+ Fri, 06 Jul 2018 19:26:36 +0100
REM compiler GCC version 9.3.0
REM options -cpp -mtune=generic -march=x86-64 -g -O0
REM seed -196042645 -1442447136 -1734809848 1095514298 2095238180 370517467 -1350192904 -1613574490 -1786426696 52193983 -1316054601 466974381 -1949340297 -965724538 1098514343 -1884073825 -1814233699 1796803422 -457013840 -1060847125 -469917680 678973951 1631306379 -1675835366 -1167061581 24102450 -184767678 -862396780 -1871890486 -1913816731 -855000115 -782982822 289262436
REM
CELL 1.54180   50.00000   50.00000   50.00000   90.00000   90.00000   90.00000
LATT -1
SFAC C  
C      1  0.5064900000000  0.4620910000000  0.4816670000000 1.0
C      1  0.4993060000000  0.5206310000000  0.4630720000000 1.0
C      1  0.5075470000000  0.5445520000000  0.5257260000000 1.0
C      1  0.4855870000000  0.4782810000000  0.5390330000000 1.0
C      1  0.5680770000000  0.4848370000000  0.5230130000000 1.0
C      1  0.4315090000000  0.4786200000000  0.4829410000000 1.0
C      1  0.5648790000000  0.5172340000000  0.4779590000000 1.0
C      1  0.4330210000000  0.5250220000000  0.5154810000000 1.0
C      1  0.5010740000000  0.4603800000000  0.5221320000000 1.0
C      1  0.4924690000000  0.4790880000000  0.4654610000000 1.0
C      1  0.5105530000000  0.5373300000000  0.4824490000000 1.0
C      1  0.5014510000000  0.5280230000000  0.5481490000000 1.0
C      1  0.4514430000000  0.5532700000000  0.4794600000000 1.0
C      1  0.5479230000000  0.5188790000000  0.5544990000000 1.0
C      1  0.4516110000000  0.4467030000000  0.5181720000000 1.0
C      1  0.5494490000000  0.4809960000000  0.4470730000000 1.0
C      1  0.5300210000000  0.4319840000000  0.4575220000000 1.0
C      1  0.4698530000000  0.5424300000000  0.4303270000000 1.0
C      1  0.5321460000000  0.5693080000000  0.5417240000000 1.0
C      1  0.4734800000000  0.4611030000000  0.5620360000000 1.0
C      1  0.5404090000000  0.5763890000000  0.5142010000000 1.0
C      1  0.4583880000000  0.4843800000000  0.5722060000000 1.0
C      1  0.5422400000000  0.4272680000000  0.4840050000000 1.0
C      1  0.4589080000000  0.5159860000000  0.4265280000000 1.0
C      1  0.5165150000000  0.4260490000000  0.5506970000000 1.0
C      1  0.4844710000000  0.4498410000000  0.4271200000000 1.0
C      1  0.5140890000000  0.5732080000000  0.4480750000000 1.0
C      1  0.4856600000000  0.5511820000000  0.5731830000000 1.0
C      1  0.4877100000000  0.5407870000000  0.5039700000000 1.0
C      1  0.5072550000000  0.4999970000000  0.5438630000000 1.0
C      1  0.4905770000000  0.4408910000000  0.4991340000000 1.0
C      1  0.5109960000000  0.5000120000000  0.4450760000000 1.0
C      1  0.5334250000000  0.4565790000000  0.4403800000000 1.0
C      1  0.4656130000000  0.5594010000000  0.4546550000000 1.0
C      1  0.5372840000000  0.5457640000000  0.5599300000000 1.0
C      1  0.4671010000000  0.4385520000000  0.5427260000000 1.0
C      1  0.4420340000000  0.4741200000000  0.4379920000000 1.0
C      1  0.5562220000000  0.5630640000000  0.4725080000000 1.0
C      1  0.4450480000000  0.5274070000000  0.5613190000000 1.0
C      1  0.5579370000000  0.4396600000000  0.5263680000000 1.0
C      1  0.5205500000000  0.5842820000000  0.4933990000000 1.0
C      1  0.4773110000000  0.5020680000000  0.5837320000000 1.0
C      1  0.5272890000000  0.4136050000000  0.5055180000000 1.0
C      1  0.4752360000000  0.4945870000000  0.4148420000000 1.0
C      1  0.4985220000000  0.4616730000000  0.5782970000000 1.0
C      1  0.5038530000000  0.4218910000000  0.4568930000000 1.0
C      1  0.4960460000000  0.5426870000000  0.4209200000000 1.0
C      1  0.5047610000000  0.5735580000000  0.5395600000000 1.0
C      1  0.4390120000000  0.5023520000000  0.4431590000000 1.0
C      1  0.5589330000000  0.5591180000000  0.5004130000000 1.0
C      1  0.4402670000000  0.5001460000000  0.5563150000000 1.0
C      1  0.5609290000000  0.4447740000000  0.4982440000000 1.0
C      1  0.5332800000000  0.5790090000000  0.4679660000000 1.0
C      1  0.4676310000000  0.5293480000000  0.5789640000000 1.0
C      1  0.5369810000000  0.4215530000000  0.5309960000000 1.0
C      1  0.4645380000000  0.4693600000000  0.4218570000000 1.0
C      1  0.4307690000000  0.5057730000000  0.4712020000000 1.0
C      1  0.5581460000000  0.5287710000000  0.5050510000000 1.0
C      1  0.4379780000000  0.4973290000000  0.5270900000000 1.0
C      1  0.5684230000000  0.4729110000000  0.4954440000000 1.0
C      1  0.5600110000000  0.4640000000000  0.5410290000000 1.0
C      1  0.4390230000000  0.4596280000000  0.4620490000000 1.0
C      1  0.5588970000000  0.5381510000000  0.4586210000000 1.0
C      1  0.4424450000000  0.5426320000000  0.5362740000000 1.0
C      1  0.5632950000000  0.5122380000000  0.5301690000000 1.0
C      1  0.4383260000000  0.4725780000000  0.5106240000000 1.0
C      1  0.5643220000000  0.4889790000000  0.4717110000000 1.0
C      1  0.4344100000000  0.5302470000000  0.4872970000000 1.0
C      1  0.5268720000000  0.5272810000000  0.5054720000000 1.0
C      1  0.4672700000000  0.4936650000000  0.5230570000000 1.0
C      1  0.5169010000000  0.4759610000000  0.5045370000000 1.0
C      1  0.4824000000000  0.5021710000000  0.4775690000000 1.0
C      1  0.4903330000000  0.4210380000000  0.5384660000000 1.0
C      1  0.5104530000000  0.4619680000000  0.4236000000000 1.0
C      1  0.4882090000000  0.5759740000000  0.4605110000000 1.0
C      1  0.5123630000000  0.5418230000000  0.5725140000000 1.0
C      1  0.5199580000000  0.5511890000000  0.4306430000000 1.0
C      1  0.4798380000000  0.5694790000000  0.5517650000000 1.0
C      1  0.5208250000000  0.4487300000000  0.5675670000000 1.0
C      1  0.4797110000000  0.4322110000000  0.4489720000000 1.0
C      1  0.5038670000000  0.4904420000000  0.4188800000000 1.0
C      1  0.4912620000000  0.5817970000000  0.4883790000000 1.0
C      1  0.5037250000000  0.4893860000000  0.5833740000000 1.0
C      1  0.4988130000000  0.4154250000000  0.5102360000000 1.0
C      1  0.5301200000000  0.4950040000000  0.5644580000000 1.0
C      1  0.4626660000000  0.4359690000000  0.4946250000000 1.0
C      1  0.5376180000000  0.5041880000000  0.4350870000000 1.0
C      1  0.4689090000000  0.5644750000000  0.5017850000000 1.0
C      1  0.4568420000000  0.4380770000000  0.4671480000000 1.0
C      1  0.5424720000000  0.5325930000000  0.4361760000000 1.0
C      1  0.4602400000000  0.5639220000000  0.5311560000000 1.0
C      1  0.5413470000000  0.4683150000000  0.5616640000000 1.0
C      1  0.5127390000000  0.5026960000000  0.5139450000000 1.0
C      1  0.4832950000000  0.5102990000000  0.5055250000000 1.0
END
