TITL C-65448-6154-5 -10.7729203814102 125000 -414.083967837726 0 0 60 (Ci) n - 1
REM
REM in /rds/project/t2_vol4/rds-t2-cs072/BORA/CARBON/from-Arr/AIRSS/Generating-Clusters/GAP-ML-2020/Higher-Symm/SD-CG/HFTN-CG
REM
REM
REM
REM
REM
REM ./C.cell (b20cbc046b6831c77cfcea5457e17084)
REM AIRSS Version 0.9.1 bugfix July 2018 build 013d7b7c2542+ Fri, 06 Jul 2018 19:26:36 +0100
REM compiler GCC version 9.3.0
REM options -cpp -mtune=generic -march=x86-64 -g -O0
REM seed 1742465183 -2073215727 221927084 -1846096163 1334464484 -85827863 18918356 -1736064802 28952074 83999268 -368493595 270050348 -1424814053 1812233465 796179526 1517589286 748729633 -870632588 -1762354983 -412386695 1945287639 -1201587887 1839910705 -2080263702 1436840778 1256213132 900184631 1586935508 896128167 -1878614620 40763522 -189385904 -1176012834
REM
CELL 1.54180   50.00000   50.00000   50.00000   90.00000   90.00000   90.00000
LATT -1
SFAC C  
C      1  0.5216890000000  0.5619130000000  0.5156700000000 1.0
C      1  0.4783110000000  0.4380870000000  0.4843300000000 1.0
C      1  0.5541820000000  0.4998470000000  0.5386650000000 1.0
C      1  0.4458180000000  0.5001530000000  0.4613350000000 1.0
C      1  0.4604320000000  0.4920370000000  0.4384170000000 1.0
C      1  0.5395680000000  0.5079630000000  0.5615830000000 1.0
C      1  0.5238740000000  0.4640790000000  0.4494150000000 1.0
C      1  0.4761260000000  0.5359210000000  0.5505850000000 1.0
C      1  0.5111400000000  0.5038710000000  0.4707960000000 1.0
C      1  0.4888600000000  0.4961290000000  0.5292040000000 1.0
C      1  0.5301880000000  0.4541100000000  0.5365890000000 1.0
C      1  0.4698120000000  0.5458900000000  0.4634110000000 1.0
C      1  0.4900640000000  0.5321740000000  0.4214810000000 1.0
C      1  0.5099360000000  0.4678260000000  0.5785190000000 1.0
C      1  0.5097830000000  0.5113480000000  0.5214980000000 1.0
C      1  0.4902170000000  0.4886520000000  0.4785020000000 1.0
C      1  0.4465150000000  0.5090990000000  0.5174060000000 1.0
C      1  0.5534850000000  0.4909010000000  0.4825940000000 1.0
C      1  0.4643310000000  0.5532510000000  0.5083070000000 1.0
C      1  0.5356690000000  0.4467490000000  0.4916930000000 1.0
C      1  0.4613900000000  0.4669890000000  0.5772290000000 1.0
C      1  0.5386100000000  0.5330110000000  0.4227710000000 1.0
C      1  0.5225730000000  0.4422430000000  0.4667440000000 1.0
C      1  0.4774270000000  0.5577570000000  0.5332560000000 1.0
C      1  0.5163620000000  0.5184850000000  0.4155540000000 1.0
C      1  0.4836380000000  0.4815150000000  0.5844460000000 1.0
C      1  0.5019600000000  0.4930150000000  0.4167110000000 1.0
C      1  0.4980400000000  0.5069850000000  0.5832890000000 1.0
C      1  0.4760290000000  0.5071110000000  0.4211150000000 1.0
C      1  0.5239710000000  0.4928890000000  0.5788850000000 1.0
C      1  0.4838410000000  0.4441520000000  0.5422810000000 1.0
C      1  0.5161590000000  0.5558480000000  0.4577190000000 1.0
C      1  0.5187500000000  0.4427200000000  0.5134160000000 1.0
C      1  0.4812500000000  0.5572800000000  0.4865840000000 1.0
C      1  0.4617630000000  0.4555830000000  0.4675580000000 1.0
C      1  0.5382370000000  0.5444170000000  0.5324420000000 1.0
C      1  0.4730620000000  0.4661750000000  0.4427020000000 1.0
C      1  0.5269380000000  0.5338250000000  0.5572980000000 1.0
C      1  0.5376050000000  0.5528250000000  0.4405200000000 1.0
C      1  0.4623950000000  0.4471750000000  0.5594800000000 1.0
C      1  0.5488220000000  0.5166700000000  0.4946000000000 1.0
C      1  0.4511780000000  0.4833300000000  0.5054000000000 1.0
C      1  0.4659360000000  0.5125100000000  0.5378220000000 1.0
C      1  0.5340630000000  0.4874900000000  0.4621780000000 1.0
C      1  0.4982850000000  0.4282860000000  0.4685920000000 1.0
C      1  0.5017150000000  0.5717140000000  0.5314080000000 1.0
C      1  0.5550810000000  0.5231850000000  0.5212210000000 1.0
C      1  0.4449190000000  0.4768150000000  0.4787790000000 1.0
C      1  0.5185760000000  0.5220230000000  0.4924210000000 1.0
C      1  0.4814240000000  0.4779770000000  0.5075790000000 1.0
C      1  0.5011380000000  0.4701770000000  0.4329640000000 1.0
C      1  0.4988620000000  0.5298230000000  0.5670360000000 1.0
C      1  0.5505940000000  0.4729180000000  0.5285350000000 1.0
C      1  0.4494060000000  0.5270820000000  0.4714650000000 1.0
C      1  0.5530190000000  0.4687700000000  0.4995070000000 1.0
C      1  0.4469810000000  0.5312300000000  0.5004930000000 1.0
C      1  0.4883580000000  0.4476340000000  0.5118300000000 1.0
C      1  0.5116420000000  0.5523660000000  0.4881700000000 1.0
C      1  0.4905460000000  0.5482360000000  0.4445010000000 1.0
C      1  0.5094540000000  0.4517640000000  0.5554990000000 1.0
END
