TITL C-65817-1379-4 0.0988694256758153 125000 -874.508207609443 0 0 126 (C1) n - 1
REM
REM in /rds/project/t2_vol4/rds-t2-cs072/BORA/CARBON/from-Arr/AIRSS/Generating-Clusters/GAP-ML-2020/Higher-Symm/SD-CG/HFTN-CG
REM
REM
REM
REM
REM
REM ./C.cell (b20cbc046b6831c77cfcea5457e17084)
REM AIRSS Version 0.9.1 bugfix July 2018 build 013d7b7c2542+ Fri, 06 Jul 2018 19:26:36 +0100
REM compiler GCC version 9.3.0
REM options -cpp -mtune=generic -march=x86-64 -g -O0
REM seed 464162453 -1805357947 1315778790 1429974042 -934559570 -6421193 -1844287870 -482278269 30077111 717698634 -1950676176 -906106502 -1618745239 -2053108459 -1980568415 -85793010 1108262290 689322679 453468883 -832485774 -1317856811 -1445274637 2047618490 -1829385841 292733554 564808853 -676612173 -1164480525 -1757772050 -257523535 -2113817249 1391149225 -700005260
REM
CELL 1.54180   50.00000   50.00000   50.00000   90.00000   90.00000   90.00000
LATT -1
SFAC C  
C      1  0.4792790000000  0.5180480000000  0.4071260000000 1.0
C      1  0.4762040000000  0.4897820000000  0.4048300000000 1.0
C      1  0.5032060000000  0.4762810000000  0.4065160000000 1.0
C      1  0.5233120000000  0.4967900000000  0.4095280000000 1.0
C      1  0.5087840000000  0.5235890000000  0.4161360000000 1.0
C      1  0.4944130000000  0.4200400000000  0.5472860000000 1.0
C      1  0.5752820000000  0.4702670000000  0.5476300000000 1.0
C      1  0.5527830000000  0.5636220000000  0.5461150000000 1.0
C      1  0.4570590000000  0.5686710000000  0.5454610000000 1.0
C      1  0.4206650000000  0.4801390000000  0.5457600000000 1.0
C      1  0.4840870000000  0.4814630000000  0.4854620000000 1.0
C      1  0.5128500000000  0.4782090000000  0.4865080000000 1.0
C      1  0.5234460000000  0.5051800000000  0.4878140000000 1.0
C      1  0.5006100000000  0.5207790000000  0.4961980000000 1.0
C      1  0.4776580000000  0.5100460000000  0.4823000000000 1.0
C      1  0.4205070000000  0.5056550000000  0.5295590000000 1.0
C      1  0.4703050000000  0.4267460000000  0.5303680000000 1.0
C      1  0.5611540000000  0.4487960000000  0.5315560000000 1.0
C      1  0.5682950000000  0.5426430000000  0.5306460000000 1.0
C      1  0.4810200000000  0.5773860000000  0.5296730000000 1.0
C      1  0.4469190000000  0.5044990000000  0.5764180000000 1.0
C      1  0.4792350000000  0.4529150000000  0.5803460000000 1.0
C      1  0.5397490000000  0.4676140000000  0.5809110000000 1.0
C      1  0.5451690000000  0.5290380000000  0.5777640000000 1.0
C      1  0.4878560000000  0.5498610000000  0.5779190000000 1.0
C      1  0.5209180000000  0.5744290000000  0.4297360000000 1.0
C      1  0.4337590000000  0.5421040000000  0.4316850000000 1.0
C      1  0.4392930000000  0.4573640000000  0.4283400000000 1.0
C      1  0.5269660000000  0.4301640000000  0.4268070000000 1.0
C      1  0.5752450000000  0.5013960000000  0.4278390000000 1.0
C      1  0.5781020000000  0.4669220000000  0.4887370000000 1.0
C      1  0.5551090000000  0.5628040000000  0.4885670000000 1.0
C      1  0.4590010000000  0.5704680000000  0.4864130000000 1.0
C      1  0.4179290000000  0.4813900000000  0.4879630000000 1.0
C      1  0.4930490000000  0.4166880000000  0.4875980000000 1.0
C      1  0.5671680000000  0.4656220000000  0.4622550000000 1.0
C      1  0.5525690000000  0.5526390000000  0.4623450000000 1.0
C      1  0.4693750000000  0.5618500000000  0.4610700000000 1.0
C      1  0.4242520000000  0.4904460000000  0.4617620000000 1.0
C      1  0.4900440000000  0.4280740000000  0.4614430000000 1.0
C      1  0.3949400000000  0.5367850000000  0.4704550000000 1.0
C      1  0.4389550000000  0.4182630000000  0.4636880000000 1.0
C      1  0.5613590000000  0.4142050000000  0.4647600000000 1.0
C      1  0.6007420000000  0.5305760000000  0.4649690000000 1.0
C      1  0.4986230000000  0.6030940000000  0.4663580000000 1.0
C      1  0.5980100000000  0.5445150000000  0.4864890000000 1.0
C      1  0.4844200000000  0.6104140000000  0.4866990000000 1.0
C      1  0.3893740000000  0.5205560000000  0.4900900000000 1.0
C      1  0.4476660000000  0.4072650000000  0.4852960000000 1.0
C      1  0.5729440000000  0.4209060000000  0.4868380000000 1.0
C      1  0.4411060000000  0.5307330000000  0.5670690000000 1.0
C      1  0.4529400000000  0.4546100000000  0.5684380000000 1.0
C      1  0.5288750000000  0.4430610000000  0.5696490000000 1.0
C      1  0.5660140000000  0.5111320000000  0.5690860000000 1.0
C      1  0.5106710000000  0.5646320000000  0.5676320000000 1.0
C      1  0.4755790000000  0.4996160000000  0.5348920000000 1.0
C      1  0.4934890000000  0.4757540000000  0.5310770000000 1.0
C      1  0.5205900000000  0.4844890000000  0.5314580000000 1.0
C      1  0.5211240000000  0.5140480000000  0.5367420000000 1.0
C      1  0.4937710000000  0.5219380000000  0.5258680000000 1.0
C      1  0.5320240000000  0.5747370000000  0.5298170000000 1.0
C      1  0.4389470000000  0.5537510000000  0.5290930000000 1.0
C      1  0.4305930000000  0.4587220000000  0.5298290000000 1.0
C      1  0.5181160000000  0.4213120000000  0.5314380000000 1.0
C      1  0.5810880000000  0.4929700000000  0.5312340000000 1.0
C      1  0.4570920000000  0.5564020000000  0.4358090000000 1.0
C      1  0.4294660000000  0.4825660000000  0.4343220000000 1.0
C      1  0.5002420000000  0.4280310000000  0.4334500000000 1.0
C      1  0.5683630000000  0.4757690000000  0.4342100000000 1.0
C      1  0.5436910000000  0.5602710000000  0.4359420000000 1.0
C      1  0.5095910000000  0.4335260000000  0.5055110000000 1.0
C      1  0.5660920000000  0.4878500000000  0.5060840000000 1.0
C      1  0.5315770000000  0.5573910000000  0.5055420000000 1.0
C      1  0.4546620000000  0.5477940000000  0.5043790000000 1.0
C      1  0.4404250000000  0.4715420000000  0.5046970000000 1.0
C      1  0.4357270000000  0.4792470000000  0.5691210000000 1.0
C      1  0.5001710000000  0.4355780000000  0.5702660000000 1.0
C      1  0.5630650000000  0.4812750000000  0.5704890000000 1.0
C      1  0.5390860000000  0.5553900000000  0.5691220000000 1.0
C      1  0.4607300000000  0.5529510000000  0.5683200000000 1.0
C      1  0.4487660000000  0.4997160000000  0.5167410000000 1.0
C      1  0.4845930000000  0.4508080000000  0.5161090000000 1.0
C      1  0.5426570000000  0.4690880000000  0.5167150000000 1.0
C      1  0.5423420000000  0.5302990000000  0.5188030000000 1.0
C      1  0.4830590000000  0.5497440000000  0.5160970000000 1.0
C      1  0.5276180000000  0.5087570000000  0.4583390000000 1.0
C      1  0.5047920000000  0.5242690000000  0.4469900000000 1.0
C      1  0.4824390000000  0.5065190000000  0.4532420000000 1.0
C      1  0.4893480000000  0.4776170000000  0.4551730000000 1.0
C      1  0.5197180000000  0.4781330000000  0.4567210000000 1.0
C      1  0.5286710000000  0.4545880000000  0.4945260000000 1.0
C      1  0.5510800000000  0.5125100000000  0.4959940000000 1.0
C      1  0.5041940000000  0.5504880000000  0.4928660000000 1.0
C      1  0.4518830000000  0.5192870000000  0.4930900000000 1.0
C      1  0.4665000000000  0.4598930000000  0.4934420000000 1.0
C      1  0.4343470000000  0.5155160000000  0.4691070000000 1.0
C      1  0.4719750000000  0.4506910000000  0.4635420000000 1.0
C      1  0.5405110000000  0.4552180000000  0.4650350000000 1.0
C      1  0.5552550000000  0.5236500000000  0.4659160000000 1.0
C      1  0.4970860000000  0.5533680000000  0.4633790000000 1.0
C      1  0.5246390000000  0.5500280000000  0.4164950000000 1.0
C      1  0.4577780000000  0.5354600000000  0.4169400000000 1.0
C      1  0.4505640000000  0.4786990000000  0.4145690000000 1.0
C      1  0.5085770000000  0.4477950000000  0.4144200000000 1.0
C      1  0.5518080000000  0.4906470000000  0.4157980000000 1.0
C      1  0.4483620000000  0.4405070000000  0.4493740000000 1.0
C      1  0.5444940000000  0.4308500000000  0.4495880000000 1.0
C      1  0.5798270000000  0.5189130000000  0.4504430000000 1.0
C      1  0.5039100000000  0.5801130000000  0.4517160000000 1.0
C      1  0.4190750000000  0.5353350000000  0.4559090000000 1.0
C      1  0.4476130000000  0.4407500000000  0.5443030000000 1.0
C      1  0.5404010000000  0.4323040000000  0.5459160000000 1.0
C      1  0.5786540000000  0.5180840000000  0.5448460000000 1.0
C      1  0.5074240000000  0.5793480000000  0.5437910000000 1.0
C      1  0.4265240000000  0.5321010000000  0.5430130000000 1.0
C      1  0.4877070000000  0.4794330000000  0.5858720000000 1.0
C      1  0.5201590000000  0.4874850000000  0.5862930000000 1.0
C      1  0.5215090000000  0.5140140000000  0.5700640000000 1.0
C      1  0.4943830000000  0.5224360000000  0.5818670000000 1.0
C      1  0.4747730000000  0.5018900000000  0.5686830000000 1.0
C      1  0.4045470000000  0.5018500000000  0.5042940000000 1.0
C      1  0.4684800000000  0.4119510000000  0.5029550000000 1.0
C      1  0.5750150000000  0.4420950000000  0.5043600000000 1.0
C      1  0.5778410000000  0.5526830000000  0.5034070000000 1.0
C      1  0.4737270000000  0.5896560000000  0.5023740000000 1.0
C      1  0.4996460000000  0.4996950000000  0.6018460000000 1.0
END
