TITL C-65458-5732-4 17.0758458520105 125000 -683.91236750012 0 0 97 (C1) n - 1
REM
REM in /rds/project/t2_vol4/rds-t2-cs072/BORA/CARBON/from-Arr/AIRSS/Generating-Clusters/GAP-ML-2020/Higher-Symm/SD-CG/HFTN-CG
REM
REM
REM
REM
REM
REM ./C.cell (b20cbc046b6831c77cfcea5457e17084)
REM AIRSS Version 0.9.1 bugfix July 2018 build 013d7b7c2542+ Fri, 06 Jul 2018 19:26:36 +0100
REM compiler GCC version 9.3.0
REM options -cpp -mtune=generic -march=x86-64 -g -O0
REM seed -1440511126 630505816 1325650180 -1001240687 -1421958346 -102523877 -153363571 -1055406943 -1177417108 -455380308 -1498638843 616874870 830016751 -1006241238 -1333039526 -382864328 1404272661 2021340966 198610106 610140781 201074608 -1007308860 1555280992 2117869646 -1842573437 -1500607395 1079043331 636778459 1005711768 1374805835 -893934712 1805897179 -1465021871
REM
CELL 1.54180   50.00000   50.00000   50.00000   90.00000   90.00000   90.00000
LATT -1
SFAC C  
C      1  0.4716800000000  0.4992570000000  0.5774550000000 1.0
C      1  0.4592010000000  0.5205040000000  0.5597910000000 1.0
C      1  0.4621060000000  0.5522600000000  0.5549540000000 1.0
C      1  0.4443610000000  0.4667790000000  0.5480700000000 1.0
C      1  0.4144370000000  0.5292200000000  0.4990870000000 1.0
C      1  0.5016590000000  0.5252750000000  0.4876630000000 1.0
C      1  0.5003970000000  0.5851950000000  0.4735720000000 1.0
C      1  0.4539050000000  0.4606040000000  0.4359500000000 1.0
C      1  0.5643420000000  0.4925510000000  0.5621910000000 1.0
C      1  0.5776620000000  0.4809650000000  0.5130890000000 1.0
C      1  0.5475770000000  0.4342780000000  0.5202440000000 1.0
C      1  0.4397950000000  0.4794440000000  0.5026010000000 1.0
C      1  0.5385630000000  0.4786500000000  0.4294440000000 1.0
C      1  0.4765630000000  0.4344000000000  0.5445390000000 1.0
C      1  0.5549580000000  0.4405000000000  0.4930170000000 1.0
C      1  0.5156520000000  0.4878940000000  0.5459750000000 1.0
C      1  0.5175840000000  0.4833890000000  0.5881610000000 1.0
C      1  0.4274960000000  0.5336450000000  0.5247840000000 1.0
C      1  0.4831990000000  0.4739890000000  0.4757500000000 1.0
C      1  0.4491440000000  0.5509150000000  0.5288640000000 1.0
C      1  0.5407950000000  0.4403540000000  0.4666910000000 1.0
C      1  0.5056490000000  0.4874420000000  0.4660610000000 1.0
C      1  0.5594450000000  0.5514590000000  0.4901430000000 1.0
C      1  0.5560490000000  0.5361150000000  0.5363060000000 1.0
C      1  0.4642140000000  0.4729230000000  0.5685070000000 1.0
C      1  0.4815760000000  0.5732930000000  0.4553640000000 1.0
C      1  0.5178080000000  0.5504010000000  0.4316020000000 1.0
C      1  0.5766170000000  0.5018080000000  0.4692280000000 1.0
C      1  0.5115180000000  0.4621420000000  0.5682940000000 1.0
C      1  0.5124720000000  0.4862930000000  0.5188500000000 1.0
C      1  0.5426350000000  0.5224710000000  0.5818920000000 1.0
C      1  0.4640110000000  0.5710780000000  0.4790170000000 1.0
C      1  0.4430800000000  0.4489650000000  0.5044520000000 1.0
C      1  0.5317090000000  0.4437390000000  0.5579950000000 1.0
C      1  0.5747900000000  0.4739610000000  0.4665530000000 1.0
C      1  0.4348280000000  0.5127240000000  0.5425700000000 1.0
C      1  0.4367180000000  0.4596050000000  0.4591450000000 1.0
C      1  0.5276850000000  0.5280990000000  0.5311240000000 1.0
C      1  0.5436790000000  0.5072430000000  0.4302220000000 1.0
C      1  0.5358880000000  0.5605970000000  0.4507800000000 1.0
C      1  0.4736490000000  0.4396810000000  0.4382790000000 1.0
C      1  0.5726480000000  0.5068490000000  0.4987900000000 1.0
C      1  0.4303830000000  0.5321920000000  0.4747240000000 1.0
C      1  0.5208030000000  0.5129640000000  0.5065830000000 1.0
C      1  0.5096350000000  0.5161470000000  0.5508100000000 1.0
C      1  0.4731020000000  0.5231190000000  0.4937580000000 1.0
C      1  0.4682820000000  0.4259950000000  0.4623290000000 1.0
C      1  0.4934400000000  0.4190600000000  0.4736470000000 1.0
C      1  0.5617980000000  0.5219680000000  0.5604740000000 1.0
C      1  0.5237740000000  0.4263870000000  0.5364560000000 1.0
C      1  0.4971090000000  0.4219900000000  0.5287440000000 1.0
C      1  0.4867580000000  0.4768320000000  0.5152120000000 1.0
C      1  0.5314430000000  0.4802720000000  0.4752290000000 1.0
C      1  0.5228660000000  0.5244880000000  0.4203890000000 1.0
C      1  0.5026530000000  0.4437810000000  0.4348850000000 1.0
C      1  0.5149490000000  0.5294290000000  0.5773440000000 1.0
C      1  0.5324230000000  0.5579940000000  0.5415640000000 1.0
C      1  0.5417870000000  0.4997290000000  0.4921930000000 1.0
C      1  0.5270270000000  0.5777240000000  0.4717270000000 1.0
C      1  0.4542350000000  0.5448740000000  0.4794460000000 1.0
C      1  0.4970610000000  0.5136710000000  0.4146020000000 1.0
C      1  0.5126980000000  0.4675480000000  0.4213980000000 1.0
C      1  0.3924120000000  0.5119430000000  0.4930920000000 1.0
C      1  0.4516070000000  0.4439710000000  0.5320510000000 1.0
C      1  0.4841380000000  0.4525380000000  0.5654310000000 1.0
C      1  0.4736010000000  0.5350760000000  0.5189720000000 1.0
C      1  0.4962740000000  0.5787900000000  0.5231400000000 1.0
C      1  0.4924740000000  0.4266360000000  0.5010440000000 1.0
C      1  0.5399150000000  0.5718930000000  0.4961620000000 1.0
C      1  0.4910770000000  0.4863030000000  0.4148210000000 1.0
C      1  0.5157320000000  0.4301130000000  0.4570200000000 1.0
C      1  0.5249910000000  0.5750940000000  0.5204930000000 1.0
C      1  0.4638220000000  0.4846890000000  0.4253240000000 1.0
C      1  0.4838730000000  0.5831500000000  0.4975840000000 1.0
C      1  0.4542670000000  0.5103160000000  0.4350690000000 1.0
C      1  0.5439510000000  0.4933950000000  0.5831000000000 1.0
C      1  0.4324350000000  0.4866030000000  0.5321760000000 1.0
C      1  0.5615720000000  0.5181800000000  0.4509250000000 1.0
C      1  0.4819500000000  0.5203490000000  0.5413970000000 1.0
C      1  0.4880230000000  0.5663030000000  0.5502870000000 1.0
C      1  0.4679740000000  0.4918400000000  0.4959420000000 1.0
C      1  0.5035620000000  0.5148220000000  0.4628740000000 1.0
C      1  0.4348210000000  0.5100190000000  0.4564310000000 1.0
C      1  0.4760140000000  0.5291460000000  0.4268280000000 1.0
C      1  0.5563810000000  0.5440730000000  0.4617560000000 1.0
C      1  0.3960400000000  0.4911380000000  0.4785000000000 1.0
C      1  0.4254300000000  0.4838780000000  0.4712480000000 1.0
C      1  0.4981490000000  0.5046720000000  0.5879320000000 1.0
C      1  0.5709410000000  0.4744610000000  0.5408950000000 1.0
C      1  0.4459070000000  0.4391980000000  0.4770410000000 1.0
C      1  0.4889650000000  0.5540560000000  0.4356530000000 1.0
C      1  0.5503580000000  0.4654580000000  0.4534720000000 1.0
C      1  0.5701460000000  0.5343680000000  0.5097540000000 1.0
C      1  0.5119650000000  0.5571590000000  0.5626630000000 1.0
C      1  0.4911830000000  0.4550570000000  0.4972070000000 1.0
C      1  0.5740530000000  0.4617120000000  0.4923040000000 1.0
C      1  0.5560250000000  0.4504850000000  0.5428340000000 1.0
END
