TITL C-65438-8042-8 1.02212653440878 125000 -524.056033351927 0 0 76 (C1) n - 1
REM
REM in /rds/project/t2_vol4/rds-t2-cs072/BORA/CARBON/from-Arr/AIRSS/Generating-Clusters/GAP-ML-2020/Higher-Symm/SD-CG/HFTN-CG
REM
REM
REM
REM
REM
REM ./C.cell (b20cbc046b6831c77cfcea5457e17084)
REM AIRSS Version 0.9.1 bugfix July 2018 build 013d7b7c2542+ Fri, 06 Jul 2018 19:26:36 +0100
REM compiler GCC version 9.3.0
REM options -cpp -mtune=generic -march=x86-64 -g -O0
REM seed 177305096 -342603374 1561355033 1774017862 1903624749 482626927 -1976097378 -1850200826 -1793646807 1902346017 1673297289 -1481025099 -903537112 153034336 -1523782948 -1162911394 -832334530 -102985874 1155473146 1480394098 1331647996 1931902201 1222026051 -1285177274 -436320750 -1855887201 -1492465530 -1318910421 1716553888 -1489339724 1375828573 1103963555 748241007
REM
CELL 1.54180   50.00000   50.00000   50.00000   90.00000   90.00000   90.00000
LATT -1
SFAC C  
C      1  0.4993580000000  0.5702560000000  0.4619170000000 1.0
C      1  0.5018370000000  0.4305920000000  0.4585530000000 1.0
C      1  0.4959900000000  0.4982340000000  0.5770900000000 1.0
C      1  0.4629800000000  0.5369100000000  0.5474350000000 1.0
C      1  0.4744490000000  0.5231510000000  0.4482670000000 1.0
C      1  0.4744200000000  0.4420730000000  0.5060670000000 1.0
C      1  0.4343890000000  0.4824350000000  0.5251650000000 1.0
C      1  0.4353030000000  0.5296390000000  0.4946110000000 1.0
C      1  0.4445890000000  0.4784990000000  0.4644690000000 1.0
C      1  0.5835870000000  0.5125540000000  0.4908530000000 1.0
C      1  0.5796410000000  0.4853820000000  0.4883570000000 1.0
C      1  0.5838200000000  0.4948000000000  0.5137020000000 1.0
C      1  0.4728210000000  0.4839100000000  0.4772970000000 1.0
C      1  0.4642660000000  0.4851020000000  0.5248550000000 1.0
C      1  0.4647760000000  0.5273680000000  0.4985110000000 1.0
C      1  0.5172400000000  0.4734800000000  0.4348080000000 1.0
C      1  0.5165170000000  0.4570320000000  0.5570870000000 1.0
C      1  0.5132830000000  0.5708680000000  0.5104160000000 1.0
C      1  0.5159220000000  0.5404110000000  0.5746750000000 1.0
C      1  0.5224760000000  0.5468730000000  0.4293790000000 1.0
C      1  0.5232100000000  0.4148850000000  0.4971940000000 1.0
C      1  0.4898880000000  0.4808500000000  0.4327910000000 1.0
C      1  0.4890970000000  0.4511230000000  0.5506460000000 1.0
C      1  0.4851730000000  0.5675380000000  0.5171560000000 1.0
C      1  0.4319590000000  0.5024760000000  0.4563880000000 1.0
C      1  0.4242420000000  0.4646670000000  0.5072640000000 1.0
C      1  0.4208440000000  0.5254360000000  0.5175560000000 1.0
C      1  0.5220820000000  0.5675080000000  0.4828290000000 1.0
C      1  0.5232170000000  0.4507620000000  0.4519510000000 1.0
C      1  0.5213450000000  0.4838180000000  0.5663930000000 1.0
C      1  0.4366830000000  0.4570760000000  0.4839150000000 1.0
C      1  0.4282000000000  0.5079900000000  0.5376470000000 1.0
C      1  0.4339180000000  0.5285360000000  0.4656150000000 1.0
C      1  0.5446590000000  0.5515950000000  0.4742870000000 1.0
C      1  0.5426630000000  0.4530550000000  0.4722490000000 1.0
C      1  0.5427190000000  0.5014710000000  0.5573150000000 1.0
C      1  0.4986860000000  0.5236800000000  0.5863850000000 1.0
C      1  0.5064940000000  0.5684190000000  0.4347390000000 1.0
C      1  0.5091160000000  0.4086080000000  0.4747210000000 1.0
C      1  0.4703790000000  0.4724730000000  0.5510520000000 1.0
C      1  0.4693570000000  0.5567030000000  0.4965070000000 1.0
C      1  0.4718570000000  0.4676920000000  0.4515350000000 1.0
C      1  0.5465970000000  0.4486770000000  0.5186420000000 1.0
C      1  0.5456190000000  0.5451500000000  0.5403060000000 1.0
C      1  0.5464560000000  0.5135400000000  0.4477810000000 1.0
C      1  0.5135000000000  0.4200570000000  0.5256740000000 1.0
C      1  0.5063340000000  0.5617740000000  0.5571200000000 1.0
C      1  0.5138480000000  0.5192660000000  0.4198510000000 1.0
C      1  0.5397070000000  0.4767290000000  0.5125880000000 1.0
C      1  0.5547240000000  0.5276630000000  0.5202300000000 1.0
C      1  0.5393020000000  0.5064330000000  0.4753010000000 1.0
C      1  0.5096540000000  0.5116200000000  0.4838530000000 1.0
C      1  0.5086000000000  0.4806250000000  0.5088870000000 1.0
C      1  0.5001240000000  0.5197300000000  0.5324130000000 1.0
C      1  0.4580120000000  0.4375220000000  0.4833240000000 1.0
C      1  0.4495120000000  0.5151310000000  0.5584350000000 1.0
C      1  0.4561390000000  0.5439020000000  0.4539780000000 1.0
C      1  0.4812220000000  0.5117560000000  0.4755710000000 1.0
C      1  0.4807100000000  0.4714860000000  0.5033400000000 1.0
C      1  0.4723820000000  0.5160900000000  0.5251160000000 1.0
C      1  0.5431720000000  0.4345730000000  0.4938590000000 1.0
C      1  0.5393620000000  0.5291670000000  0.5632620000000 1.0
C      1  0.5435450000000  0.5418390000000  0.4474170000000 1.0
C      1  0.4684910000000  0.4934920000000  0.5687300000000 1.0
C      1  0.4716650000000  0.5635480000000  0.4693120000000 1.0
C      1  0.4748930000000  0.4406790000000  0.4597160000000 1.0
C      1  0.5500860000000  0.4793830000000  0.4839840000000 1.0
C      1  0.5548280000000  0.4986720000000  0.5296290000000 1.0
C      1  0.5564180000000  0.5287060000000  0.4910490000000 1.0
C      1  0.4804840000000  0.5599330000000  0.5450860000000 1.0
C      1  0.4881790000000  0.5096370000000  0.4278370000000 1.0
C      1  0.4877360000000  0.4315000000000  0.5288800000000 1.0
C      1  0.5315660000000  0.4381550000000  0.5397760000000 1.0
C      1  0.5258310000000  0.5648900000000  0.5360150000000 1.0
C      1  0.5320170000000  0.4986960000000  0.4288510000000 1.0
C      1  0.5090730000000  0.5078480000000  0.5109330000000 1.0
END
