TITL C-65794-1282-5 -0.138904790875968 125000 -869.186462280811 0 0 125 (C1) n - 1
REM
REM in /rds/project/t2_vol4/rds-t2-cs072/BORA/CARBON/from-Arr/AIRSS/Generating-Clusters/GAP-ML-2020/Higher-Symm/SD-CG/HFTN-CG
REM
REM
REM
REM
REM
REM ./C.cell (b20cbc046b6831c77cfcea5457e17084)
REM AIRSS Version 0.9.1 bugfix July 2018 build 013d7b7c2542+ Fri, 06 Jul 2018 19:26:36 +0100
REM compiler GCC version 9.3.0
REM options -cpp -mtune=generic -march=x86-64 -g -O0
REM seed 906923530 -1761691341 -2125391418 220848190 -119038278 1080365286 932403013 1587086622 -520118627 -74929407 898278022 647139353 -837421386 -156536574 -1385838096 293847299 -1217153739 -1173910349 1694095042 322641070 1102678995 1098032781 2080279568 -1558637723 -542707358 -1441874112 -1969592709 1780143959 -1001223833 290313232 -636450546 -141104988 1111200335
REM
CELL 1.54180   50.00000   50.00000   50.00000   90.00000   90.00000   90.00000
LATT -1
SFAC C  
C      1  0.5200970000000  0.4368590000000  0.5543730000000 1.0
C      1  0.4434340000000  0.4367470000000  0.4906060000000 1.0
C      1  0.5362420000000  0.4371770000000  0.4561130000000 1.0
C      1  0.5317800000000  0.5196760000000  0.3982440000000 1.0
C      1  0.5744430000000  0.5190500000000  0.5791810000000 1.0
C      1  0.3936290000000  0.5195070000000  0.5227990000000 1.0
C      1  0.4612790000000  0.5344170000000  0.5104040000000 1.0
C      1  0.4976120000000  0.5302470000000  0.4554240000000 1.0
C      1  0.5363260000000  0.5291300000000  0.5162310000000 1.0
C      1  0.4569270000000  0.5615700000000  0.5247810000000 1.0
C      1  0.4974080000000  0.5607680000000  0.4501900000000 1.0
C      1  0.5431100000000  0.5592350000000  0.5237260000000 1.0
C      1  0.4444830000000  0.4937610000000  0.5010810000000 1.0
C      1  0.5264480000000  0.4940090000000  0.4515330000000 1.0
C      1  0.5309770000000  0.4942110000000  0.5494890000000 1.0
C      1  0.4730760000000  0.4514390000000  0.5745950000000 1.0
C      1  0.4485190000000  0.4494930000000  0.4392160000000 1.0
C      1  0.5781200000000  0.4497310000000  0.4858430000000 1.0
C      1  0.5583350000000  0.5527830000000  0.4785620000000 1.0
C      1  0.4893930000000  0.5527970000000  0.5638540000000 1.0
C      1  0.4474460000000  0.5547960000000  0.4602870000000 1.0
C      1  0.4997070000000  0.4850640000000  0.3970660000000 1.0
C      1  0.5898280000000  0.4841080000000  0.5512520000000 1.0
C      1  0.4103220000000  0.4848950000000  0.5510410000000 1.0
C      1  0.5409330000000  0.5514580000000  0.5731550000000 1.0
C      1  0.4162780000000  0.5523190000000  0.4978730000000 1.0
C      1  0.5414230000000  0.5518490000000  0.4299530000000 1.0
C      1  0.5765790000000  0.5493020000000  0.5218540000000 1.0
C      1  0.4431450000000  0.5501640000000  0.5534810000000 1.0
C      1  0.4789420000000  0.5505260000000  0.4235240000000 1.0
C      1  0.5795430000000  0.5444020000000  0.4939720000000 1.0
C      1  0.4642280000000  0.5448000000000  0.5715060000000 1.0
C      1  0.4534110000000  0.5447270000000  0.4349290000000 1.0
C      1  0.4822900000000  0.5289080000000  0.4028180000000 1.0
C      1  0.5938370000000  0.5280910000000  0.5340770000000 1.0
C      1  0.4236570000000  0.5289840000000  0.5616060000000 1.0
C      1  0.4487070000000  0.5101220000000  0.5260400000000 1.0
C      1  0.4992030000000  0.5069330000000  0.4400860000000 1.0
C      1  0.5517700000000  0.5070310000000  0.5289710000000 1.0
C      1  0.5994910000000  0.5086100000000  0.5140020000000 1.0
C      1  0.4371240000000  0.5099210000000  0.5781850000000 1.0
C      1  0.4621410000000  0.5094060000000  0.4069720000000 1.0
C      1  0.4915320000000  0.4515240000000  0.4849560000000 1.0
C      1  0.5167450000000  0.4519840000000  0.5008410000000 1.0
C      1  0.4894740000000  0.4515240000000  0.5148160000000 1.0
C      1  0.5672270000000  0.5458410000000  0.5753890000000 1.0
C      1  0.3993440000000  0.5468970000000  0.5178440000000 1.0
C      1  0.5314980000000  0.5467230000000  0.4050960000000 1.0
C      1  0.4154260000000  0.4663650000000  0.5297230000000 1.0
C      1  0.5161310000000  0.4673200000000  0.4125910000000 1.0
C      1  0.5689650000000  0.4656400000000  0.5584780000000 1.0
C      1  0.4379340000000  0.5107590000000  0.4762490000000 1.0
C      1  0.5488840000000  0.5125930000000  0.4619330000000 1.0
C      1  0.5124470000000  0.5116120000000  0.5679450000000 1.0
C      1  0.5206690000000  0.4601490000000  0.5722840000000 1.0
C      1  0.4275450000000  0.4598020000000  0.4816120000000 1.0
C      1  0.5515100000000  0.4607580000000  0.4472690000000 1.0
C      1  0.4891690000000  0.4244030000000  0.4738160000000 1.0
C      1  0.5281200000000  0.4248710000000  0.5044040000000 1.0
C      1  0.4825100000000  0.4242700000000  0.5230020000000 1.0
C      1  0.4851000000000  0.4987420000000  0.5719890000000 1.0
C      1  0.4448990000000  0.4968860000000  0.4506140000000 1.0
C      1  0.5691350000000  0.4972170000000  0.4778880000000 1.0
C      1  0.5913580000000  0.5115910000000  0.5584690000000 1.0
C      1  0.4036670000000  0.5122950000000  0.5475660000000 1.0
C      1  0.5052610000000  0.5127410000000  0.3927950000000 1.0
C      1  0.4998660000000  0.5292130000000  0.5508860000000 1.0
C      1  0.4523700000000  0.5341220000000  0.4805690000000 1.0
C      1  0.5363420000000  0.5296010000000  0.4844850000000 1.0
C      1  0.5316100000000  0.5244180000000  0.5850460000000 1.0
C      1  0.4130790000000  0.5240150000000  0.4839750000000 1.0
C      1  0.5550370000000  0.5256010000000  0.4362280000000 1.0
C      1  0.5071000000000  0.5224310000000  0.4809700000000 1.0
C      1  0.5071470000000  0.5209050000000  0.5234700000000 1.0
C      1  0.4866500000000  0.5213790000000  0.5025870000000 1.0
C      1  0.4725970000000  0.4637490000000  0.4279790000000 1.0
C      1  0.5757420000000  0.4633880000000  0.5124630000000 1.0
C      1  0.4513170000000  0.4654460000000  0.5592790000000 1.0
C      1  0.5473570000000  0.4241290000000  0.4801880000000 1.0
C      1  0.4935620000000  0.4241020000000  0.5517370000000 1.0
C      1  0.4588190000000  0.4235270000000  0.4690770000000 1.0
C      1  0.4851190000000  0.5755250000000  0.5251750000000 1.0
C      1  0.4843870000000  0.5758340000000  0.4746170000000 1.0
C      1  0.5283240000000  0.5753020000000  0.5004350000000 1.0
C      1  0.4558420000000  0.5757210000000  0.4774420000000 1.0
C      1  0.5401340000000  0.5733770000000  0.4742700000000 1.0
C      1  0.5019650000000  0.5723020000000  0.5479730000000 1.0
C      1  0.4942190000000  0.4701580000000  0.5792510000000 1.0
C      1  0.4339930000000  0.4688450000000  0.4548770000000 1.0
C      1  0.5714280000000  0.4695500000000  0.4658790000000 1.0
C      1  0.4757520000000  0.4871890000000  0.4491270000000 1.0
C      1  0.5556440000000  0.4868060000000  0.5053730000000 1.0
C      1  0.4677800000000  0.4898830000000  0.5454530000000 1.0
C      1  0.4993890000000  0.4496990000000  0.4277830000000 1.0
C      1  0.5632430000000  0.4487680000000  0.5358960000000 1.0
C      1  0.4379880000000  0.4501570000000  0.5367670000000 1.0
C      1  0.5122540000000  0.4905030000000  0.5263100000000 1.0
C      1  0.4742280000000  0.4912470000000  0.4990620000000 1.0
C      1  0.5136320000000  0.4911380000000  0.4778800000000 1.0
C      1  0.5306630000000  0.5663900000000  0.5497390000000 1.0
C      1  0.4397670000000  0.5715620000000  0.5019670000000 1.0
C      1  0.5265790000000  0.5683870000000  0.4490380000000 1.0
C      1  0.4775640000000  0.4240550000000  0.5744330000000 1.0
C      1  0.4466360000000  0.4223750000000  0.4441160000000 1.0
C      1  0.5750960000000  0.4226150000000  0.4815240000000 1.0
C      1  0.5451320000000  0.4774530000000  0.5715080000000 1.0
C      1  0.4165870000000  0.4776910000000  0.5025790000000 1.0
C      1  0.5390720000000  0.4789720000000  0.4276890000000 1.0
C      1  0.4524200000000  0.4340510000000  0.5177920000000 1.0
C      1  0.5086620000000  0.4335040000000  0.4496220000000 1.0
C      1  0.5393120000000  0.4330770000000  0.5333920000000 1.0
C      1  0.4727110000000  0.4828180000000  0.4049270000000 1.0
C      1  0.5959330000000  0.4820890000000  0.5239550000000 1.0
C      1  0.4304310000000  0.4832500000000  0.5706410000000 1.0
C      1  0.4867530000000  0.4785140000000  0.4756750000000 1.0
C      1  0.5266870000000  0.4794100000000  0.5020820000000 1.0
C      1  0.4852650000000  0.4787480000000  0.5240470000000 1.0
C      1  0.5885770000000  0.5169610000000  0.4894330000000 1.0
C      1  0.4637990000000  0.5176100000000  0.5822310000000 1.0
C      1  0.4454740000000  0.5173260000000  0.4285510000000 1.0
C      1  0.5522040000000  0.5038940000000  0.5869140000000 1.0
C      1  0.4004750000000  0.5040220000000  0.5002400000000 1.0
C      1  0.5484310000000  0.5055650000000  0.4160220000000 1.0
C      1  0.5000610000000  0.4117890000000  0.5004210000000 1.0
C      1  0.4993260000000  0.5783450000000  0.4998250000000 1.0
END
