TITL C-65453-5229-5 -332.319035601316 125000 -764.040337214797 0 0 107 (C1) n - 1
REM
REM in /rds/project/t2_vol4/rds-t2-cs072/BORA/CARBON/from-Arr/AIRSS/Generating-Clusters/GAP-ML-2020/Higher-Symm/SD-CG/HFTN-CG
REM
REM
REM
REM
REM
REM ./C.cell (b20cbc046b6831c77cfcea5457e17084)
REM AIRSS Version 0.9.1 bugfix July 2018 build 013d7b7c2542+ Fri, 06 Jul 2018 19:26:36 +0100
REM compiler GCC version 9.3.0
REM options -cpp -mtune=generic -march=x86-64 -g -O0
REM seed -2052694525 342348927 -2031777659 -1756666942 -865581812 -67896820 1831008492 49070092 102432129 -714574178 -456711602 1820365163 -1125402194 752511621 -1848645932 -500351710 2005708648 1417514625 -92188209 175263302 -448515981 -1021844169 1807114345 437251217 -1092352705 2005644941 1945525630 1555361486 662923116 -322586695 1761507637 1104543193 -2143659020
REM
CELL 1.54180   50.00000   50.00000   50.00000   90.00000   90.00000   90.00000
LATT -1
SFAC C  
C      1  0.4737840000000  0.4734440000000  0.4758850000000 1.0
C      1  0.4714700000000  0.5131960000000  0.5159410000000 1.0
C      1  0.4724550000000  0.4875700000000  0.5249780000000 1.0
C      1  0.4635280000000  0.4967710000000  0.4709790000000 1.0
C      1  0.5646500000000  0.5161640000000  0.4274400000000 1.0
C      1  0.5684820000000  0.4854330000000  0.5778260000000 1.0
C      1  0.5684760000000  0.5152480000000  0.5778810000000 1.0
C      1  0.5647410000000  0.4853060000000  0.4273230000000 1.0
C      1  0.5676550000000  0.5347070000000  0.5567010000000 1.0
C      1  0.5671080000000  0.4634720000000  0.4480720000000 1.0
C      1  0.5671960000000  0.5377420000000  0.4483190000000 1.0
C      1  0.5675830000000  0.4660730000000  0.5565600000000 1.0
C      1  0.4197770000000  0.4705930000000  0.4626260000000 1.0
C      1  0.4229650000000  0.5305800000000  0.5354710000000 1.0
C      1  0.4238870000000  0.4714330000000  0.5348870000000 1.0
C      1  0.4193290000000  0.5310910000000  0.4626800000000 1.0
C      1  0.5062910000000  0.5615240000000  0.4477760000000 1.0
C      1  0.5069910000000  0.4375020000000  0.5512820000000 1.0
C      1  0.5070640000000  0.5636950000000  0.5518010000000 1.0
C      1  0.5057590000000  0.4392730000000  0.4468560000000 1.0
C      1  0.4098150000000  0.5157320000000  0.4844920000000 1.0
C      1  0.4127830000000  0.4865900000000  0.5138300000000 1.0
C      1  0.4117090000000  0.5156750000000  0.5141570000000 1.0
C      1  0.4110690000000  0.4864480000000  0.4844630000000 1.0
C      1  0.5276500000000  0.4309880000000  0.4641990000000 1.0
C      1  0.5329340000000  0.5694210000000  0.5411890000000 1.0
C      1  0.5329190000000  0.4315230000000  0.5407690000000 1.0
C      1  0.5280660000000  0.5701880000000  0.4649880000000 1.0
C      1  0.5187440000000  0.4847270000000  0.4679200000000 1.0
C      1  0.5205320000000  0.5167300000000  0.5324040000000 1.0
C      1  0.5205170000000  0.4844010000000  0.5322840000000 1.0
C      1  0.5180340000000  0.5158370000000  0.4674370000000 1.0
C      1  0.5453910000000  0.5163780000000  0.4871280000000 1.0
C      1  0.5438590000000  0.4700770000000  0.5140440000000 1.0
C      1  0.5439420000000  0.5309930000000  0.5141630000000 1.0
C      1  0.5456880000000  0.4847280000000  0.4872120000000 1.0
C      1  0.4553110000000  0.5537170000000  0.4424580000000 1.0
C      1  0.4585180000000  0.4469750000000  0.5540940000000 1.0
C      1  0.4583660000000  0.5545420000000  0.5546850000000 1.0
C      1  0.4545220000000  0.4470020000000  0.4409610000000 1.0
C      1  0.4733100000000  0.5812120000000  0.4750010000000 1.0
C      1  0.4753140000000  0.4210940000000  0.5187660000000 1.0
C      1  0.4752820000000  0.5805540000000  0.5196660000000 1.0
C      1  0.4730210000000  0.4200040000000  0.4738590000000 1.0
C      1  0.4389930000000  0.4468250000000  0.5332500000000 1.0
C      1  0.4357810000000  0.5553400000000  0.4634630000000 1.0
C      1  0.4354500000000  0.4460100000000  0.4626750000000 1.0
C      1  0.4383100000000  0.5553750000000  0.5341960000000 1.0
C      1  0.5227800000000  0.4853900000000  0.6044270000000 1.0
C      1  0.5174770000000  0.5153710000000  0.3980860000000 1.0
C      1  0.5174640000000  0.4862170000000  0.3979010000000 1.0
C      1  0.5227880000000  0.5151800000000  0.6045130000000 1.0
C      1  0.5511400000000  0.4849600000000  0.6010150000000 1.0
C      1  0.5457150000000  0.5157910000000  0.4058170000000 1.0
C      1  0.5456670000000  0.4858020000000  0.4057550000000 1.0
C      1  0.5511790000000  0.5155970000000  0.6011190000000 1.0
C      1  0.4810610000000  0.4306670000000  0.5456490000000 1.0
C      1  0.4791950000000  0.5693910000000  0.4497770000000 1.0
C      1  0.4785970000000  0.4316290000000  0.4485360000000 1.0
C      1  0.4810520000000  0.5709190000000  0.5464260000000 1.0
C      1  0.4977400000000  0.5255820000000  0.4863090000000 1.0
C      1  0.4963370000000  0.4772900000000  0.5157520000000 1.0
C      1  0.4980840000000  0.5249750000000  0.5154230000000 1.0
C      1  0.4982130000000  0.4745540000000  0.4873700000000 1.0
C      1  0.5359740000000  0.4380570000000  0.5132520000000 1.0
C      1  0.5207300000000  0.5764230000000  0.4929600000000 1.0
C      1  0.5205430000000  0.4247550000000  0.4922570000000 1.0
C      1  0.5359720000000  0.5627590000000  0.5137110000000 1.0
C      1  0.4488430000000  0.4300340000000  0.5116780000000 1.0
C      1  0.4472630000000  0.5723680000000  0.4838540000000 1.0
C      1  0.4472490000000  0.4293660000000  0.4829430000000 1.0
C      1  0.4486430000000  0.5720540000000  0.5126460000000 1.0
C      1  0.5939230000000  0.4855350000000  0.4873010000000 1.0
C      1  0.5920390000000  0.5154180000000  0.5160730000000 1.0
C      1  0.5920520000000  0.4854790000000  0.5160000000000 1.0
C      1  0.5937370000000  0.5154770000000  0.4874100000000 1.0
C      1  0.5105760000000  0.5340080000000  0.4414860000000 1.0
C      1  0.5178860000000  0.4650190000000  0.5599390000000 1.0
C      1  0.5179690000000  0.5361610000000  0.5603870000000 1.0
C      1  0.5106330000000  0.4665900000000  0.4405950000000 1.0
C      1  0.4346790000000  0.4865930000000  0.5571150000000 1.0
C      1  0.4289760000000  0.5150240000000  0.4404730000000 1.0
C      1  0.4285540000000  0.4862620000000  0.4397690000000 1.0
C      1  0.4345500000000  0.5148350000000  0.5571680000000 1.0
C      1  0.4569480000000  0.4720730000000  0.5684620000000 1.0
C      1  0.4509180000000  0.5290570000000  0.4281830000000 1.0
C      1  0.4502990000000  0.4718450000000  0.4270930000000 1.0
C      1  0.4569280000000  0.5289520000000  0.5684150000000 1.0
C      1  0.5709980000000  0.5298940000000  0.5284100000000 1.0
C      1  0.5718410000000  0.4744950000000  0.4740630000000 1.0
C      1  0.5715850000000  0.5265690000000  0.4742720000000 1.0
C      1  0.5710070000000  0.4709830000000  0.5283100000000 1.0
C      1  0.5502600000000  0.4424980000000  0.4535580000000 1.0
C      1  0.5449690000000  0.5505540000000  0.5597630000000 1.0
C      1  0.5448570000000  0.4503120000000  0.5594230000000 1.0
C      1  0.5505360000000  0.5586310000000  0.4544700000000 1.0
C      1  0.5050420000000  0.4746380000000  0.5844730000000 1.0
C      1  0.4985770000000  0.5254780000000  0.4166160000000 1.0
C      1  0.4984150000000  0.4754430000000  0.4161430000000 1.0
C      1  0.5050800000000  0.5262660000000  0.5848460000000 1.0
C      1  0.4718070000000  0.5145770000000  0.4160320000000 1.0
C      1  0.4784440000000  0.4860660000000  0.5809630000000 1.0
C      1  0.4784620000000  0.5147140000000  0.5808770000000 1.0
C      1  0.4714870000000  0.4861570000000  0.4153710000000 1.0
C      1  0.4922650000000  0.5838740000000  0.4964150000000 1.0
C      1  0.4920350000000  0.4172720000000  0.4953560000000 1.0
C      1  0.4697540000000  0.5179810000000  0.4861180000000 1.0
END
