TITL C-65804-1183-2 0.0298053470712399 125000 -107.219248553953 0 0 16 (D2h) n - 1
REM
REM in /rds/project/t2_vol4/rds-t2-cs072/BORA/CARBON/from-Arr/AIRSS/Generating-Clusters/GAP-ML-2020/Higher-Symm/SD-CG/HFTN-CG
REM
REM
REM
REM
REM
REM ./C.cell (b20cbc046b6831c77cfcea5457e17084)
REM AIRSS Version 0.9.1 bugfix July 2018 build 013d7b7c2542+ Fri, 06 Jul 2018 19:26:36 +0100
REM compiler GCC version 9.3.0
REM options -cpp -mtune=generic -march=x86-64 -g -O0
REM seed 388765855 -362194064 -1096730657 -122438580 -1416926209 -1558120927 1793930958 1459328713 -1378124468 206715034 -2033472973 111212203 -593835892 -1111619319 806182795 36802614 1192427825 -350971826 -1216651388 -280186826 879097399 1025180927 333882336 1630069494 1650155129 -825261420 283180743 -905555519 643349054 1369341078 -558982930 -184188094 983293244
REM
CELL 1.54180   50.00000   50.00000   50.00000   90.00000   90.00000   90.00000
LATT -1
SFAC C  
C      1  0.4630430000000  0.4998920000000  0.4525800000000 1.0
C      1  0.5625080000000  0.5002000000000  0.4667350000000 1.0
C      1  0.5369570000000  0.5001080000000  0.5474200000000 1.0
C      1  0.4374920000000  0.4998000000000  0.5332650000000 1.0
C      1  0.5114030000000  0.5000280000000  0.5499300000000 1.0
C      1  0.4238990000000  0.4997610000000  0.5109260000000 1.0
C      1  0.4885970000000  0.4999720000000  0.4500700000000 1.0
C      1  0.5761010000000  0.5002390000000  0.4890740000000 1.0
C      1  0.5395630000000  0.5001310000000  0.4547310000000 1.0
C      1  0.5605400000000  0.5001830000000  0.5367250000000 1.0
C      1  0.4604370000000  0.4998690000000  0.5452690000000 1.0
C      1  0.4394600000000  0.4998170000000  0.4632750000000 1.0
C      1  0.5753670000000  0.5002330000000  0.5151850000000 1.0
C      1  0.4858090000000  0.4999480000000  0.5492100000000 1.0
C      1  0.4246330000000  0.4997670000000  0.4848150000000 1.0
C      1  0.5141910000000  0.5000520000000  0.4507900000000 1.0
END
