TITL C-65460-9300-10 0.00457017941162287 125000 -571.140842479927 0 0 81 (C1) n - 1
REM
REM in /rds/project/t2_vol4/rds-t2-cs072/BORA/CARBON/from-Arr/AIRSS/Generating-Clusters/GAP-ML-2020/Higher-Symm/SD-CG/HFTN-CG
REM
REM
REM
REM
REM
REM ./C.cell (b20cbc046b6831c77cfcea5457e17084)
REM AIRSS Version 0.9.1 bugfix July 2018 build 013d7b7c2542+ Fri, 06 Jul 2018 19:26:36 +0100
REM compiler GCC version 9.3.0
REM options -cpp -mtune=generic -march=x86-64 -g -O0
REM seed 435942383 1285622640 -589790030 -1429334348 -1870195087 167841240 -130101943 -992710845 557896500 1733012968 -776291884 -1323435825 -1779258212 1098204250 -1856276341 -1967506010 -1551169120 1201481870 -985949618 902939942 -1378861241 1537777288 238285321 1088603255 -1532808778 710195770 72371732 1207403048 -590510101 1599695229 -1204583156 -1598684407 705543710
REM
CELL 1.54180   50.00000   50.00000   50.00000   90.00000   90.00000   90.00000
LATT -1
SFAC C  
C      1  0.4806920000000  0.4833080000000  0.4178780000000 1.0
C      1  0.4375020000000  0.4773510000000  0.4384370000000 1.0
C      1  0.4156140000000  0.4773560000000  0.4829630000000 1.0
C      1  0.4223480000000  0.4840890000000  0.5316820000000 1.0
C      1  0.4533200000000  0.4777860000000  0.5704960000000 1.0
C      1  0.4948550000000  0.4728720000000  0.5900420000000 1.0
C      1  0.5383610000000  0.4687680000000  0.5729100000000 1.0
C      1  0.5765200000000  0.4780070000000  0.5412220000000 1.0
C      1  0.5877710000000  0.4798940000000  0.4929340000000 1.0
C      1  0.5690200000000  0.4869490000000  0.4476830000000 1.0
C      1  0.5267130000000  0.4919360000000  0.4253940000000 1.0
C      1  0.5712820000000  0.5461890000000  0.5127630000000 1.0
C      1  0.5689860000000  0.5480550000000  0.4833170000000 1.0
C      1  0.5504480000000  0.5516560000000  0.4634690000000 1.0
C      1  0.4828650000000  0.5503540000000  0.4369170000000 1.0
C      1  0.4563260000000  0.5446060000000  0.4416280000000 1.0
C      1  0.4356390000000  0.5426820000000  0.4627850000000 1.0
C      1  0.4346570000000  0.5449900000000  0.4916870000000 1.0
C      1  0.4534860000000  0.5491240000000  0.5131490000000 1.0
C      1  0.4977950000000  0.5559050000000  0.5380170000000 1.0
C      1  0.5267300000000  0.5544550000000  0.5464070000000 1.0
C      1  0.5547320000000  0.5481990000000  0.5364700000000 1.0
C      1  0.4323070000000  0.5046820000000  0.4347830000000 1.0
C      1  0.4108230000000  0.5052410000000  0.4794240000000 1.0
C      1  0.4223240000000  0.5140000000000  0.5262470000000 1.0
C      1  0.4602550000000  0.5275850000000  0.5556220000000 1.0
C      1  0.4999120000000  0.5303800000000  0.5777090000000 1.0
C      1  0.5434510000000  0.5186360000000  0.5706660000000 1.0
C      1  0.5811400000000  0.5072250000000  0.5403330000000 1.0
C      1  0.5928130000000  0.5079210000000  0.4929100000000 1.0
C      1  0.5710960000000  0.5150440000000  0.4489370000000 1.0
C      1  0.5260990000000  0.5210820000000  0.4272940000000 1.0
C      1  0.4777710000000  0.5112490000000  0.4163310000000 1.0
C      1  0.4607710000000  0.4992870000000  0.5050680000000 1.0
C      1  0.4773770000000  0.4926640000000  0.5260720000000 1.0
C      1  0.4722340000000  0.4992480000000  0.5557130000000 1.0
C      1  0.4981640000000  0.5008750000000  0.5724740000000 1.0
C      1  0.5259190000000  0.4952390000000  0.5601850000000 1.0
C      1  0.5237550000000  0.4942920000000  0.5299100000000 1.0
C      1  0.5417350000000  0.5006760000000  0.5106130000000 1.0
C      1  0.5366050000000  0.5102370000000  0.4868430000000 1.0
C      1  0.5106280000000  0.5211160000000  0.4829640000000 1.0
C      1  0.4934560000000  0.4978360000000  0.4756590000000 1.0
C      1  0.4663620000000  0.5006560000000  0.4790730000000 1.0
C      1  0.4679590000000  0.4663010000000  0.5910050000000 1.0
C      1  0.5186810000000  0.4587930000000  0.5891050000000 1.0
C      1  0.5637800000000  0.4671140000000  0.5627430000000 1.0
C      1  0.5764560000000  0.4655870000000  0.5149370000000 1.0
C      1  0.5753970000000  0.4703770000000  0.4695460000000 1.0
C      1  0.5450560000000  0.4758680000000  0.4385630000000 1.0
C      1  0.5052270000000  0.4736130000000  0.4255220000000 1.0
C      1  0.4626450000000  0.4671160000000  0.4319940000000 1.0
C      1  0.4304260000000  0.4645300000000  0.4623080000000 1.0
C      1  0.4246550000000  0.4669320000000  0.5076280000000 1.0
C      1  0.4299580000000  0.4755830000000  0.5564100000000 1.0
C      1  0.5130530000000  0.4246580000000  0.5210700000000 1.0
C      1  0.5371010000000  0.4312460000000  0.5167750000000 1.0
C      1  0.5562600000000  0.4463110000000  0.5041460000000 1.0
C      1  0.5542640000000  0.4516670000000  0.4755690000000 1.0
C      1  0.5331090000000  0.4547120000000  0.4554650000000 1.0
C      1  0.5046110000000  0.4524300000000  0.4476910000000 1.0
C      1  0.4750600000000  0.4500170000000  0.4528010000000 1.0
C      1  0.4522000000000  0.4482410000000  0.4721960000000 1.0
C      1  0.4464520000000  0.4465470000000  0.5013320000000 1.0
C      1  0.4634310000000  0.4332300000000  0.5183550000000 1.0
C      1  0.4871110000000  0.4268910000000  0.5251400000000 1.0
C      1  0.5486760000000  0.5324280000000  0.4421730000000 1.0
C      1  0.4986210000000  0.5302700000000  0.4242500000000 1.0
C      1  0.4530010000000  0.5210310000000  0.4248190000000 1.0
C      1  0.4208220000000  0.5183120000000  0.4564680000000 1.0
C      1  0.4167370000000  0.5229940000000  0.5005440000000 1.0
C      1  0.4423180000000  0.5332660000000  0.5354220000000 1.0
C      1  0.4825240000000  0.5442940000000  0.5599940000000 1.0
C      1  0.5256220000000  0.5407110000000  0.5722520000000 1.0
C      1  0.5642240000000  0.5259450000000  0.5536300000000 1.0
C      1  0.5873990000000  0.5213500000000  0.5169000000000 1.0
C      1  0.5835230000000  0.5247080000000  0.4722870000000 1.0
C      1  0.5017080000000  0.4814050000000  0.5188930000000 1.0
C      1  0.4996660000000  0.5441140000000  0.4924570000000 1.0
C      1  0.4838380000000  0.5531310000000  0.5123410000000 1.0
C      1  0.5035960000000  0.4745810000000  0.4905070000000 1.0
END
