TITL C-65442-5348-5 376.654034617011 125000 -859.47797306754 0 0 124 (C1) n - 1
REM
REM in /rds/project/t2_vol4/rds-t2-cs072/BORA/CARBON/from-Arr/AIRSS/Generating-Clusters/GAP-ML-2020/Higher-Symm/SD-CG/HFTN-CG
REM
REM
REM
REM
REM
REM ./C.cell (b20cbc046b6831c77cfcea5457e17084)
REM AIRSS Version 0.9.1 bugfix July 2018 build 013d7b7c2542+ Fri, 06 Jul 2018 19:26:36 +0100
REM compiler GCC version 9.3.0
REM options -cpp -mtune=generic -march=x86-64 -g -O0
REM seed -2015789334 -1127721574 -990117668 -932323315 1393196632 -472146403 183372464 809654320 637281385 -779099805 -604730798 -47258543 -647460905 1584435772 -1627829519 -1612502171 152724513 256385605 1183615806 1708913509 763691082 -2007615389 2144548808 1819586363 -997278385 -1041950780 -2058549352 1259561738 11518444 -1230431334 -1206118344 661071548 -428774494
REM
CELL 1.54180   50.00000   50.00000   50.00000   90.00000   90.00000   90.00000
LATT -1
SFAC C  
C      1  0.4735650000000  0.5503190000000  0.4590380000000 1.0
C      1  0.4710940000000  0.4593890000000  0.4565910000000 1.0
C      1  0.4594290000000  0.4132730000000  0.4978620000000 1.0
C      1  0.4581680000000  0.5874700000000  0.4925680000000 1.0
C      1  0.5372450000000  0.4518250000000  0.5318420000000 1.0
C      1  0.5398950000000  0.5531560000000  0.5196580000000 1.0
C      1  0.4878940000000  0.4582440000000  0.5554310000000 1.0
C      1  0.4799260000000  0.5599980000000  0.5686850000000 1.0
C      1  0.4913710000000  0.4826480000000  0.5965780000000 1.0
C      1  0.4901240000000  0.5249770000000  0.5957310000000 1.0
C      1  0.5488090000000  0.4485370000000  0.4527170000000 1.0
C      1  0.5537700000000  0.5432070000000  0.4590020000000 1.0
C      1  0.4960990000000  0.4678920000000  0.4160970000000 1.0
C      1  0.4994780000000  0.5168280000000  0.4122290000000 1.0
C      1  0.4342310000000  0.5150310000000  0.4130860000000 1.0
C      1  0.4348510000000  0.4739780000000  0.4123590000000 1.0
C      1  0.4222330000000  0.4702660000000  0.4682180000000 1.0
C      1  0.4269550000000  0.5292100000000  0.4593210000000 1.0
C      1  0.5089630000000  0.5635170000000  0.4428030000000 1.0
C      1  0.5052310000000  0.4224190000000  0.4444030000000 1.0
C      1  0.4617500000000  0.5239130000000  0.4949380000000 1.0
C      1  0.4633980000000  0.4784200000000  0.4952840000000 1.0
C      1  0.5333000000000  0.4495550000000  0.5722260000000 1.0
C      1  0.5267580000000  0.5530160000000  0.5677220000000 1.0
C      1  0.4940510000000  0.4384250000000  0.4228430000000 1.0
C      1  0.4934960000000  0.5440410000000  0.4232410000000 1.0
C      1  0.4856760000000  0.5887120000000  0.4842980000000 1.0
C      1  0.4869820000000  0.4070560000000  0.4902380000000 1.0
C      1  0.5597870000000  0.4631410000000  0.5685990000000 1.0
C      1  0.5481320000000  0.5346280000000  0.5693480000000 1.0
C      1  0.4379740000000  0.5699060000000  0.4805480000000 1.0
C      1  0.4401190000000  0.4317570000000  0.4855730000000 1.0
C      1  0.4679120000000  0.4452960000000  0.4294760000000 1.0
C      1  0.4661800000000  0.5462810000000  0.4315350000000 1.0
C      1  0.5278800000000  0.5247540000000  0.5203210000000 1.0
C      1  0.5261010000000  0.4803640000000  0.5337830000000 1.0
C      1  0.4200590000000  0.4771210000000  0.5379730000000 1.0
C      1  0.4196370000000  0.5270770000000  0.5349000000000 1.0
C      1  0.4382690000000  0.4777500000000  0.5598420000000 1.0
C      1  0.4366430000000  0.5286760000000  0.5583750000000 1.0
C      1  0.5596560000000  0.4321080000000  0.4966570000000 1.0
C      1  0.5827170000000  0.5510600000000  0.5034470000000 1.0
C      1  0.4824580000000  0.5800950000000  0.5481780000000 1.0
C      1  0.4873790000000  0.4284250000000  0.5492170000000 1.0
C      1  0.4251520000000  0.4360590000000  0.5098220000000 1.0
C      1  0.4224350000000  0.5665280000000  0.5042080000000 1.0
C      1  0.4437940000000  0.4498090000000  0.4176630000000 1.0
C      1  0.4396840000000  0.5352230000000  0.4314980000000 1.0
C      1  0.5786080000000  0.5486610000000  0.4761000000000 1.0
C      1  0.5700280000000  0.4412290000000  0.4704240000000 1.0
C      1  0.4910000000000  0.4078420000000  0.4630430000000 1.0
C      1  0.4880640000000  0.5763250000000  0.4586360000000 1.0
C      1  0.6009550000000  0.5398880000000  0.4613200000000 1.0
C      1  0.5931360000000  0.4546390000000  0.4616560000000 1.0
C      1  0.4489110000000  0.5434190000000  0.4745590000000 1.0
C      1  0.4478840000000  0.4584890000000  0.4753570000000 1.0
C      1  0.5060130000000  0.5833720000000  0.5326680000000 1.0
C      1  0.5092480000000  0.4170040000000  0.5363840000000 1.0
C      1  0.5322940000000  0.4234510000000  0.4903730000000 1.0
C      1  0.5288610000000  0.5683150000000  0.4944690000000 1.0
C      1  0.5582950000000  0.4717220000000  0.4348090000000 1.0
C      1  0.5627670000000  0.5227080000000  0.4401550000000 1.0
C      1  0.5000450000000  0.5244470000000  0.5225510000000 1.0
C      1  0.4971500000000  0.4748810000000  0.5276140000000 1.0
C      1  0.5002310000000  0.5355590000000  0.4747140000000 1.0
C      1  0.5000400000000  0.4591990000000  0.4753450000000 1.0
C      1  0.5268070000000  0.5533960000000  0.4664720000000 1.0
C      1  0.5228860000000  0.4367690000000  0.4645890000000 1.0
C      1  0.4546580000000  0.5750680000000  0.5415250000000 1.0
C      1  0.4587100000000  0.4304790000000  0.5467120000000 1.0
C      1  0.5858240000000  0.4711040000000  0.4385520000000 1.0
C      1  0.5912610000000  0.5197180000000  0.4445990000000 1.0
C      1  0.4072940000000  0.5271290000000  0.4840540000000 1.0
C      1  0.4053560000000  0.4735090000000  0.4905090000000 1.0
C      1  0.5295730000000  0.4318590000000  0.5504240000000 1.0
C      1  0.5266620000000  0.5673300000000  0.5429470000000 1.0
C      1  0.5084560000000  0.4678290000000  0.5763490000000 1.0
C      1  0.5015160000000  0.5476760000000  0.5814170000000 1.0
C      1  0.5076640000000  0.5846320000000  0.5033690000000 1.0
C      1  0.5113350000000  0.4127190000000  0.5069540000000 1.0
C      1  0.4527790000000  0.5526190000000  0.5603800000000 1.0
C      1  0.4573550000000  0.4567410000000  0.5591590000000 1.0
C      1  0.4458800000000  0.4204540000000  0.5230160000000 1.0
C      1  0.4430540000000  0.5825470000000  0.5172300000000 1.0
C      1  0.5704930000000  0.5320550000000  0.5517320000000 1.0
C      1  0.5759930000000  0.4586040000000  0.5448180000000 1.0
C      1  0.4123750000000  0.4605890000000  0.5158270000000 1.0
C      1  0.4116480000000  0.5411470000000  0.5098700000000 1.0
C      1  0.5692240000000  0.5474570000000  0.5263100000000 1.0
C      1  0.5632850000000  0.4440480000000  0.5227230000000 1.0
C      1  0.4877940000000  0.4637720000000  0.5021660000000 1.0
C      1  0.4869160000000  0.5372600000000  0.5014330000000 1.0
C      1  0.5317380000000  0.5079330000000  0.6096030000000 1.0
C      1  0.4714710000000  0.4999940000000  0.4754000000000 1.0
C      1  0.4837280000000  0.5018740000000  0.5314520000000 1.0
C      1  0.5413350000000  0.5078270000000  0.5817670000000 1.0
C      1  0.4809890000000  0.4936830000000  0.4050860000000 1.0
C      1  0.5051280000000  0.5048290000000  0.6089560000000 1.0
C      1  0.4749550000000  0.4875730000000  0.4488670000000 1.0
C      1  0.5217420000000  0.5023400000000  0.4220770000000 1.0
C      1  0.4178700000000  0.4970150000000  0.4544450000000 1.0
C      1  0.4180250000000  0.4937860000000  0.4255570000000 1.0
C      1  0.6011820000000  0.4937760000000  0.4467160000000 1.0
C      1  0.4457300000000  0.5035160000000  0.5712600000000 1.0
C      1  0.4565300000000  0.5015420000000  0.5150270000000 1.0
C      1  0.5487820000000  0.5000310000000  0.4280660000000 1.0
C      1  0.4988020000000  0.5071440000000  0.4748930000000 1.0
C      1  0.5588810000000  0.4932110000000  0.4965150000000 1.0
C      1  0.4923880000000  0.5071470000000  0.5590150000000 1.0
C      1  0.5067290000000  0.4834980000000  0.4385040000000 1.0
C      1  0.5811040000000  0.5044430000000  0.5578390000000 1.0
C      1  0.5640210000000  0.4904900000000  0.5752210000000 1.0
C      1  0.4734410000000  0.5033640000000  0.5818790000000 1.0
C      1  0.4530100000000  0.4958490000000  0.4017780000000 1.0
C      1  0.5401420000000  0.4997100000000  0.5174810000000 1.0
C      1  0.6053320000000  0.4889420000000  0.5189690000000 1.0
C      1  0.6052050000000  0.4797300000000  0.4723470000000 1.0
C      1  0.4001040000000  0.4999350000000  0.4789650000000 1.0
C      1  0.5157640000000  0.4847060000000  0.4694870000000 1.0
C      1  0.5923870000000  0.4831490000000  0.5418170000000 1.0
C      1  0.5429380000000  0.4863640000000  0.4766480000000 1.0
C      1  0.4283680000000  0.5016560000000  0.5271740000000 1.0
C      1  0.5922600000000  0.4895720000000  0.4956800000000 1.0
C      1  0.5182990000000  0.4934080000000  0.5630280000000 1.0
END
