TITL C-65440-4806-6 0.119733082013805 125000 -892.987233939124 0 0 128 (S4) n - 1
REM
REM in /rds/project/t2_vol4/rds-t2-cs072/BORA/CARBON/from-Arr/AIRSS/Generating-Clusters/GAP-ML-2020/Higher-Symm/SD-CG/HFTN-CG
REM
REM
REM
REM
REM
REM ./C.cell (b20cbc046b6831c77cfcea5457e17084)
REM AIRSS Version 0.9.1 bugfix July 2018 build 013d7b7c2542+ Fri, 06 Jul 2018 19:26:36 +0100
REM compiler GCC version 9.3.0
REM options -cpp -mtune=generic -march=x86-64 -g -O0
REM seed -816014476 904750879 -1460181666 -1705931184 1396125924 -1237352404 -484329589 -1926920639 2023935726 1022585473 -1294257076 -229854580 1030960333 -67035078 -1160032874 1661585490 -1690402449 1364624650 -1970098735 609061 215594480 -23912552 640726597 387210818 208512927 -1273410404 1135947126 1442845170 -1581980465 -1602332666 1909162602 -1508539868 1550102489
REM
CELL 1.54180   50.00000   50.00000   50.00000   90.00000   90.00000   90.00000
LATT -1
SFAC C  
C      1  0.5794510000000  0.5363310000000  0.4602120000000 1.0
C      1  0.4636800000000  0.5794520000000  0.5397950000000 1.0
C      1  0.4205370000000  0.4636780000000  0.4602280000000 1.0
C      1  0.5363320000000  0.4205390000000  0.5397650000000 1.0
C      1  0.4504890000000  0.5429240000000  0.4467090000000 1.0
C      1  0.4570910000000  0.4504910000000  0.5533040000000 1.0
C      1  0.5494950000000  0.4570890000000  0.4466840000000 1.0
C      1  0.5429260000000  0.5494970000000  0.5533020000000 1.0
C      1  0.4835140000000  0.4778370000000  0.5866400000000 1.0
C      1  0.5221390000000  0.4835110000000  0.4133540000000 1.0
C      1  0.5165130000000  0.5221430000000  0.5866400000000 1.0
C      1  0.4778340000000  0.5165090000000  0.4133650000000 1.0
C      1  0.5339280000000  0.4749150000000  0.4659230000000 1.0
C      1  0.5250940000000  0.5339290000000  0.5340690000000 1.0
C      1  0.4660620000000  0.5250930000000  0.4659390000000 1.0
C      1  0.4749170000000  0.4660630000000  0.5340690000000 1.0
C      1  0.4632550000000  0.4031360000000  0.4975370000000 1.0
C      1  0.5968650000000  0.4632550000000  0.5024380000000 1.0
C      1  0.5367440000000  0.5968640000000  0.4975480000000 1.0
C      1  0.4031360000000  0.5367440000000  0.5024770000000 1.0
C      1  0.5053030000000  0.5552480000000  0.5253800000000 1.0
C      1  0.4447450000000  0.5053020000000  0.4746350000000 1.0
C      1  0.4947040000000  0.4447460000000  0.5253690000000 1.0
C      1  0.5552470000000  0.4947030000000  0.4746160000000 1.0
C      1  0.5316650000000  0.4545840000000  0.4896080000000 1.0
C      1  0.5454190000000  0.5316650000000  0.5103780000000 1.0
C      1  0.4683320000000  0.5454180000000  0.4896290000000 1.0
C      1  0.4545850000000  0.4683330000000  0.5103850000000 1.0
C      1  0.4281670000000  0.5504940000000  0.4622500000000 1.0
C      1  0.4495160000000  0.4281680000000  0.5377670000000 1.0
C      1  0.5718210000000  0.4495150000000  0.4622160000000 1.0
C      1  0.5504950000000  0.5718230000000  0.5377680000000 1.0
C      1  0.5732010000000  0.5753790000000  0.5202020000000 1.0
C      1  0.4246150000000  0.5732010000000  0.4798160000000 1.0
C      1  0.4268050000000  0.4246160000000  0.5202070000000 1.0
C      1  0.5753790000000  0.4268040000000  0.4797750000000 1.0
C      1  0.4198100000000  0.5751560000000  0.5275090000000 1.0
C      1  0.4248360000000  0.4198090000000  0.4725150000000 1.0
C      1  0.5801980000000  0.4248380000000  0.5274660000000 1.0
C      1  0.5751550000000  0.5801970000000  0.4725100000000 1.0
C      1  0.4130180000000  0.4450610000000  0.4805030000000 1.0
C      1  0.5549440000000  0.4130190000000  0.5194850000000 1.0
C      1  0.5869760000000  0.5549440000000  0.4804890000000 1.0
C      1  0.4450620000000  0.5869760000000  0.5195230000000 1.0
C      1  0.5347780000000  0.5098000000000  0.4945610000000 1.0
C      1  0.4902020000000  0.5347780000000  0.5054400000000 1.0
C      1  0.4652200000000  0.4902010000000  0.4945700000000 1.0
C      1  0.5098000000000  0.4652210000000  0.5054290000000 1.0
C      1  0.4486040000000  0.4771050000000  0.4304140000000 1.0
C      1  0.5229140000000  0.4486070000000  0.5695820000000 1.0
C      1  0.5513740000000  0.5229110000000  0.4304030000000 1.0
C      1  0.4771080000000  0.5513770000000  0.5696010000000 1.0
C      1  0.4729470000000  0.5047030000000  0.5873310000000 1.0
C      1  0.4952730000000  0.4729440000000  0.4126720000000 1.0
C      1  0.5270800000000  0.4952770000000  0.5873210000000 1.0
C      1  0.5047000000000  0.5270760000000  0.4126760000000 1.0
C      1  0.5580930000000  0.5751920000000  0.4490680000000 1.0
C      1  0.4248220000000  0.5580950000000  0.5509500000000 1.0
C      1  0.4418920000000  0.4248200000000  0.4490690000000 1.0
C      1  0.5751940000000  0.4418940000000  0.5509130000000 1.0
C      1  0.5278980000000  0.4253080000000  0.4822300000000 1.0
C      1  0.5746970000000  0.5278990000000  0.5177490000000 1.0
C      1  0.4720960000000  0.5746960000000  0.4822560000000 1.0
C      1  0.4253090000000  0.4720970000000  0.5177650000000 1.0
C      1  0.5320540000000  0.4571870000000  0.4247770000000 1.0
C      1  0.5428340000000  0.5320570000000  0.5752100000000 1.0
C      1  0.4679230000000  0.5428310000000  0.4247970000000 1.0
C      1  0.4571900000000  0.4679260000000  0.5752160000000 1.0
C      1  0.5105160000000  0.5259530000000  0.4831090000000 1.0
C      1  0.4740520000000  0.5105170000000  0.5168980000000 1.0
C      1  0.4894790000000  0.4740510000000  0.4831060000000 1.0
C      1  0.5259530000000  0.4894790000000  0.5168880000000 1.0
C      1  0.4925040000000  0.4271570000000  0.4416600000000 1.0
C      1  0.5728590000000  0.4925070000000  0.5583210000000 1.0
C      1  0.5074780000000  0.5728570000000  0.4416740000000 1.0
C      1  0.4271590000000  0.5074800000000  0.5583450000000 1.0
C      1  0.5325900000000  0.5869340000000  0.4484400000000 1.0
C      1  0.4130800000000  0.5325920000000  0.5515830000000 1.0
C      1  0.4673940000000  0.4130780000000  0.4484300000000 1.0
C      1  0.5869360000000  0.4673960000000  0.5515480000000 1.0
C      1  0.5761370000000  0.4716250000000  0.4817340000000 1.0
C      1  0.5283800000000  0.5761370000000  0.5182550000000 1.0
C      1  0.4238580000000  0.5283790000000  0.4817650000000 1.0
C      1  0.4716260000000  0.4238580000000  0.5182460000000 1.0
C      1  0.5525110000000  0.4813230000000  0.5224390000000 1.0
C      1  0.5186710000000  0.5525100000000  0.4775540000000 1.0
C      1  0.4474960000000  0.5186720000000  0.5224590000000 1.0
C      1  0.4813220000000  0.4474950000000  0.4775480000000 1.0
C      1  0.5777270000000  0.5012950000000  0.5286640000000 1.0
C      1  0.4986970000000  0.5777260000000  0.4713330000000 1.0
C      1  0.4222810000000  0.4986990000000  0.5286880000000 1.0
C      1  0.5012940000000  0.4222800000000  0.4713150000000 1.0
C      1  0.4027800000000  0.5221760000000  0.5262410000000 1.0
C      1  0.4778170000000  0.4027790000000  0.4737690000000 1.0
C      1  0.5972280000000  0.4778180000000  0.5262050000000 1.0
C      1  0.5221750000000  0.5972270000000  0.4737850000000 1.0
C      1  0.5483150000000  0.4373050000000  0.5600390000000 1.0
C      1  0.5626780000000  0.5483120000000  0.4399420000000 1.0
C      1  0.4517040000000  0.5626810000000  0.5600680000000 1.0
C      1  0.4373030000000  0.4517020000000  0.4399500000000 1.0
C      1  0.5041810000000  0.4464010000000  0.4240200000000 1.0
C      1  0.5536200000000  0.5041840000000  0.5759650000000 1.0
C      1  0.4957960000000  0.5536170000000  0.4240340000000 1.0
C      1  0.4464040000000  0.4957990000000  0.5759810000000 1.0
C      1  0.5666490000000  0.5115540000000  0.4528570000000 1.0
C      1  0.4884580000000  0.5666510000000  0.5471440000000 1.0
C      1  0.4333360000000  0.4884570000000  0.4528750000000 1.0
C      1  0.5115560000000  0.4333380000000  0.5471250000000 1.0
C      1  0.4478350000000  0.5870340000000  0.4904130000000 1.0
C      1  0.4129690000000  0.4478360000000  0.5096130000000 1.0
C      1  0.5521620000000  0.4129690000000  0.4903770000000 1.0
C      1  0.5870340000000  0.5521620000000  0.5095980000000 1.0
C      1  0.5394010000000  0.5566030000000  0.4957740000000 1.0
C      1  0.4433980000000  0.5394010000000  0.5042400000000 1.0
C      1  0.4605970000000  0.4433980000000  0.4957730000000 1.0
C      1  0.5566030000000  0.4605980000000  0.5042130000000 1.0
C      1  0.5653370000000  0.5929320000000  0.4969970000000 1.0
C      1  0.4070690000000  0.5653370000000  0.5030260000000 1.0
C      1  0.4346620000000  0.4070690000000  0.4969950000000 1.0
C      1  0.5929320000000  0.4346620000000  0.5029820000000 1.0
C      1  0.4884190000000  0.5287690000000  0.5846080000000 1.0
C      1  0.4712080000000  0.4884160000000  0.4154010000000 1.0
C      1  0.5116070000000  0.4712120000000  0.5845970000000 1.0
C      1  0.5287650000000  0.5116040000000  0.4153940000000 1.0
C      1  0.5133410000000  0.5046140000000  0.5377900000000 1.0
C      1  0.4953760000000  0.5133390000000  0.4622100000000 1.0
C      1  0.4866710000000  0.4953770000000  0.5377930000000 1.0
C      1  0.5046130000000  0.4866700000000  0.4622060000000 1.0
END
