TITL C-65790-1476-8 44.3291903365277 125000 -905.92756368174 0 0 129 (C1) n - 1
REM
REM in /rds/project/t2_vol4/rds-t2-cs072/BORA/CARBON/from-Arr/AIRSS/Generating-Clusters/GAP-ML-2020/Higher-Symm/SD-CG/HFTN-CG
REM
REM
REM
REM
REM
REM ./C.cell (b20cbc046b6831c77cfcea5457e17084)
REM AIRSS Version 0.9.1 bugfix July 2018 build 013d7b7c2542+ Fri, 06 Jul 2018 19:26:36 +0100
REM compiler GCC version 9.3.0
REM options -cpp -mtune=generic -march=x86-64 -g -O0
REM seed -312275834 -1404640356 1195192195 -52867791 -657290653 1395404451 1454635430 1722791384 -1536140333 -880961580 14258902 -145308209 2018775264 -187863676 1075670515 2009480576 -181456594 97876201 -1861254551 2146324171 -603558812 2065371845 -330915995 2093822871 -30290432 -1858870132 1637019445 -679141238 1185749160 -965582647 761201868 -512382086 1484293170
REM
CELL 1.54180   50.00000   50.00000   50.00000   90.00000   90.00000   90.00000
LATT -1
SFAC C  
C      1  0.4676990000000  0.5234230000000  0.5107410000000 1.0
C      1  0.4708260000000  0.5338570000000  0.4657240000000 1.0
C      1  0.5189310000000  0.5375730000000  0.4626610000000 1.0
C      1  0.5324580000000  0.5243370000000  0.5061600000000 1.0
C      1  0.5027060000000  0.5216420000000  0.5377520000000 1.0
C      1  0.5400760000000  0.4596550000000  0.5143650000000 1.0
C      1  0.5252900000000  0.4891880000000  0.4760590000000 1.0
C      1  0.4788800000000  0.4743170000000  0.4596580000000 1.0
C      1  0.4717990000000  0.4731940000000  0.5020540000000 1.0
C      1  0.4962760000000  0.4651600000000  0.5358880000000 1.0
C      1  0.4877110000000  0.4464640000000  0.4699910000000 1.0
C      1  0.5107120000000  0.4528970000000  0.4842550000000 1.0
C      1  0.5186510000000  0.4367060000000  0.5068660000000 1.0
C      1  0.4918940000000  0.4377410000000  0.5196900000000 1.0
C      1  0.4741460000000  0.4427760000000  0.4959750000000 1.0
C      1  0.5091520000000  0.5594240000000  0.4827610000000 1.0
C      1  0.4796030000000  0.5576940000000  0.4831460000000 1.0
C      1  0.4840400000000  0.5671550000000  0.5278970000000 1.0
C      1  0.5052700000000  0.5498970000000  0.5317730000000 1.0
C      1  0.5208320000000  0.5492990000000  0.5081220000000 1.0
C      1  0.4933120000000  0.5148260000000  0.4207800000000 1.0
C      1  0.5679290000000  0.5176650000000  0.4735530000000 1.0
C      1  0.5478810000000  0.5146820000000  0.5554440000000 1.0
C      1  0.4606960000000  0.5146690000000  0.5629620000000 1.0
C      1  0.4252680000000  0.5153790000000  0.4827930000000 1.0
C      1  0.5059080000000  0.4852170000000  0.4238520000000 1.0
C      1  0.4280040000000  0.4860550000000  0.4707600000000 1.0
C      1  0.4500230000000  0.4850750000000  0.5565910000000 1.0
C      1  0.5430040000000  0.4871820000000  0.5708580000000 1.0
C      1  0.5738440000000  0.4925950000000  0.4883420000000 1.0
C      1  0.5432090000000  0.5933540000000  0.4839000000000 1.0
C      1  0.5262510000000  0.5960050000000  0.5513330000000 1.0
C      1  0.4691130000000  0.5878600000000  0.5406490000000 1.0
C      1  0.4599800000000  0.5837560000000  0.4808300000000 1.0
C      1  0.5065600000000  0.5912900000000  0.4491890000000 1.0
C      1  0.4539720000000  0.4200730000000  0.4891840000000 1.0
C      1  0.4778970000000  0.4177030000000  0.5376460000000 1.0
C      1  0.5362160000000  0.4084620000000  0.5366450000000 1.0
C      1  0.5467340000000  0.4069580000000  0.4868920000000 1.0
C      1  0.4907120000000  0.4198670000000  0.4545300000000 1.0
C      1  0.4817200000000  0.5180490000000  0.5861470000000 1.0
C      1  0.4114030000000  0.5200090000000  0.5102600000000 1.0
C      1  0.4633470000000  0.5182940000000  0.4161880000000 1.0
C      1  0.5660580000000  0.5174100000000  0.4420630000000 1.0
C      1  0.5762480000000  0.5216720000000  0.5424590000000 1.0
C      1  0.5188120000000  0.4829310000000  0.5879100000000 1.0
C      1  0.5901900000000  0.4855140000000  0.5110970000000 1.0
C      1  0.5358850000000  0.4795280000000  0.4212810000000 1.0
C      1  0.4315150000000  0.4834230000000  0.4397450000000 1.0
C      1  0.4223270000000  0.4826320000000  0.5437980000000 1.0
C      1  0.5388990000000  0.4525920000000  0.4301590000000 1.0
C      1  0.5851200000000  0.4582570000000  0.5172110000000 1.0
C      1  0.5088970000000  0.4561670000000  0.5837680000000 1.0
C      1  0.4214600000000  0.4559070000000  0.5344420000000 1.0
C      1  0.4386810000000  0.4564310000000  0.4354990000000 1.0
C      1  0.4577030000000  0.5454400000000  0.4226970000000 1.0
C      1  0.4175480000000  0.5465560000000  0.5178560000000 1.0
C      1  0.4903980000000  0.5448400000000  0.5846750000000 1.0
C      1  0.5742830000000  0.5485820000000  0.5328690000000 1.0
C      1  0.5583740000000  0.5440740000000  0.4361370000000 1.0
C      1  0.4193580000000  0.4453800000000  0.5073460000000 1.0
C      1  0.4644970000000  0.4453870000000  0.4257970000000 1.0
C      1  0.5546470000000  0.4400710000000  0.4515500000000 1.0
C      1  0.5631820000000  0.4501040000000  0.5359870000000 1.0
C      1  0.4829560000000  0.4446210000000  0.5765760000000 1.0
C      1  0.5737050000000  0.5607910000000  0.5061040000000 1.0
C      1  0.5302800000000  0.5520550000000  0.4319340000000 1.0
C      1  0.4458410000000  0.5523800000000  0.4487810000000 1.0
C      1  0.4322820000000  0.5575820000000  0.5407020000000 1.0
C      1  0.5166160000000  0.5565350000000  0.5783310000000 1.0
C      1  0.4794870000000  0.5849290000000  0.5662580000000 1.0
C      1  0.4397100000000  0.5831700000000  0.5006060000000 1.0
C      1  0.4818210000000  0.5821090000000  0.4390500000000 1.0
C      1  0.5517260000000  0.5833780000000  0.4590000000000 1.0
C      1  0.5471150000000  0.5861580000000  0.5366760000000 1.0
C      1  0.5204940000000  0.4192270000000  0.5578750000000 1.0
C      1  0.5675560000000  0.4181610000000  0.5027130000000 1.0
C      1  0.5161890000000  0.4160250000000  0.4447470000000 1.0
C      1  0.4456580000000  0.4209800000000  0.4622720000000 1.0
C      1  0.4498050000000  0.4199940000000  0.5357730000000 1.0
C      1  0.4429010000000  0.5827910000000  0.5301910000000 1.0
C      1  0.4568530000000  0.5799780000000  0.4532740000000 1.0
C      1  0.5307140000000  0.5800530000000  0.4393220000000 1.0
C      1  0.5562060000000  0.5842560000000  0.5082060000000 1.0
C      1  0.5092080000000  0.5831430000000  0.5683880000000 1.0
C      1  0.5610900000000  0.4207610000000  0.5309830000000 1.0
C      1  0.5406750000000  0.4162600000000  0.4600730000000 1.0
C      1  0.4661000000000  0.4214760000000  0.4416640000000 1.0
C      1  0.4363130000000  0.4220230000000  0.5103910000000 1.0
C      1  0.4915090000000  0.4208840000000  0.5621290000000 1.0
C      1  0.5143140000000  0.4391100000000  0.4268970000000 1.0
C      1  0.5812190000000  0.4411360000000  0.4942430000000 1.0
C      1  0.5308640000000  0.4421480000000  0.5715860000000 1.0
C      1  0.4397660000000  0.4409450000000  0.5517780000000 1.0
C      1  0.4276310000000  0.4420250000000  0.4581510000000 1.0
C      1  0.4825840000000  0.5598610000000  0.4206710000000 1.0
C      1  0.4225380000000  0.5609350000000  0.4931270000000 1.0
C      1  0.4685220000000  0.5600380000000  0.5753810000000 1.0
C      1  0.5565980000000  0.5617830000000  0.5502390000000 1.0
C      1  0.5680090000000  0.5608750000000  0.4575620000000 1.0
C      1  0.5051650000000  0.5423240000000  0.4176750000000 1.0
C      1  0.5758450000000  0.5469370000000  0.4808690000000 1.0
C      1  0.5407910000000  0.5439210000000  0.5663840000000 1.0
C      1  0.4487150000000  0.5438420000000  0.5613120000000 1.0
C      1  0.4258570000000  0.5435250000000  0.4702310000000 1.0
C      1  0.4923740000000  0.4569100000000  0.4206500000000 1.0
C      1  0.4188660000000  0.4585620000000  0.4806480000000 1.0
C      1  0.4571280000000  0.4572990000000  0.5679400000000 1.0
C      1  0.5512100000000  0.4603240000000  0.5621700000000 1.0
C      1  0.5678120000000  0.4541310000000  0.4726660000000 1.0
C      1  0.4596830000000  0.4857090000000  0.4789130000000 1.0
C      1  0.5025770000000  0.4911770000000  0.4548500000000 1.0
C      1  0.5511160000000  0.4742510000000  0.4864650000000 1.0
C      1  0.5193150000000  0.4789430000000  0.5233170000000 1.0
C      1  0.4723900000000  0.4812230000000  0.5311350000000 1.0
C      1  0.5360850000000  0.5175610000000  0.4785430000000 1.0
C      1  0.4955410000000  0.5210130000000  0.4527880000000 1.0
C      1  0.4581350000000  0.5146260000000  0.4848940000000 1.0
C      1  0.4764910000000  0.5105670000000  0.5342520000000 1.0
C      1  0.5272060000000  0.5078320000000  0.5305180000000 1.0
C      1  0.4999010000000  0.5007860000000  0.5962500000000 1.0
C      1  0.4445060000000  0.5010830000000  0.4243780000000 1.0
C      1  0.5547190000000  0.4975080000000  0.4285170000000 1.0
C      1  0.4082870000000  0.5020700000000  0.5306030000000 1.0
C      1  0.5934110000000  0.5043700000000  0.5306330000000 1.0
C      1  0.5278620000000  0.4086180000000  0.5084240000000 1.0
C      1  0.5151390000000  0.5892780000000  0.4772650000000 1.0
C      1  0.4721170000000  0.5505250000000  0.5094350000000 1.0
C      1  0.5054060000000  0.4796710000000  0.4966650000000 1.0
END
