TITL C-65821-1274-2 -0.00815297726129405 125000 -603.17637197622 0 0 89 (S4) n - 1
REM
REM in /rds/project/t2_vol4/rds-t2-cs072/BORA/CARBON/from-Arr/AIRSS/Generating-Clusters/GAP-ML-2020/Higher-Symm/SD-CG/HFTN-CG
REM
REM
REM
REM
REM
REM ./C.cell (b20cbc046b6831c77cfcea5457e17084)
REM AIRSS Version 0.9.1 bugfix July 2018 build 013d7b7c2542+ Fri, 06 Jul 2018 19:26:36 +0100
REM compiler GCC version 9.3.0
REM options -cpp -mtune=generic -march=x86-64 -g -O0
REM seed 727484859 1012674207 867694296 327131986 160896961 913607407 826054411 411584319 -536267043 126330424 319131230 -1049018550 -1132466735 -1080065891 -18817975 -1679068914 -239998705 1322363694 -450803367 -1726821741 -1949548947 -159951266 -1030347969 -1871896576 127762702 1290363453 -1950616965 -1301316106 84412025 210833342 67805054 -1885014869 -543122241
REM
CELL 1.54180   50.00000   50.00000   50.00000   90.00000   90.00000   90.00000
LATT -1
SFAC C  
C      1  0.5196850000000  0.4948240000000  0.4236150000000 1.0
C      1  0.5060630000000  0.5197910000000  0.4241420000000 1.0
C      1  0.4811900000000  0.5056870000000  0.4236100000000 1.0
C      1  0.4948110000000  0.4807190000000  0.4241430000000 1.0
C      1  0.5199540000000  0.4946400000000  0.5765540000000 1.0
C      1  0.5058500000000  0.5195130000000  0.5770810000000 1.0
C      1  0.4808830000000  0.5058920000000  0.5765490000000 1.0
C      1  0.4949870000000  0.4810180000000  0.5770820000000 1.0
C      1  0.5239320000000  0.5680610000000  0.4860690000000 1.0
C      1  0.4320420000000  0.5240250000000  0.4867010000000 1.0
C      1  0.4769270000000  0.4324580000000  0.4860730000000 1.0
C      1  0.5688170000000  0.4764940000000  0.4867210000000 1.0
C      1  0.5241920000000  0.5686490000000  0.5139810000000 1.0
C      1  0.4326240000000  0.5237640000000  0.5146120000000 1.0
C      1  0.4766610000000  0.4318740000000  0.5139850000000 1.0
C      1  0.5682280000000  0.4767590000000  0.5146320000000 1.0
C      1  0.5365940000000  0.4998680000000  0.5283690000000 1.0
C      1  0.5019850000000  0.5351090000000  0.5291140000000 1.0
C      1  0.4642550000000  0.5006570000000  0.5283600000000 1.0
C      1  0.4988640000000  0.4654160000000  0.5291180000000 1.0
C      1  0.5352770000000  0.4986980000000  0.4715820000000 1.0
C      1  0.5008260000000  0.5364280000000  0.4723260000000 1.0
C      1  0.4655850000000  0.5018190000000  0.4715730000000 1.0
C      1  0.5000370000000  0.4640890000000  0.4723310000000 1.0
C      1  0.4330710000000  0.4959850000000  0.5267670000000 1.0
C      1  0.5044410000000  0.4351240000000  0.5272130000000 1.0
C      1  0.5677790000000  0.5045390000000  0.5267830000000 1.0
C      1  0.4964080000000  0.5654010000000  0.5272030000000 1.0
C      1  0.4352930000000  0.4962430000000  0.4734780000000 1.0
C      1  0.5047080000000  0.4329050000000  0.4739240000000 1.0
C      1  0.5655690000000  0.5042750000000  0.4734940000000 1.0
C      1  0.4961540000000  0.5676130000000  0.4739130000000 1.0
C      1  0.4597360000000  0.4558690000000  0.5535150000000 1.0
C      1  0.5452650000000  0.4603110000000  0.5531730000000 1.0
C      1  0.5411070000000  0.5446590000000  0.5535190000000 1.0
C      1  0.4555780000000  0.5402170000000  0.5531560000000 1.0
C      1  0.4604810000000  0.4554130000000  0.4475270000000 1.0
C      1  0.5448290000000  0.4595710000000  0.4471850000000 1.0
C      1  0.5403870000000  0.5451010000000  0.4475310000000 1.0
C      1  0.4560390000000  0.5409420000000  0.4471690000000 1.0
C      1  0.5130900000000  0.5415320000000  0.5598760000000 1.0
C      1  0.4591170000000  0.5117960000000  0.5580600000000 1.0
C      1  0.4877510000000  0.4589970000000  0.5598780000000 1.0
C      1  0.5417250000000  0.4887330000000  0.5580710000000 1.0
C      1  0.5119660000000  0.5415600000000  0.4426270000000 1.0
C      1  0.4591680000000  0.5129260000000  0.4408110000000 1.0
C      1  0.4889030000000  0.4589530000000  0.4426300000000 1.0
C      1  0.5417030000000  0.4875870000000  0.4408230000000 1.0
C      1  0.4681580000000  0.5669540000000  0.4873910000000 1.0
C      1  0.4350700000000  0.4677130000000  0.4858750000000 1.0
C      1  0.5327010000000  0.4335650000000  0.4874080000000 1.0
C      1  0.5657890000000  0.5328060000000  0.4858860000000 1.0
C      1  0.4678790000000  0.5656210000000  0.5148040000000 1.0
C      1  0.4337310000000  0.4679900000000  0.5132890000000 1.0
C      1  0.5329730000000  0.4349020000000  0.5148210000000 1.0
C      1  0.5671210000000  0.5325330000000  0.5133000000000 1.0
C      1  0.4513050000000  0.5449370000000  0.4753140000000 1.0
C      1  0.4544060000000  0.4480670000000  0.4740490000000 1.0
C      1  0.5495570000000  0.4555810000000  0.4753320000000 1.0
C      1  0.5464560000000  0.5524500000000  0.4740530000000 1.0
C      1  0.4482330000000  0.5462880000000  0.5266330000000 1.0
C      1  0.4557470000000  0.4511360000000  0.5253690000000 1.0
C      1  0.5526160000000  0.4542370000000  0.5266520000000 1.0
C      1  0.5451030000000  0.5493880000000  0.5253730000000 1.0
C      1  0.5067590000000  0.4346280000000  0.4436900000000 1.0
C      1  0.5649250000000  0.5058920000000  0.4430820000000 1.0
C      1  0.4941100000000  0.5658850000000  0.4436800000000 1.0
C      1  0.4359450000000  0.4946210000000  0.4430670000000 1.0
C      1  0.5060570000000  0.4357740000000  0.5576250000000 1.0
C      1  0.5660490000000  0.5065890000000  0.5570160000000 1.0
C      1  0.4947850000000  0.5647550000000  0.5576140000000 1.0
C      1  0.4347930000000  0.4939400000000  0.5570010000000 1.0
C      1  0.4693140000000  0.5604370000000  0.4335740000000 1.0
C      1  0.4415990000000  0.4696110000000  0.4338300000000 1.0
C      1  0.5315580000000  0.4400740000000  0.4335900000000 1.0
C      1  0.5592730000000  0.5309010000000  0.4338400000000 1.0
C      1  0.4697750000000  0.5591020000000  0.5668500000000 1.0
C      1  0.4402380000000  0.4691430000000  0.5671060000000 1.0
C      1  0.5310650000000  0.4414290000000  0.5668660000000 1.0
C      1  0.5606010000000  0.5313870000000  0.5671170000000 1.0
C      1  0.4815580000000  0.5195600000000  0.5138730000000 1.0
C      1  0.4736200000000  0.4743670000000  0.5173220000000 1.0
C      1  0.5192950000000  0.4809630000000  0.5138800000000 1.0
C      1  0.5272310000000  0.5261560000000  0.5173250000000 1.0
C      1  0.4745350000000  0.5270650000000  0.4833650000000 1.0
C      1  0.4811310000000  0.4813910000000  0.4868160000000 1.0
C      1  0.5263250000000  0.4734540000000  0.4833750000000 1.0
C      1  0.5197280000000  0.5191280000000  0.4868180000000 1.0
C      1  0.5004280000000  0.5002600000000  0.5003470000000 1.0
END
