TITL C-65815-1821-2 72.8423485721588 125000 -1194.42273036381 0 0 172 (C2h) n - 1
REM
REM in /rds/project/t2_vol4/rds-t2-cs072/BORA/CARBON/from-Arr/AIRSS/Generating-Clusters/GAP-ML-2020/Higher-Symm/SD-CG/HFTN-CG
REM
REM
REM
REM
REM
REM ./C.cell (b20cbc046b6831c77cfcea5457e17084)
REM AIRSS Version 0.9.1 bugfix July 2018 build 013d7b7c2542+ Fri, 06 Jul 2018 19:26:36 +0100
REM compiler GCC version 9.3.0
REM options -cpp -mtune=generic -march=x86-64 -g -O0
REM seed 1945415693 -1626278263 -1738877518 783013872 1259925570 -544033863 712236123 183481572 -1274652256 21195817 1795841923 1470087955 323327708 -315110971 319284535 1245708244 -2138764791 -537614908 -1475718433 -1928909634 -748017647 -1130486871 -374017876 414851924 -373195829 -1802544991 -1838800693 1314698369 -865808233 551578844 -635154079 -1988757661 -1386965770
REM
CELL 1.54180   50.00000   50.00000   50.00000   90.00000   90.00000   90.00000
LATT -1
SFAC C  
C      1  0.5780940000000  0.4346330000000  0.4859120000000 1.0
C      1  0.4219100000000  0.5653650000000  0.4858830000000 1.0
C      1  0.5780900000000  0.4346350000000  0.5141170000000 1.0
C      1  0.4219060000000  0.5653670000000  0.5140880000000 1.0
C      1  0.4147560000000  0.4334680000000  0.5142360000000 1.0
C      1  0.5852400000000  0.5665340000000  0.5142550000000 1.0
C      1  0.4147600000000  0.4334660000000  0.4857450000000 1.0
C      1  0.5852440000000  0.5665320000000  0.4857640000000 1.0
C      1  0.4466100000000  0.5255320000000  0.5147930000000 1.0
C      1  0.5533860000000  0.4744700000000  0.5148110000000 1.0
C      1  0.4466140000000  0.5255300000000  0.4851890000000 1.0
C      1  0.5533900000000  0.4744680000000  0.4852070000000 1.0
C      1  0.5600480000000  0.5832810000000  0.4362060000000 1.0
C      1  0.4399710000000  0.4167130000000  0.4361960000000 1.0
C      1  0.5600290000000  0.5832870000000  0.5638040000000 1.0
C      1  0.4399520000000  0.4167190000000  0.5637940000000 1.0
C      1  0.4860740000000  0.4328550000000  0.5288530000000 1.0
C      1  0.5139170000000  0.5671470000000  0.5288510000000 1.0
C      1  0.4860830000000  0.4328530000000  0.4711490000000 1.0
C      1  0.5139260000000  0.5671440000000  0.4711470000000 1.0
C      1  0.5173520000000  0.5670090000000  0.4403150000000 1.0
C      1  0.4826660000000  0.4329860000000  0.4403160000000 1.0
C      1  0.5173340000000  0.5670140000000  0.5596840000000 1.0
C      1  0.4826480000000  0.4329910000000  0.5596850000000 1.0
C      1  0.5573340000000  0.4346750000000  0.4432850000000 1.0
C      1  0.4426830000000  0.5653200000000  0.4432620000000 1.0
C      1  0.5573170000000  0.4346800000000  0.5567380000000 1.0
C      1  0.4426660000000  0.5653250000000  0.5567150000000 1.0
C      1  0.5206130000000  0.5326850000000  0.3899740000000 1.0
C      1  0.4794190000000  0.4673040000000  0.3899710000000 1.0
C      1  0.5205810000000  0.5326960000000  0.6100290000000 1.0
C      1  0.4793870000000  0.4673150000000  0.6100260000000 1.0
C      1  0.5600180000000  0.5572450000000  0.5252040000000 1.0
C      1  0.4399750000000  0.4427570000000  0.5251920000000 1.0
C      1  0.5600250000000  0.5572430000000  0.4748080000000 1.0
C      1  0.4399820000000  0.4427550000000  0.4747960000000 1.0
C      1  0.5448290000000  0.5283970000000  0.4848460000000 1.0
C      1  0.4551760000000  0.4716020000000  0.4848350000000 1.0
C      1  0.5448240000000  0.5283980000000  0.5151650000000 1.0
C      1  0.4551710000000  0.4716030000000  0.5151540000000 1.0
C      1  0.4566730000000  0.4567180000000  0.4038010000000 1.0
C      1  0.5433550000000  0.5432730000000  0.4038100000000 1.0
C      1  0.4566450000000  0.4567270000000  0.5961900000000 1.0
C      1  0.5433270000000  0.5432820000000  0.5961990000000 1.0
C      1  0.5610960000000  0.4841890000000  0.5674600000000 1.0
C      1  0.4388840000000  0.5158180000000  0.5674410000000 1.0
C      1  0.5611160000000  0.4841820000000  0.4325590000000 1.0
C      1  0.4389040000000  0.5158110000000  0.4325400000000 1.0
C      1  0.5343510000000  0.6031290000000  0.5301060000000 1.0
C      1  0.4656400000000  0.3968730000000  0.5301050000000 1.0
C      1  0.5343600000000  0.6031270000000  0.4698950000000 1.0
C      1  0.4656490000000  0.3968710000000  0.4698940000000 1.0
C      1  0.4195490000000  0.5383650000000  0.4733080000000 1.0
C      1  0.5804590000000  0.4616330000000  0.4733350000000 1.0
C      1  0.4195410000000  0.5383670000000  0.5266650000000 1.0
C      1  0.5804510000000  0.4616350000000  0.5266920000000 1.0
C      1  0.5710850000000  0.4599640000000  0.5553100000000 1.0
C      1  0.4288980000000  0.5400420000000  0.5552850000000 1.0
C      1  0.5711020000000  0.4599580000000  0.4447150000000 1.0
C      1  0.4289150000000  0.5400360000000  0.4446900000000 1.0
C      1  0.5393680000000  0.5767200000000  0.5157710000000 1.0
C      1  0.4606270000000  0.4232810000000  0.5157670000000 1.0
C      1  0.5393730000000  0.5767190000000  0.4842330000000 1.0
C      1  0.4606320000000  0.4232800000000  0.4842290000000 1.0
C      1  0.4420640000000  0.4818080000000  0.5978000000000 1.0
C      1  0.5579070000000  0.5182020000000  0.5978150000000 1.0
C      1  0.4420930000000  0.4817980000000  0.4021850000000 1.0
C      1  0.5579360000000  0.5181920000000  0.4022000000000 1.0
C      1  0.4647440000000  0.5791100000000  0.4848170000000 1.0
C      1  0.5352600000000  0.4208890000000  0.4848350000000 1.0
C      1  0.4647400000000  0.5791110000000  0.5151650000000 1.0
C      1  0.5352560000000  0.4208900000000  0.5151830000000 1.0
C      1  0.4936350000000  0.5872810000000  0.5164850000000 1.0
C      1  0.5063600000000  0.4127210000000  0.5164950000000 1.0
C      1  0.4936400000000  0.5872790000000  0.4835050000000 1.0
C      1  0.5063650000000  0.4127190000000  0.4835150000000 1.0
C      1  0.5202530000000  0.5191020000000  0.4361700000000 1.0
C      1  0.4797660000000  0.4808920000000  0.4361660000000 1.0
C      1  0.5202340000000  0.5191080000000  0.5638340000000 1.0
C      1  0.4797470000000  0.4808980000000  0.5638300000000 1.0
C      1  0.5313910000000  0.4531150000000  0.5153850000000 1.0
C      1  0.4686040000000  0.5468870000000  0.5153720000000 1.0
C      1  0.5313960000000  0.4531130000000  0.4846280000000 1.0
C      1  0.4686090000000  0.5468850000000  0.4846150000000 1.0
C      1  0.6004380000000  0.5256770000000  0.5334090000000 1.0
C      1  0.3995520000000  0.4743260000000  0.5333820000000 1.0
C      1  0.6004480000000  0.5256740000000  0.4666180000000 1.0
C      1  0.3995620000000  0.4743230000000  0.4665910000000 1.0
C      1  0.5059910000000  0.4618740000000  0.3972620000000 1.0
C      1  0.4940390000000  0.5381160000000  0.3972570000000 1.0
C      1  0.5059610000000  0.4618840000000  0.6027430000000 1.0
C      1  0.4940090000000  0.5381260000000  0.6027380000000 1.0
C      1  0.5361320000000  0.5932430000000  0.4422500000000 1.0
C      1  0.4638850000000  0.4067520000000  0.4422490000000 1.0
C      1  0.5361150000000  0.5932480000000  0.5577510000000 1.0
C      1  0.4638680000000  0.4067570000000  0.5577500000000 1.0
C      1  0.4370910000000  0.4468000000000  0.4455200000000 1.0
C      1  0.5629250000000  0.5531950000000  0.4455340000000 1.0
C      1  0.4370750000000  0.4468050000000  0.5544660000000 1.0
C      1  0.5629090000000  0.5532000000000  0.5544800000000 1.0
C      1  0.6026230000000  0.4756670000000  0.4854530000000 1.0
C      1  0.3973810000000  0.5243310000000  0.4854200000000 1.0
C      1  0.6026190000000  0.4756690000000  0.5145800000000 1.0
C      1  0.3973770000000  0.5243330000000  0.5145470000000 1.0
C      1  0.5167270000000  0.5421840000000  0.5149710000000 1.0
C      1  0.4832680000000  0.4578180000000  0.5149700000000 1.0
C      1  0.5167320000000  0.5421820000000  0.4850300000000 1.0
C      1  0.4832730000000  0.4578160000000  0.4850290000000 1.0
C      1  0.4653650000000  0.5670370000000  0.5711790000000 1.0
C      1  0.5346140000000  0.4329700000000  0.5711950000000 1.0
C      1  0.4653860000000  0.5670300000000  0.4288050000000 1.0
C      1  0.5346350000000  0.4329630000000  0.4288210000000 1.0
C      1  0.4917140000000  0.5272690000000  0.5564210000000 1.0
C      1  0.5082700000000  0.4727360000000  0.5564260000000 1.0
C      1  0.4917300000000  0.5272640000000  0.4435740000000 1.0
C      1  0.5082860000000  0.4727310000000  0.4435790000000 1.0
C      1  0.5733230000000  0.5092570000000  0.4240970000000 1.0
C      1  0.4266990000000  0.4907360000000  0.4240760000000 1.0
C      1  0.5733010000000  0.5092640000000  0.5759240000000 1.0
C      1  0.4266770000000  0.4907430000000  0.5759030000000 1.0
C      1  0.5363610000000  0.5456120000000  0.5672810000000 1.0
C      1  0.4636190000000  0.4543940000000  0.5672750000000 1.0
C      1  0.5363810000000  0.5456060000000  0.4327250000000 1.0
C      1  0.4636390000000  0.4543880000000  0.4327190000000 1.0
C      1  0.3926610000000  0.4957740000000  0.4847190000000 1.0
C      1  0.6073440000000  0.5042240000000  0.4847500000000 1.0
C      1  0.3926560000000  0.4957760000000  0.5152500000000 1.0
C      1  0.6073390000000  0.5042260000000  0.5152820000000 1.0
C      1  0.3945760000000  0.4533130000000  0.4851840000000 1.0
C      1  0.6054290000000  0.5466860000000  0.4852100000000 1.0
C      1  0.3945710000000  0.4533140000000  0.5147900000000 1.0
C      1  0.6054250000000  0.5466870000000  0.5148160000000 1.0
C      1  0.5078470000000  0.4660750000000  0.5270600000000 1.0
C      1  0.4921450000000  0.5339270000000  0.5270540000000 1.0
C      1  0.5078550000000  0.4660730000000  0.4729460000000 1.0
C      1  0.4921530000000  0.5339250000000  0.4729400000000 1.0
C      1  0.5595020000000  0.4205170000000  0.4691970000000 1.0
C      1  0.4405070000000  0.5794800000000  0.4691720000000 1.0
C      1  0.5594930000000  0.4205200000000  0.5308280000000 1.0
C      1  0.4404980000000  0.5794830000000  0.5308030000000 1.0
C      1  0.4889600000000  0.3884710000000  0.4855680000000 1.0
C      1  0.5110440000000  0.6115270000000  0.4855610000000 1.0
C      1  0.4889560000000  0.3884720000000  0.5144390000000 1.0
C      1  0.5110400000000  0.6115290000000  0.5144320000000 1.0
C      1  0.4898620000000  0.5540830000000  0.4248570000000 1.0
C      1  0.5101600000000  0.4459100000000  0.4248650000000 1.0
C      1  0.4898400000000  0.5540900000000  0.5751350000000 1.0
C      1  0.5101380000000  0.4459170000000  0.5751430000000 1.0
C      1  0.4675810000000  0.5062860000000  0.5558720000000 1.0
C      1  0.5324030000000  0.4937190000000  0.5558820000000 1.0
C      1  0.4675970000000  0.5062810000000  0.4441180000000 1.0
C      1  0.5324190000000  0.4937140000000  0.4441280000000 1.0
C      1  0.5824170000000  0.5298260000000  0.5567910000000 1.0
C      1  0.4175660000000  0.4701800000000  0.5567690000000 1.0
C      1  0.5824340000000  0.5298200000000  0.4432310000000 1.0
C      1  0.4175830000000  0.4701740000000  0.4432090000000 1.0
C      1  0.5350170000000  0.5056410000000  0.6106510000000 1.0
C      1  0.4649500000000  0.4943700000000  0.6106420000000 1.0
C      1  0.5350500000000  0.5056300000000  0.3893580000000 1.0
C      1  0.4649830000000  0.4943590000000  0.3893490000000 1.0
C      1  0.5397000000000  0.4995280000000  0.5259430000000 1.0
C      1  0.4602920000000  0.5004740000000  0.5259310000000 1.0
C      1  0.5397080000000  0.4995260000000  0.4740690000000 1.0
C      1  0.4603000000000  0.5004720000000  0.4740570000000 1.0
C      1  0.4758060000000  0.5188320000000  0.3899850000000 1.0
C      1  0.5242270000000  0.4811570000000  0.3899940000000 1.0
C      1  0.4757730000000  0.5188430000000  0.6100060000000 1.0
C      1  0.5241940000000  0.4811680000000  0.6100150000000 1.0
C      1  0.4872110000000  0.5081710000000  0.5147140000000 1.0
C      1  0.5127850000000  0.4918310000000  0.5147180000000 1.0
C      1  0.4872150000000  0.5081690000000  0.4852820000000 1.0
C      1  0.5127890000000  0.4918290000000  0.4852860000000 1.0
END
