TITL C-65437-4806-5 -0.128204686609058 125000 -606.441865232938 0 0 88 (C2) n - 1
REM
REM in /rds/project/t2_vol4/rds-t2-cs072/BORA/CARBON/from-Arr/AIRSS/Generating-Clusters/GAP-ML-2020/Higher-Symm/SD-CG/HFTN-CG
REM
REM
REM
REM
REM
REM ./C.cell (b20cbc046b6831c77cfcea5457e17084)
REM AIRSS Version 0.9.1 bugfix July 2018 build 013d7b7c2542+ Fri, 06 Jul 2018 19:26:36 +0100
REM compiler GCC version 9.3.0
REM options -cpp -mtune=generic -march=x86-64 -g -O0
REM seed 2073186706 -2107283241 -2006409440 -258405598 -1966068052 455554182 299026282 -549931993 -88226088 -1698080661 2006153841 1007315377 -1606941829 2034721194 2015441058 53433778 -1927752859 1675250739 1906797495 1942821324 -565776110 -1992667921 -1912423557 1059567010 1091684733 -2098927123 -1094787941 2123744138 824041086 -1837826280 -728555262 -1119389785 1021400935
REM
CELL 1.54180   50.00000   50.00000   50.00000   90.00000   90.00000   90.00000
LATT -1
SFAC C  
C      1  0.4895040000000  0.4416100000000  0.5631940000000 1.0
C      1  0.4891200000000  0.5589250000000  0.4373700000000 1.0
C      1  0.4503500000000  0.5084560000000  0.5650490000000 1.0
C      1  0.4466320000000  0.4941210000000  0.4376680000000 1.0
C      1  0.4398750000000  0.4551360000000  0.4654360000000 1.0
C      1  0.4440970000000  0.5477670000000  0.5376250000000 1.0
C      1  0.4718550000000  0.4922150000000  0.4895630000000 1.0
C      1  0.4728680000000  0.5091680000000  0.5118950000000 1.0
C      1  0.5211250000000  0.4345570000000  0.4557220000000 1.0
C      1  0.5266720000000  0.5642470000000  0.5430170000000 1.0
C      1  0.4890870000000  0.4251910000000  0.5177040000000 1.0
C      1  0.4919210000000  0.5752840000000  0.4827970000000 1.0
C      1  0.5544650000000  0.5259810000000  0.4454630000000 1.0
C      1  0.5558960000000  0.4712580000000  0.5516260000000 1.0
C      1  0.5544120000000  0.5196890000000  0.5502430000000 1.0
C      1  0.5506380000000  0.4776830000000  0.4469860000000 1.0
C      1  0.4706450000000  0.5583670000000  0.5257010000000 1.0
C      1  0.4664520000000  0.4432070000000  0.4759580000000 1.0
C      1  0.4263140000000  0.4766640000000  0.4788220000000 1.0
C      1  0.4287900000000  0.5269610000000  0.5250000000000 1.0
C      1  0.5335480000000  0.4672440000000  0.5696500000000 1.0
C      1  0.5314270000000  0.5311300000000  0.4286360000000 1.0
C      1  0.5231690000000  0.4898650000000  0.5819720000000 1.0
C      1  0.5192950000000  0.5090720000000  0.4169080000000 1.0
C      1  0.5316800000000  0.4839810000000  0.4260860000000 1.0
C      1  0.5362910000000  0.5143190000000  0.5721220000000 1.0
C      1  0.4702330000000  0.4918940000000  0.5777660000000 1.0
C      1  0.4666190000000  0.5096860000000  0.4239000000000 1.0
C      1  0.5528570000000  0.4423320000000  0.4882250000000 1.0
C      1  0.5562200000000  0.5549390000000  0.5088980000000 1.0
C      1  0.4880320000000  0.5794410000000  0.5126930000000 1.0
C      1  0.4834250000000  0.4212730000000  0.4880600000000 1.0
C      1  0.4909360000000  0.4562930000000  0.5164240000000 1.0
C      1  0.4922780000000  0.5441270000000  0.4840180000000 1.0
C      1  0.4726140000000  0.4305560000000  0.5413650000000 1.0
C      1  0.4739770000000  0.5707800000000  0.4600440000000 1.0
C      1  0.5322200000000  0.4225040000000  0.4956650000000 1.0
C      1  0.5362350000000  0.5757840000000  0.5025290000000 1.0
C      1  0.5563360000000  0.4494100000000  0.5339710000000 1.0
C      1  0.5569260000000  0.5477560000000  0.4630410000000 1.0
C      1  0.4521190000000  0.5481030000000  0.4572610000000 1.0
C      1  0.4520940000000  0.4542930000000  0.5452650000000 1.0
C      1  0.5095230000000  0.5243350000000  0.5742250000000 1.0
C      1  0.5043710000000  0.4753170000000  0.4254080000000 1.0
C      1  0.5178690000000  0.5551280000000  0.4374260000000 1.0
C      1  0.5183640000000  0.4439660000000  0.5616180000000 1.0
C      1  0.5443160000000  0.4529480000000  0.4623290000000 1.0
C      1  0.5485340000000  0.5447290000000  0.5352220000000 1.0
C      1  0.4229640000000  0.5299890000000  0.4983520000000 1.0
C      1  0.4217560000000  0.4738950000000  0.5057440000000 1.0
C      1  0.4964040000000  0.4731860000000  0.4531960000000 1.0
C      1  0.5002200000000  0.5268980000000  0.5468930000000 1.0
C      1  0.4328310000000  0.5297430000000  0.4722380000000 1.0
C      1  0.4329850000000  0.4736140000000  0.5313020000000 1.0
C      1  0.4745510000000  0.4545160000000  0.4490590000000 1.0
C      1  0.4795740000000  0.5466310000000  0.5521510000000 1.0
C      1  0.4946260000000  0.5003330000000  0.5296870000000 1.0
C      1  0.4930590000000  0.4999750000000  0.4706380000000 1.0
C      1  0.5104930000000  0.4209840000000  0.4769020000000 1.0
C      1  0.5156310000000  0.5783630000000  0.5224090000000 1.0
C      1  0.5336480000000  0.4325340000000  0.5405510000000 1.0
C      1  0.5347940000000  0.5657540000000  0.4576440000000 1.0
C      1  0.5651360000000  0.4586120000000  0.5082990000000 1.0
C      1  0.5665950000000  0.5380920000000  0.4882260000000 1.0
C      1  0.5163440000000  0.5076770000000  0.4882420000000 1.0
C      1  0.5165370000000  0.4915010000000  0.5108900000000 1.0
C      1  0.5227180000000  0.5796860000000  0.4783680000000 1.0
C      1  0.5198160000000  0.4192500000000  0.5205100000000 1.0
C      1  0.5628770000000  0.5015210000000  0.4585660000000 1.0
C      1  0.5648180000000  0.4952840000000  0.5380660000000 1.0
C      1  0.4717440000000  0.4660880000000  0.5637530000000 1.0
C      1  0.4701550000000  0.5353660000000  0.4377800000000 1.0
C      1  0.5186330000000  0.5395610000000  0.5291700000000 1.0
C      1  0.5150700000000  0.4595960000000  0.4699410000000 1.0
C      1  0.4899000000000  0.4738220000000  0.5397110000000 1.0
C      1  0.4891420000000  0.5267020000000  0.4608420000000 1.0
C      1  0.4549380000000  0.5367940000000  0.5614020000000 1.0
C      1  0.4499830000000  0.4655840000000  0.4411060000000 1.0
C      1  0.4315530000000  0.5023730000000  0.4610850000000 1.0
C      1  0.4336650000000  0.5009990000000  0.5424710000000 1.0
C      1  0.4965700000000  0.5010430000000  0.5853730000000 1.0
C      1  0.4920290000000  0.4992420000000  0.4149280000000 1.0
C      1  0.4749720000000  0.5368530000000  0.5050820000000 1.0
C      1  0.4729290000000  0.4644510000000  0.4962920000000 1.0
C      1  0.5704050000000  0.5080230000000  0.4866500000000 1.0
C      1  0.5705220000000  0.4884510000000  0.5096320000000 1.0
C      1  0.5127530000000  0.4652930000000  0.5004230000000 1.0
C      1  0.5144320000000  0.5340270000000  0.4988600000000 1.0
END
