TITL C-65460-9300-4 272.384129620926 125000 -545.542775780367 0 0 79 (C1) n - 1
REM
REM in /rds/project/t2_vol4/rds-t2-cs072/BORA/CARBON/from-Arr/AIRSS/Generating-Clusters/GAP-ML-2020/Higher-Symm/SD-CG/HFTN-CG
REM
REM
REM
REM
REM
REM ./C.cell (b20cbc046b6831c77cfcea5457e17084)
REM AIRSS Version 0.9.1 bugfix July 2018 build 013d7b7c2542+ Fri, 06 Jul 2018 19:26:36 +0100
REM compiler GCC version 9.3.0
REM options -cpp -mtune=generic -march=x86-64 -g -O0
REM seed 1753017915 -27369452 -246870634 -1185226827 500986132 -208187955 -332148264 -1140904650 79545647 778064561 220216885 1472663080 -2129586331 804201931 932650333 1537719703 146095525 -1411210203 -1283720887 312964578 -990414833 349037127 19465671 -976569901 305568871 -1499571067 -1816348306 -1413986807 941367980 -1690748583 449121124 1941102054 1411206711
REM
CELL 1.54180   50.00000   50.00000   50.00000   90.00000   90.00000   90.00000
LATT -1
SFAC C  
C      1  0.4906790000000  0.5059830000000  0.4096620000000 1.0
C      1  0.4918790000000  0.5058760000000  0.5860080000000 1.0
C      1  0.4431530000000  0.4719360000000  0.5527360000000 1.0
C      1  0.4423200000000  0.4720170000000  0.4470100000000 1.0
C      1  0.5350890000000  0.5608620000000  0.4821530000000 1.0
C      1  0.5354790000000  0.5610420000000  0.5174240000000 1.0
C      1  0.4836670000000  0.5108290000000  0.5168690000000 1.0
C      1  0.4815090000000  0.5094050000000  0.4880630000000 1.0
C      1  0.4662720000000  0.4415160000000  0.5272440000000 1.0
C      1  0.4630680000000  0.4379250000000  0.4711470000000 1.0
C      1  0.5177770000000  0.5800120000000  0.4675010000000 1.0
C      1  0.5182050000000  0.5806300000000  0.5321320000000 1.0
C      1  0.5141510000000  0.4387980000000  0.4677540000000 1.0
C      1  0.5144750000000  0.4378180000000  0.5304220000000 1.0
C      1  0.4512300000000  0.4944690000000  0.5669060000000 1.0
C      1  0.4507550000000  0.4948160000000  0.4335270000000 1.0
C      1  0.4495370000000  0.5206070000000  0.5542860000000 1.0
C      1  0.4489370000000  0.5205260000000  0.4461370000000 1.0
C      1  0.5193280000000  0.4828560000000  0.5454180000000 1.0
C      1  0.5287810000000  0.4800020000000  0.4480700000000 1.0
C      1  0.5360080000000  0.5039520000000  0.5594490000000 1.0
C      1  0.5402720000000  0.5042580000000  0.4384060000000 1.0
C      1  0.4904020000000  0.4679570000000  0.4920360000000 1.0
C      1  0.4785490000000  0.4699340000000  0.5179770000000 1.0
C      1  0.4718430000000  0.5377010000000  0.5558650000000 1.0
C      1  0.4719180000000  0.5366080000000  0.4441860000000 1.0
C      1  0.5622880000000  0.5055790000000  0.5493820000000 1.0
C      1  0.5663140000000  0.5074800000000  0.4497180000000 1.0
C      1  0.4748940000000  0.5542130000000  0.5312130000000 1.0
C      1  0.4751760000000  0.5530390000000  0.4689520000000 1.0
C      1  0.4372550000000  0.5239480000000  0.5284260000000 1.0
C      1  0.4366750000000  0.5238980000000  0.4719570000000 1.0
C      1  0.4419570000000  0.4507410000000  0.5130320000000 1.0
C      1  0.4413130000000  0.4505240000000  0.4858240000000 1.0
C      1  0.4317670000000  0.4741410000000  0.5271540000000 1.0
C      1  0.4309670000000  0.4740020000000  0.4726600000000 1.0
C      1  0.5667180000000  0.5244480000000  0.5263330000000 1.0
C      1  0.5682820000000  0.5255600000000  0.4734830000000 1.0
C      1  0.5207760000000  0.5260920000000  0.4430850000000 1.0
C      1  0.5203060000000  0.5278510000000  0.5559820000000 1.0
C      1  0.5387750000000  0.4419940000000  0.5147720000000 1.0
C      1  0.5356770000000  0.4457210000000  0.4865620000000 1.0
C      1  0.4948580000000  0.5364550000000  0.4846420000000 1.0
C      1  0.4953020000000  0.5381620000000  0.5155240000000 1.0
C      1  0.4276940000000  0.4998900000000  0.4858950000000 1.0
C      1  0.4280440000000  0.4999550000000  0.5144060000000 1.0
C      1  0.5574220000000  0.4679990000000  0.5164320000000 1.0
C      1  0.5593020000000  0.4681830000000  0.4835510000000 1.0
C      1  0.4810420000000  0.4871540000000  0.4735930000000 1.0
C      1  0.4902000000000  0.4906450000000  0.5338320000000 1.0
C      1  0.4928010000000  0.5780640000000  0.5353640000000 1.0
C      1  0.4924380000000  0.5773750000000  0.4640700000000 1.0
C      1  0.4493300000000  0.5463010000000  0.5142400000000 1.0
C      1  0.4492810000000  0.5459380000000  0.4860780000000 1.0
C      1  0.4952110000000  0.5278820000000  0.5696180000000 1.0
C      1  0.4952900000000  0.5256960000000  0.4298150000000 1.0
C      1  0.5852350000000  0.5050570000000  0.5141370000000 1.0
C      1  0.5862280000000  0.5056790000000  0.4870570000000 1.0
C      1  0.4851020000000  0.4583060000000  0.5682390000000 1.0
C      1  0.4850260000000  0.4608330000000  0.4329810000000 1.0
C      1  0.5775670000000  0.4848240000000  0.4683060000000 1.0
C      1  0.5750360000000  0.4841110000000  0.5325130000000 1.0
C      1  0.5108300000000  0.4577990000000  0.4453990000000 1.0
C      1  0.5100760000000  0.4554810000000  0.5536200000000 1.0
C      1  0.5220010000000  0.5359730000000  0.5269660000000 1.0
C      1  0.5218470000000  0.5352170000000  0.4721510000000 1.0
C      1  0.5392330000000  0.5145390000000  0.5135080000000 1.0
C      1  0.5406470000000  0.5153050000000  0.4845590000000 1.0
C      1  0.4763850000000  0.4868440000000  0.4220290000000 1.0
C      1  0.4768520000000  0.4850720000000  0.5791010000000 1.0
C      1  0.4623520000000  0.4511560000000  0.4462340000000 1.0
C      1  0.4624460000000  0.4499940000000  0.5544830000000 1.0
C      1  0.5327220000000  0.4853630000000  0.5193240000000 1.0
C      1  0.5359860000000  0.4864720000000  0.4758890000000 1.0
C      1  0.4893190000000  0.4367220000000  0.4848430000000 1.0
C      1  0.4906200000000  0.4297530000000  0.5154130000000 1.0
C      1  0.5639550000000  0.5523700000000  0.4857650000000 1.0
C      1  0.5637590000000  0.5520370000000  0.5142320000000 1.0
C      1  0.5191870000000  0.4734220000000  0.4957400000000 1.0
END
