TITL C-65445-4850-8 8.11519471763171 125000 -215.217314691039 0 0 33 (C2v) n - 1
REM
REM in /rds/project/t2_vol4/rds-t2-cs072/BORA/CARBON/from-Arr/AIRSS/Generating-Clusters/GAP-ML-2020/Higher-Symm/SD-CG/HFTN-CG
REM
REM
REM
REM
REM
REM ./C.cell (b20cbc046b6831c77cfcea5457e17084)
REM AIRSS Version 0.9.1 bugfix July 2018 build 013d7b7c2542+ Fri, 06 Jul 2018 19:26:36 +0100
REM compiler GCC version 9.3.0
REM options -cpp -mtune=generic -march=x86-64 -g -O0
REM seed 1941538854 -119797392 -1926841224 -677122656 -329237553 1160095752 756725142 -635392909 1329237492 514609239 200022737 -1916930035 -161219607 1936730135 -474501685 1498494984 -421055242 -1334074383 -845723720 2006240002 1609838346 51404730 -1704880179 834885389 -145454906 121653406 -1821974705 -93530433 761368523 190920854 2120091280 1505418154 839126138
REM
CELL 1.54180   50.00000   50.00000   50.00000   90.00000   90.00000   90.00000
LATT -1
SFAC C  
C      1  0.5270160000000  0.4511190000000  0.4966310000000 1.0
C      1  0.5245780000000  0.4594420000000  0.4698070000000 1.0
C      1  0.5243930000000  0.4821600000000  0.4535750000000 1.0
C      1  0.5271200000000  0.5102680000000  0.4529920000000 1.0
C      1  0.5270720000000  0.5346290000000  0.4658270000000 1.0
C      1  0.5243340000000  0.5498300000000  0.4895510000000 1.0
C      1  0.5242740000000  0.5478780000000  0.5174020000000 1.0
C      1  0.5269160000000  0.5295140000000  0.5387850000000 1.0
C      1  0.5269160000000  0.5036010000000  0.5480960000000 1.0
C      1  0.5242000000000  0.4758500000000  0.5435850000000 1.0
C      1  0.5244610000000  0.4556190000000  0.5243430000000 1.0
C      1  0.4757980000000  0.4821690000000  0.4534720000000 1.0
C      1  0.4730840000000  0.5102780000000  0.4528770000000 1.0
C      1  0.4730860000000  0.5346390000000  0.4657120000000 1.0
C      1  0.4757290000000  0.5498390000000  0.4894480000000 1.0
C      1  0.4756700000000  0.5478870000000  0.5172990000000 1.0
C      1  0.4729300000000  0.5295240000000  0.5386700000000 1.0
C      1  0.4728810000000  0.5036110000000  0.5479810000000 1.0
C      1  0.4756060000000  0.4758590000000  0.5434820000000 1.0
C      1  0.4754190000000  0.4556280000000  0.5242390000000 1.0
C      1  0.4729810000000  0.4511290000000  0.4965160000000 1.0
C      1  0.4755360000000  0.4594510000000  0.4697030000000 1.0
C      1  0.5001040000000  0.5420250000000  0.4547730000000 1.0
C      1  0.5000590000000  0.5604160000000  0.4774390000000 1.0
C      1  0.4999450000000  0.5566780000000  0.5307690000000 1.0
C      1  0.4998990000000  0.5353040000000  0.5506480000000 1.0
C      1  0.4998720000000  0.5070600000000  0.5609530000000 1.0
C      1  0.4998690000000  0.4780000000000  0.5595030000000 1.0
C      1  0.4999390000000  0.4390620000000  0.5235270000000 1.0
C      1  0.4999980000000  0.4365760000000  0.4955540000000 1.0
C      1  0.5000570000000  0.4429400000000  0.4682010000000 1.0
C      1  0.5001290000000  0.4865170000000  0.4380090000000 1.0
C      1  0.5001290000000  0.5154950000000  0.4406280000000 1.0
END
