TITL C-65433-4819-8 -0.0204783180162191 125000 -37.1688395391424 0 0 6 (D(inf)h) n - 1
REM
REM in /rds/project/t2_vol4/rds-t2-cs072/BORA/CARBON/from-Arr/AIRSS/Generating-Clusters/GAP-ML-2020/Higher-Symm/SD-CG/HFTN-CG
REM
REM
REM
REM
REM
REM ./C.cell (b20cbc046b6831c77cfcea5457e17084)
REM AIRSS Version 0.9.1 bugfix July 2018 build 013d7b7c2542+ Fri, 06 Jul 2018 19:26:36 +0100
REM compiler GCC version 9.3.0
REM options -cpp -mtune=generic -march=x86-64 -g -O0
REM seed -401301883 2045321871 51059591 -46142201 -242840095 -84985189 -1847287616 156497441 1434849275 -321098108 1826109332 -1884696373 -2025392284 -1253775521 832284207 -1673893511 378364818 1912931824 -1215508774 -391156573 -256311445 706876853 320319760 -1023459787 -2004345107 -589248267 -709996719 -1119226244 590547729 1086216076 1027976997 -1974167762 1210397649
REM
CELL 1.54180   50.00000   50.00000   50.00000   90.00000   90.00000   90.00000
LATT -1
SFAC C  
C      1  0.5012590000000  0.5384830000000  0.5002980000000 1.0
C      1  0.5012590000000  0.5124370000000  0.5002980000000 1.0
C      1  0.5012590000000  0.4875630000000  0.5002980000000 1.0
C      1  0.5012590000000  0.4615170000000  0.5002980000000 1.0
C      1  0.5012590000000  0.4361530000000  0.5002980000000 1.0
C      1  0.5012590000000  0.5638470000000  0.5002980000000 1.0
END
