TITL C-65437-4806-2 0.147177548592703 125000 -480.501569823742 0 0 70 (C1) n - 1
REM
REM in /rds/project/t2_vol4/rds-t2-cs072/BORA/CARBON/from-Arr/AIRSS/Generating-Clusters/GAP-ML-2020/Higher-Symm/SD-CG/HFTN-CG
REM
REM
REM
REM
REM
REM ./C.cell (b20cbc046b6831c77cfcea5457e17084)
REM AIRSS Version 0.9.1 bugfix July 2018 build 013d7b7c2542+ Fri, 06 Jul 2018 19:26:36 +0100
REM compiler GCC version 9.3.0
REM options -cpp -mtune=generic -march=x86-64 -g -O0
REM seed 389300565 -814151363 -1659218208 278859328 -323691951 907083448 -440036584 977553597 992998956 1083839855 -910481158 -1879659147 480423520 453772770 1693485106 -171714253 953156525 -1624357194 692780186 1851004100 -1040966095 1112634011 1449598803 -1955419870 588008872 1850101924 885617090 -186289565 -1919997045 1258602709 1124194958 479534596 974412828
REM
CELL 1.54180   50.00000   50.00000   50.00000   90.00000   90.00000   90.00000
LATT -1
SFAC C  
C      1  0.4485820000000  0.4971620000000  0.4479580000000 1.0
C      1  0.4442190000000  0.4431960000000  0.5259450000000 1.0
C      1  0.4445810000000  0.5667590000000  0.5386830000000 1.0
C      1  0.5514070000000  0.4954330000000  0.4482780000000 1.0
C      1  0.5565660000000  0.4403480000000  0.5290670000000 1.0
C      1  0.5583500000000  0.5654620000000  0.5376710000000 1.0
C      1  0.4851460000000  0.4275910000000  0.5417880000000 1.0
C      1  0.4873100000000  0.5849360000000  0.5455110000000 1.0
C      1  0.4834830000000  0.4972640000000  0.4176500000000 1.0
C      1  0.5144770000000  0.4273130000000  0.5423740000000 1.0
C      1  0.5160610000000  0.5844930000000  0.5450610000000 1.0
C      1  0.5135550000000  0.4963740000000  0.4167380000000 1.0
C      1  0.5283300000000  0.5396060000000  0.5621140000000 1.0
C      1  0.5289250000000  0.5372610000000  0.4438780000000 1.0
C      1  0.5293390000000  0.4204700000000  0.4953620000000 1.0
C      1  0.4743130000000  0.5402440000000  0.5627010000000 1.0
C      1  0.4715490000000  0.5383840000000  0.4446420000000 1.0
C      1  0.4713460000000  0.4196930000000  0.4940130000000 1.0
C      1  0.5159960000000  0.5644310000000  0.5673660000000 1.0
C      1  0.5143640000000  0.5252420000000  0.4230170000000 1.0
C      1  0.5145780000000  0.4115020000000  0.5174660000000 1.0
C      1  0.4873030000000  0.5648450000000  0.5678550000000 1.0
C      1  0.4849030000000  0.5257820000000  0.4235840000000 1.0
C      1  0.4856140000000  0.4116910000000  0.5169590000000 1.0
C      1  0.4828060000000  0.4684190000000  0.4696430000000 1.0
C      1  0.4749180000000  0.4898330000000  0.5258530000000 1.0
C      1  0.4712680000000  0.5381250000000  0.5080450000000 1.0
C      1  0.5549020000000  0.4706720000000  0.4617300000000 1.0
C      1  0.5272930000000  0.4883820000000  0.5253330000000 1.0
C      1  0.5311550000000  0.5372890000000  0.5072530000000 1.0
C      1  0.4857350000000  0.5613200000000  0.4549770000000 1.0
C      1  0.4851040000000  0.4187670000000  0.4685530000000 1.0
C      1  0.4861790000000  0.5162110000000  0.5737360000000 1.0
C      1  0.5157470000000  0.5608420000000  0.4544780000000 1.0
C      1  0.5146120000000  0.4213480000000  0.4695090000000 1.0
C      1  0.5159650000000  0.5160340000000  0.5736950000000 1.0
C      1  0.4741440000000  0.5758170000000  0.4755360000000 1.0
C      1  0.4726430000000  0.4295230000000  0.4448330000000 1.0
C      1  0.4744720000000  0.4913230000000  0.5720360000000 1.0
C      1  0.5285230000000  0.5750240000000  0.4746670000000 1.0
C      1  0.5253350000000  0.4342460000000  0.4476010000000 1.0
C      1  0.5269930000000  0.4909000000000  0.5722060000000 1.0
C      1  0.5460930000000  0.4914040000000  0.5031430000000 1.0
C      1  0.5462840000000  0.5174010000000  0.4901560000000 1.0
C      1  0.5533010000000  0.4674380000000  0.4894010000000 1.0
C      1  0.4569550000000  0.4925760000000  0.5028320000000 1.0
C      1  0.4555360000000  0.5183850000000  0.4911130000000 1.0
C      1  0.4589340000000  0.4686970000000  0.4874900000000 1.0
C      1  0.5495680000000  0.4412140000000  0.5023540000000 1.0
C      1  0.5440750000000  0.5408620000000  0.5373270000000 1.0
C      1  0.5472700000000  0.5200280000000  0.4606950000000 1.0
C      1  0.4538260000000  0.4429400000000  0.5000010000000 1.0
C      1  0.4584900000000  0.5417720000000  0.5379590000000 1.0
C      1  0.4535460000000  0.5202750000000  0.4613250000000 1.0
C      1  0.5323590000000  0.4746590000000  0.5515680000000 1.0
C      1  0.5334810000000  0.5676240000000  0.4995680000000 1.0
C      1  0.5385110000000  0.4561630000000  0.4413300000000 1.0
C      1  0.4688580000000  0.4754190000000  0.5511180000000 1.0
C      1  0.4694400000000  0.5683610000000  0.5004700000000 1.0
C      1  0.4733640000000  0.4561300000000  0.4435310000000 1.0
C      1  0.5344480000000  0.4822630000000  0.4275790000000 1.0
C      1  0.5358150000000  0.4456480000000  0.5470580000000 1.0
C      1  0.5372460000000  0.5806350000000  0.5261170000000 1.0
C      1  0.4639060000000  0.4810390000000  0.4303830000000 1.0
C      1  0.4642610000000  0.4468260000000  0.5455400000000 1.0
C      1  0.4657620000000  0.5816100000000  0.5269240000000 1.0
C      1  0.5016200000000  0.4880460000000  0.4686300000000 1.0
C      1  0.5014530000000  0.4998620000000  0.5206370000000 1.0
C      1  0.5012790000000  0.5237300000000  0.5038030000000 1.0
C      1  0.5004840000000  0.5123830000000  0.4758560000000 1.0
END
