TITL C-65803-1625-4 37.8326178896423 125000 -373.911755035039 0 0 54 (C1) n - 1
REM
REM in /rds/project/t2_vol4/rds-t2-cs072/BORA/CARBON/from-Arr/AIRSS/Generating-Clusters/GAP-ML-2020/Higher-Symm/SD-CG/HFTN-CG
REM
REM
REM
REM
REM
REM ./C.cell (b20cbc046b6831c77cfcea5457e17084)
REM AIRSS Version 0.9.1 bugfix July 2018 build 013d7b7c2542+ Fri, 06 Jul 2018 19:26:36 +0100
REM compiler GCC version 9.3.0
REM options -cpp -mtune=generic -march=x86-64 -g -O0
REM seed 1360188577 1227084852 -1132259091 -572334032 -1692043566 -1443213679 2056046891 -922230041 -420120506 170427602 -236374068 39455986 -1962149827 2002271489 -1827374776 462343874 2076245077 -222580817 -1836151412 -553347162 9359997 405021131 -61830834 -983095138 -388437048 679843234 108718335 -2040785655 -737497037 -207735215 1180434965 -684695488 203087064
REM
CELL 1.54180   50.00000   50.00000   50.00000   90.00000   90.00000   90.00000
LATT -1
SFAC C  
C      1  0.4555130000000  0.4400970000000  0.4696640000000 1.0
C      1  0.4445980000000  0.4860480000000  0.4555240000000 1.0
C      1  0.4812940000000  0.4556570000000  0.4468340000000 1.0
C      1  0.5413590000000  0.4410790000000  0.5223850000000 1.0
C      1  0.5377970000000  0.5691430000000  0.4729620000000 1.0
C      1  0.4626480000000  0.5511910000000  0.5136200000000 1.0
C      1  0.5682180000000  0.4785450000000  0.5387550000000 1.0
C      1  0.5678800000000  0.5364470000000  0.4480900000000 1.0
C      1  0.4350880000000  0.5208980000000  0.5408330000000 1.0
C      1  0.5331230000000  0.4536200000000  0.5671980000000 1.0
C      1  0.5203040000000  0.5382400000000  0.4402940000000 1.0
C      1  0.4732500000000  0.5390710000000  0.5619660000000 1.0
C      1  0.4677420000000  0.4316180000000  0.4475050000000 1.0
C      1  0.4696910000000  0.4817910000000  0.4426690000000 1.0
C      1  0.4351480000000  0.4619160000000  0.4694250000000 1.0
C      1  0.5217030000000  0.4469590000000  0.5424060000000 1.0
C      1  0.4740160000000  0.5573380000000  0.5396880000000 1.0
C      1  0.5158000000000  0.5618660000000  0.4565930000000 1.0
C      1  0.5467630000000  0.4753340000000  0.5597820000000 1.0
C      1  0.4546230000000  0.5190350000000  0.5620000000000 1.0
C      1  0.5437940000000  0.5223440000000  0.4452220000000 1.0
C      1  0.5652620000000  0.4587120000000  0.5193480000000 1.0
C      1  0.4407360000000  0.5331320000000  0.5149480000000 1.0
C      1  0.5610140000000  0.5495230000000  0.4701420000000 1.0
C      1  0.4848340000000  0.5540460000000  0.4943080000000 1.0
C      1  0.5542320000000  0.4922500000000  0.4835430000000 1.0
C      1  0.4884570000000  0.4830020000000  0.5489880000000 1.0
C      1  0.5348830000000  0.5603010000000  0.5006780000000 1.0
C      1  0.5343600000000  0.4471630000000  0.4956310000000 1.0
C      1  0.4605940000000  0.4458980000000  0.4983450000000 1.0
C      1  0.4373420000000  0.4923310000000  0.5368570000000 1.0
C      1  0.4402600000000  0.5102290000000  0.4688900000000 1.0
C      1  0.5565050000000  0.5044990000000  0.5312350000000 1.0
C      1  0.5059030000000  0.4589470000000  0.4607140000000 1.0
C      1  0.5014100000000  0.5323250000000  0.5568960000000 1.0
C      1  0.4942220000000  0.5271880000000  0.4472550000000 1.0
C      1  0.4900530000000  0.5498150000000  0.4666430000000 1.0
C      1  0.4613970000000  0.4913270000000  0.5527890000000 1.0
C      1  0.5563790000000  0.4654260000000  0.4922460000000 1.0
C      1  0.5027000000000  0.5538700000000  0.5376640000000 1.0
C      1  0.4962240000000  0.4579030000000  0.5351770000000 1.0
C      1  0.5082890000000  0.4483440000000  0.4873190000000 1.0
C      1  0.5399470000000  0.4972510000000  0.4589480000000 1.0
C      1  0.4917860000000  0.4997060000000  0.4439160000000 1.0
C      1  0.5359170000000  0.5008060000000  0.5513910000000 1.0
C      1  0.4368750000000  0.4635200000000  0.4980660000000 1.0
C      1  0.5564070000000  0.5408290000000  0.4974790000000 1.0
C      1  0.4342430000000  0.5129230000000  0.4951760000000 1.0
C      1  0.5092600000000  0.5586390000000  0.5111430000000 1.0
C      1  0.5082550000000  0.5047140000000  0.5540920000000 1.0
C      1  0.4872660000000  0.4489630000000  0.5087240000000 1.0
C      1  0.5158180000000  0.4842000000000  0.4524140000000 1.0
C      1  0.5572940000000  0.5132910000000  0.5039920000000 1.0
C      1  0.4305570000000  0.4873370000000  0.5105210000000 1.0
END
