TITL C-65806-1245-11 7.24358299871709 125000 -146.656074952427 0 0 24 (C3i) n - 1
REM
REM in /rds/project/t2_vol4/rds-t2-cs072/BORA/CARBON/from-Arr/AIRSS/Generating-Clusters/GAP-ML-2020/Higher-Symm/SD-CG/HFTN-CG
REM
REM
REM
REM
REM
REM ./C.cell (b20cbc046b6831c77cfcea5457e17084)
REM AIRSS Version 0.9.1 bugfix July 2018 build 013d7b7c2542+ Fri, 06 Jul 2018 19:26:36 +0100
REM compiler GCC version 9.3.0
REM options -cpp -mtune=generic -march=x86-64 -g -O0
REM seed -269167389 -510275943 -1051797916 -486750375 -512099211 1936952743 -2059572971 -70845747 -1299123567 703034030 -185804686 922293547 1874740752 -47989435 -938400622 -1928525191 -805652792 -1839198150 497397094 1176686976 -1679394820 -870804553 -487502450 -681680967 -487474243 1726791060 2136646190 1654749268 366022930 2074566006 -659067312 -1814466986 -1051770469
REM
CELL 1.54180   50.00000   50.00000   50.00000   90.00000   90.00000   90.00000
LATT -1
SFAC C  
C      1  0.5142210000000  0.5361410000000  0.5087550000000 1.0
C      1  0.4999060000000  0.4635920000000  0.5161080000000 1.0
C      1  0.4856240000000  0.5361270000000  0.5085570000000 1.0
C      1  0.4857790000000  0.4638590000000  0.4912450000000 1.0
C      1  0.5000940000000  0.5364080000000  0.4838920000000 1.0
C      1  0.5143760000000  0.4638730000000  0.4914440000000 1.0
C      1  0.4801750000000  0.5074940000000  0.5722890000000 1.0
C      1  0.4275660000000  0.4914450000000  0.5188420000000 1.0
C      1  0.4473770000000  0.5088640000000  0.4468290000000 1.0
C      1  0.5198250000000  0.4925050000000  0.4277110000000 1.0
C      1  0.5724340000000  0.5085550000000  0.4811580000000 1.0
C      1  0.5526230000000  0.4911350000000  0.5531710000000 1.0
C      1  0.4716920000000  0.5156110000000  0.5213510000000 1.0
C      1  0.4675200000000  0.4842750000000  0.4859050000000 1.0
C      1  0.4958010000000  0.5162470000000  0.4650810000000 1.0
C      1  0.5283080000000  0.4843900000000  0.4786500000000 1.0
C      1  0.5324810000000  0.5157250000000  0.5140950000000 1.0
C      1  0.5041990000000  0.4837540000000  0.5349180000000 1.0
C      1  0.4682420000000  0.5035330000000  0.4626470000000 1.0
C      1  0.5165040000000  0.4973830000000  0.4537720000000 1.0
C      1  0.5482570000000  0.5032620000000  0.4912290000000 1.0
C      1  0.5317580000000  0.4964670000000  0.5373530000000 1.0
C      1  0.4834960000000  0.5026170000000  0.5462290000000 1.0
C      1  0.4517430000000  0.4967380000000  0.5087710000000 1.0
END
