TITL C-65819-1193-6 -0.283259243763802 125000 -614.947097415745 0 0 89 (C1) n - 1
REM
REM in /rds/project/t2_vol4/rds-t2-cs072/BORA/CARBON/from-Arr/AIRSS/Generating-Clusters/GAP-ML-2020/Higher-Symm/SD-CG/HFTN-CG
REM
REM
REM
REM
REM
REM ./C.cell (b20cbc046b6831c77cfcea5457e17084)
REM AIRSS Version 0.9.1 bugfix July 2018 build 013d7b7c2542+ Fri, 06 Jul 2018 19:26:36 +0100
REM compiler GCC version 9.3.0
REM options -cpp -mtune=generic -march=x86-64 -g -O0
REM seed -761416064 438514257 -2112751162 -1319573529 1811981181 1808036296 -269032027 2131801921 -754679972 -228708787 829153377 2084476589 -624168179 5388583 1325820495 -526382373 -1175027323 572943792 1367213531 -1268144854 -1796366883 439220245 -2017937253 1517901532 -1181405278 9347630 1955146885 1744580970 1654584843 651736232 1191661457 -412807445 1733022644
REM
CELL 1.54180   50.00000   50.00000   50.00000   90.00000   90.00000   90.00000
LATT -1
SFAC C  
C      1  0.5003870000000  0.5282960000000  0.4486110000000 1.0
C      1  0.5288100000000  0.5391030000000  0.4545470000000 1.0
C      1  0.5435700000000  0.5268100000000  0.4800290000000 1.0
C      1  0.5512890000000  0.5381920000000  0.5083210000000 1.0
C      1  0.5369790000000  0.5275060000000  0.5337400000000 1.0
C      1  0.5130960000000  0.5386420000000  0.5503260000000 1.0
C      1  0.4847210000000  0.5264740000000  0.5474550000000 1.0
C      1  0.4569970000000  0.5390110000000  0.5371390000000 1.0
C      1  0.4473200000000  0.5254100000000  0.5120120000000 1.0
C      1  0.4492970000000  0.5382090000000  0.4833890000000 1.0
C      1  0.4714880000000  0.5268920000000  0.4613910000000 1.0
C      1  0.5775400000000  0.5217810000000  0.5120840000000 1.0
C      1  0.5595470000000  0.5202210000000  0.5529210000000 1.0
C      1  0.5215870000000  0.5213120000000  0.5758930000000 1.0
C      1  0.4773560000000  0.5172870000000  0.5746690000000 1.0
C      1  0.4375530000000  0.5205490000000  0.5547600000000 1.0
C      1  0.4188370000000  0.5182290000000  0.5146610000000 1.0
C      1  0.4261300000000  0.5213400000000  0.4711600000000 1.0
C      1  0.4573110000000  0.5178720000000  0.4376120000000 1.0
C      1  0.4985980000000  0.5203050000000  0.4195070000000 1.0
C      1  0.5423110000000  0.5213810000000  0.4323850000000 1.0
C      1  0.5696290000000  0.5189070000000  0.4681680000000 1.0
C      1  0.5003660000000  0.4641710000000  0.4195090000000 1.0
C      1  0.5436290000000  0.4671870000000  0.4319450000000 1.0
C      1  0.5726930000000  0.4670030000000  0.4669310000000 1.0
C      1  0.5784040000000  0.4678470000000  0.5115070000000 1.0
C      1  0.5594170000000  0.4651390000000  0.5519430000000 1.0
C      1  0.5214780000000  0.4670070000000  0.5742630000000 1.0
C      1  0.4774840000000  0.4649950000000  0.5755270000000 1.0
C      1  0.4392380000000  0.4644770000000  0.5530490000000 1.0
C      1  0.4207200000000  0.4646260000000  0.5132640000000 1.0
C      1  0.4280230000000  0.4655740000000  0.4696030000000 1.0
C      1  0.4576510000000  0.4664740000000  0.4360940000000 1.0
C      1  0.4455030000000  0.4480890000000  0.5103070000000 1.0
C      1  0.4538720000000  0.4566680000000  0.4828370000000 1.0
C      1  0.4755780000000  0.4566850000000  0.4592050000000 1.0
C      1  0.5017360000000  0.4489310000000  0.4447470000000 1.0
C      1  0.5291220000000  0.4567610000000  0.4564770000000 1.0
C      1  0.5502540000000  0.4518350000000  0.4769340000000 1.0
C      1  0.5495500000000  0.4586820000000  0.5065820000000 1.0
C      1  0.5399560000000  0.4504730000000  0.5341660000000 1.0
C      1  0.5123690000000  0.4582040000000  0.5455970000000 1.0
C      1  0.4833720000000  0.4500420000000  0.5508500000000 1.0
C      1  0.4580420000000  0.4487000000000  0.5364470000000 1.0
C      1  0.5872210000000  0.4800370000000  0.4878470000000 1.0
C      1  0.5796580000000  0.4794450000000  0.5369550000000 1.0
C      1  0.5467600000000  0.4789390000000  0.5739080000000 1.0
C      1  0.4998320000000  0.4783500000000  0.5871580000000 1.0
C      1  0.4523810000000  0.4778340000000  0.5738570000000 1.0
C      1  0.4189270000000  0.4775310000000  0.5382790000000 1.0
C      1  0.4122550000000  0.4778210000000  0.4897500000000 1.0
C      1  0.4340260000000  0.4789900000000  0.4457880000000 1.0
C      1  0.4749060000000  0.4779600000000  0.4163580000000 1.0
C      1  0.5249780000000  0.4788200000000  0.4140290000000 1.0
C      1  0.5665680000000  0.4799700000000  0.4419390000000 1.0
C      1  0.4821910000000  0.5787820000000  0.5383600000000 1.0
C      1  0.4613870000000  0.5656840000000  0.5255630000000 1.0
C      1  0.4564980000000  0.5651290000000  0.4948260000000 1.0
C      1  0.4715350000000  0.5816520000000  0.4790720000000 1.0
C      1  0.4905610000000  0.5882010000000  0.4634310000000 1.0
C      1  0.5133350000000  0.5883180000000  0.4509000000000 1.0
C      1  0.5332480000000  0.5694980000000  0.4580810000000 1.0
C      1  0.5489180000000  0.5766360000000  0.4799010000000 1.0
C      1  0.5457730000000  0.5678190000000  0.5062590000000 1.0
C      1  0.5287180000000  0.5779220000000  0.5253810000000 1.0
C      1  0.5085170000000  0.5676730000000  0.5408820000000 1.0
C      1  0.5796150000000  0.5083200000000  0.5370150000000 1.0
C      1  0.5468540000000  0.5083390000000  0.5750720000000 1.0
C      1  0.4999750000000  0.5069760000000  0.5872550000000 1.0
C      1  0.4514830000000  0.5064420000000  0.5743150000000 1.0
C      1  0.4176900000000  0.5062610000000  0.5400380000000 1.0
C      1  0.4109490000000  0.5066640000000  0.4903370000000 1.0
C      1  0.4328540000000  0.5076930000000  0.4471260000000 1.0
C      1  0.4737500000000  0.5067560000000  0.4173720000000 1.0
C      1  0.5241890000000  0.5080640000000  0.4144730000000 1.0
C      1  0.5651640000000  0.5081390000000  0.4424150000000 1.0
C      1  0.5860820000000  0.5083950000000  0.4884720000000 1.0
C      1  0.5261540000000  0.5028870000000  0.4882410000000 1.0
C      1  0.5380330000000  0.4865160000000  0.5074650000000 1.0
C      1  0.5325120000000  0.4988010000000  0.5307110000000 1.0
C      1  0.5088560000000  0.4855980000000  0.5337680000000 1.0
C      1  0.4885210000000  0.5039850000000  0.5257180000000 1.0
C      1  0.4610250000000  0.4980920000000  0.5178280000000 1.0
C      1  0.4588010000000  0.4862560000000  0.4928640000000 1.0
C      1  0.4783320000000  0.5029440000000  0.4804790000000 1.0
C      1  0.4899700000000  0.4804730000000  0.4687620000000 1.0
C      1  0.5040880000000  0.4979480000000  0.4511810000000 1.0
C      1  0.5211950000000  0.4839790000000  0.4674790000000 1.0
C      1  0.4990380000000  0.5136160000000  0.4989880000000 1.0
END
