TITL C-65818-1255-4 0.0329795748330922 125000 -545.47948686817 0 0 80 (C2v) n - 1
REM
REM in /rds/project/t2_vol4/rds-t2-cs072/BORA/CARBON/from-Arr/AIRSS/Generating-Clusters/GAP-ML-2020/Higher-Symm/SD-CG/HFTN-CG
REM
REM
REM
REM
REM
REM ./C.cell (b20cbc046b6831c77cfcea5457e17084)
REM AIRSS Version 0.9.1 bugfix July 2018 build 013d7b7c2542+ Fri, 06 Jul 2018 19:26:36 +0100
REM compiler GCC version 9.3.0
REM options -cpp -mtune=generic -march=x86-64 -g -O0
REM seed 1669867364 1590983913 216597625 -865953912 1830706278 -1458765379 432350661 1083773650 -1170494076 -1932865326 -402529625 1817671927 -1578944529 1556183095 1489311544 -1433326004 1120668912 38481929 1416039100 -1009688316 1274761731 -60042747 324098549 -1933012473 -732979696 -1594942238 -2021491356 -188007092 379768318 1545895836 1763381678 -581785174 -2038136407
REM
CELL 1.54180   50.00000   50.00000   50.00000   90.00000   90.00000   90.00000
LATT -1
SFAC C  
C      1  0.4865160000000  0.5357860000000  0.5668140000000 1.0
C      1  0.5640770000000  0.5357410000000  0.4802850000000 1.0
C      1  0.4494300000000  0.5368530000000  0.4511770000000 1.0
C      1  0.4865140000000  0.4636160000000  0.5668130000000 1.0
C      1  0.5640740000000  0.4636580000000  0.4802840000000 1.0
C      1  0.4494270000000  0.4625550000000  0.4511750000000 1.0
C      1  0.5168580000000  0.5368490000000  0.5679860000000 1.0
C      1  0.4352700000000  0.5357890000000  0.4780370000000 1.0
C      1  0.5489900000000  0.5357420000000  0.4541500000000 1.0
C      1  0.5168560000000  0.4625510000000  0.5679850000000 1.0
C      1  0.4352670000000  0.4636190000000  0.4780360000000 1.0
C      1  0.5489880000000  0.4636590000000  0.4541490000000 1.0
C      1  0.4890190000000  0.4852970000000  0.4793670000000 1.0
C      1  0.4860340000000  0.4722330000000  0.5237640000000 1.0
C      1  0.5282600000000  0.4721030000000  0.4998770000000 1.0
C      1  0.4890200000000  0.5141070000000  0.4793680000000 1.0
C      1  0.4860360000000  0.5271700000000  0.5237650000000 1.0
C      1  0.5282620000000  0.5272980000000  0.4998780000000 1.0
C      1  0.5141100000000  0.4721040000000  0.4753630000000 1.0
C      1  0.5122450000000  0.4852960000000  0.5196030000000 1.0
C      1  0.4723060000000  0.4722340000000  0.4999820000000 1.0
C      1  0.5141120000000  0.5272990000000  0.4753640000000 1.0
C      1  0.5122460000000  0.5141050000000  0.5196030000000 1.0
C      1  0.4723080000000  0.5271710000000  0.4999830000000 1.0
C      1  0.5748070000000  0.4849630000000  0.5253680000000 1.0
C      1  0.4859540000000  0.4845200000000  0.4214990000000 1.0
C      1  0.4421340000000  0.4852530000000  0.5504810000000 1.0
C      1  0.5748090000000  0.5144330000000  0.5253690000000 1.0
C      1  0.4859550000000  0.5148860000000  0.4215000000000 1.0
C      1  0.4421350000000  0.5141520000000  0.5504810000000 1.0
C      1  0.4272150000000  0.4852540000000  0.5246360000000 1.0
C      1  0.5153160000000  0.4849670000000  0.4223080000000 1.0
C      1  0.5608230000000  0.4845150000000  0.5511980000000 1.0
C      1  0.4272170000000  0.5141530000000  0.5246360000000 1.0
C      1  0.5153170000000  0.5144370000000  0.4223080000000 1.0
C      1  0.5608240000000  0.5148810000000  0.5511990000000 1.0
C      1  0.5250370000000  0.5771780000000  0.5339010000000 1.0
C      1  0.5130400000000  0.5754410000000  0.4627910000000 1.0
C      1  0.4605920000000  0.5753650000000  0.5055330000000 1.0
C      1  0.5250320000000  0.4222220000000  0.5338990000000 1.0
C      1  0.5130350000000  0.4239610000000  0.4627890000000 1.0
C      1  0.4605860000000  0.4240410000000  0.5055300000000 1.0
C      1  0.4753720000000  0.5753640000000  0.5311380000000 1.0
C      1  0.4830380000000  0.5771810000000  0.4611430000000 1.0
C      1  0.5386160000000  0.5754400000000  0.5070970000000 1.0
C      1  0.4753670000000  0.4240400000000  0.5311350000000 1.0
C      1  0.4830320000000  0.4222240000000  0.4611410000000 1.0
C      1  0.5386100000000  0.4239600000000  0.5070940000000 1.0
C      1  0.5486350000000  0.4492090000000  0.5003360000000 1.0
C      1  0.4670040000000  0.4408400000000  0.4501110000000 1.0
C      1  0.4777770000000  0.4497630000000  0.5431450000000 1.0
C      1  0.5486390000000  0.5501900000000  0.5003380000000 1.0
C      1  0.4670090000000  0.5585660000000  0.4501130000000 1.0
C      1  0.4777800000000  0.5496400000000  0.5431460000000 1.0
C      1  0.4513930000000  0.4497640000000  0.4974380000000 1.0
C      1  0.5239020000000  0.4492100000000  0.4574890000000 1.0
C      1  0.5265670000000  0.4408370000000  0.5532960000000 1.0
C      1  0.4513970000000  0.5496420000000  0.4974400000000 1.0
C      1  0.5239050000000  0.5501920000000  0.4574900000000 1.0
C      1  0.5265710000000  0.5585630000000  0.5532970000000 1.0
C      1  0.5427210000000  0.5144530000000  0.4355800000000 1.0
C      1  0.4239760000000  0.5143040000000  0.4937870000000 1.0
C      1  0.5365310000000  0.5146270000000  0.5685630000000 1.0
C      1  0.5427200000000  0.4849480000000  0.4355800000000 1.0
C      1  0.4239750000000  0.4851050000000  0.4937860000000 1.0
C      1  0.5365300000000  0.4847710000000  0.5685620000000 1.0
C      1  0.4587700000000  0.5146320000000  0.4338510000000 1.0
C      1  0.5770210000000  0.5144510000000  0.4950010000000 1.0
C      1  0.4672290000000  0.5143010000000  0.5687160000000 1.0
C      1  0.4587690000000  0.4847760000000  0.4338510000000 1.0
C      1  0.5770200000000  0.4849460000000  0.4950000000000 1.0
C      1  0.4672280000000  0.4851020000000  0.5687160000000 1.0
C      1  0.4990290000000  0.4072910000000  0.5280930000000 1.0
C      1  0.4990360000000  0.5921110000000  0.5280960000000 1.0
C      1  0.4750540000000  0.4072920000000  0.4865610000000 1.0
C      1  0.5221040000000  0.4090860000000  0.4870870000000 1.0
C      1  0.4750610000000  0.5921130000000  0.4865640000000 1.0
C      1  0.5221110000000  0.5903150000000  0.4870900000000 1.0
C      1  0.4992640000000  0.3980290000000  0.5002710000000 1.0
C      1  0.4992710000000  0.6013740000000  0.5002750000000 1.0
END
