TITL C-65804-1183-7 -1172.4218090103 125000 -374.85432340353 0 0 57 (C1) n - 1
REM
REM in /rds/project/t2_vol4/rds-t2-cs072/BORA/CARBON/from-Arr/AIRSS/Generating-Clusters/GAP-ML-2020/Higher-Symm/SD-CG/HFTN-CG
REM
REM
REM
REM
REM
REM ./C.cell (b20cbc046b6831c77cfcea5457e17084)
REM AIRSS Version 0.9.1 bugfix July 2018 build 013d7b7c2542+ Fri, 06 Jul 2018 19:26:36 +0100
REM compiler GCC version 9.3.0
REM options -cpp -mtune=generic -march=x86-64 -g -O0
REM seed -873030672 1571663416 1399583576 1060652213 -168995285 616584555 -2055586514 1384507411 145146767 -691750204 375273211 -645796613 44218141 -1644368255 1568288506 -195591258 -1643214690 1572492195 1059160942 754583918 -1765551270 -511532766 -1101030571 2028177827 -500724716 1161447407 -1192378109 1742797589 -358792934 -364220806 82448464 782317080 -147707689
REM
CELL 1.54180   50.00000   50.00000   50.00000   90.00000   90.00000   90.00000
LATT -1
SFAC C  
C      1  0.5637710000000  0.5116670000000  0.5214020000000 1.0
C      1  0.5625260000000  0.5462340000000  0.4909700000000 1.0
C      1  0.5661750000000  0.5094690000000  0.4718840000000 1.0
C      1  0.5656150000000  0.4719100000000  0.4903150000000 1.0
C      1  0.5616510000000  0.4675990000000  0.5334920000000 1.0
C      1  0.4370330000000  0.5182740000000  0.4763800000000 1.0
C      1  0.4412250000000  0.5464900000000  0.5092830000000 1.0
C      1  0.4392960000000  0.5029920000000  0.5241830000000 1.0
C      1  0.4391180000000  0.4569690000000  0.5206900000000 1.0
C      1  0.4379420000000  0.4770850000000  0.4815320000000 1.0
C      1  0.4942090000000  0.5006110000000  0.4326540000000 1.0
C      1  0.4963510000000  0.4413470000000  0.4666140000000 1.0
C      1  0.4898380000000  0.4495760000000  0.5464020000000 1.0
C      1  0.4966270000000  0.5330520000000  0.5596660000000 1.0
C      1  0.4906660000000  0.5675490000000  0.4971790000000 1.0
C      1  0.5066980000000  0.5072980000000  0.5678060000000 1.0
C      1  0.5128870000000  0.4439550000000  0.5376490000000 1.0
C      1  0.5034660000000  0.4524240000000  0.4433710000000 1.0
C      1  0.5050870000000  0.5267240000000  0.4389300000000 1.0
C      1  0.5136320000000  0.5677710000000  0.5076250000000 1.0
C      1  0.5164150000000  0.5182240000000  0.4849440000000 1.0
C      1  0.5167680000000  0.4899370000000  0.4782100000000 1.0
C      1  0.5172190000000  0.4759040000000  0.5038540000000 1.0
C      1  0.5169160000000  0.4952820000000  0.5254410000000 1.0
C      1  0.5163730000000  0.5220080000000  0.5134410000000 1.0
C      1  0.4862880000000  0.5186450000000  0.5182170000000 1.0
C      1  0.4867610000000  0.4899720000000  0.5240180000000 1.0
C      1  0.4860790000000  0.4761870000000  0.4989040000000 1.0
C      1  0.4865520000000  0.4951320000000  0.4766430000000 1.0
C      1  0.4859220000000  0.5215240000000  0.4893990000000 1.0
C      1  0.5228020000000  0.5348070000000  0.4615090000000 1.0
C      1  0.5318220000000  0.4803020000000  0.4548470000000 1.0
C      1  0.5238010000000  0.4468900000000  0.5110230000000 1.0
C      1  0.5275980000000  0.4950660000000  0.5515690000000 1.0
C      1  0.5274900000000  0.5485140000000  0.5250260000000 1.0
C      1  0.4757010000000  0.5339170000000  0.5393940000000 1.0
C      1  0.4756270000000  0.4751940000000  0.5488190000000 1.0
C      1  0.4789230000000  0.4488270000000  0.4910690000000 1.0
C      1  0.4727240000000  0.4938800000000  0.4509010000000 1.0
C      1  0.4788370000000  0.5493480000000  0.4779690000000 1.0
C      1  0.4486430000000  0.5431920000000  0.4830670000000 1.0
C      1  0.4455990000000  0.4955430000000  0.4595260000000 1.0
C      1  0.4493510000000  0.4544700000000  0.4950450000000 1.0
C      1  0.4466010000000  0.4778170000000  0.5366260000000 1.0
C      1  0.4481440000000  0.5305320000000  0.5304350000000 1.0
C      1  0.5562650000000  0.5392870000000  0.5166640000000 1.0
C      1  0.5551130000000  0.4927100000000  0.5422710000000 1.0
C      1  0.5538370000000  0.4553490000000  0.5101160000000 1.0
C      1  0.5586620000000  0.4820510000000  0.4633990000000 1.0
C      1  0.5531050000000  0.5344860000000  0.4680010000000 1.0
C      1  0.4962820000000  0.5481420000000  0.4533020000000 1.0
C      1  0.5045970000000  0.4331390000000  0.4915970000000 1.0
C      1  0.5128290000000  0.4768140000000  0.4337070000000 1.0
C      1  0.4862130000000  0.4897580000000  0.5710150000000 1.0
C      1  0.5169990000000  0.5491530000000  0.5516480000000 1.0
C      1  0.5741490000000  0.4990580000000  0.4981080000000 1.0
C      1  0.4289400000000  0.4998500000000  0.4977010000000 1.0
END
