TITL C-65793-1254-4 -25.8890017787438 125000 -436.585713120806 0 0 63 (C1) n - 1
REM
REM in /rds/project/t2_vol4/rds-t2-cs072/BORA/CARBON/from-Arr/AIRSS/Generating-Clusters/GAP-ML-2020/Higher-Symm/SD-CG/HFTN-CG
REM
REM
REM
REM
REM
REM ./C.cell (b20cbc046b6831c77cfcea5457e17084)
REM AIRSS Version 0.9.1 bugfix July 2018 build 013d7b7c2542+ Fri, 06 Jul 2018 19:26:36 +0100
REM compiler GCC version 9.3.0
REM options -cpp -mtune=generic -march=x86-64 -g -O0
REM seed -957911257 1034888489 474125416 359290268 -975509719 361307568 -2087278435 -1486648713 -354820411 -2084347958 938456880 -603590986 -2095750967 -1722978702 1307258475 -1007584135 -2119737241 200785682 1356230374 284583077 1828728627 140294929 -1173381092 611543576 118366554 316099041 1708981914 -235524689 203972236 -528687814 1134517436 -1268281564 -1066317109
REM
CELL 1.54180   50.00000   50.00000   50.00000   90.00000   90.00000   90.00000
LATT -1
SFAC C  
C      1  0.5688240000000  0.4921380000000  0.4967550000000 1.0
C      1  0.4632080000000  0.4481770000000  0.5009470000000 1.0
C      1  0.4658300000000  0.5552960000000  0.4922560000000 1.0
C      1  0.4345110000000  0.5006420000000  0.4949070000000 1.0
C      1  0.5371640000000  0.4450680000000  0.5011470000000 1.0
C      1  0.5331590000000  0.5577930000000  0.4950330000000 1.0
C      1  0.4727120000000  0.4699400000000  0.5482240000000 1.0
C      1  0.4660200000000  0.5405010000000  0.5645750000000 1.0
C      1  0.5742710000000  0.4936000000000  0.5449440000000 1.0
C      1  0.5205660000000  0.4592720000000  0.5448840000000 1.0
C      1  0.5214100000000  0.5281590000000  0.5627060000000 1.0
C      1  0.4558870000000  0.4960590000000  0.5517600000000 1.0
C      1  0.5273480000000  0.5428010000000  0.4508070000000 1.0
C      1  0.5272480000000  0.4490620000000  0.4546790000000 1.0
C      1  0.4456720000000  0.4975330000000  0.4487460000000 1.0
C      1  0.4738990000000  0.5442770000000  0.4474450000000 1.0
C      1  0.4716770000000  0.4507770000000  0.4542870000000 1.0
C      1  0.5544950000000  0.4949320000000  0.4519490000000 1.0
C      1  0.4971900000000  0.4997200000000  0.4957340000000 1.0
C      1  0.4704080000000  0.5407320000000  0.5165110000000 1.0
C      1  0.5322930000000  0.5195890000000  0.5194700000000 1.0
C      1  0.5221740000000  0.5024600000000  0.5016360000000 1.0
C      1  0.5261630000000  0.5477660000000  0.5207900000000 1.0
C      1  0.4752510000000  0.5109610000000  0.5128800000000 1.0
C      1  0.5676350000000  0.5184190000000  0.4586900000000 1.0
C      1  0.4851130000000  0.4285000000000  0.4650260000000 1.0
C      1  0.4457240000000  0.5459320000000  0.4506960000000 1.0
C      1  0.4319650000000  0.5218200000000  0.4521810000000 1.0
C      1  0.5126700000000  0.4276490000000  0.4651410000000 1.0
C      1  0.5547240000000  0.5429310000000  0.4572850000000 1.0
C      1  0.5480710000000  0.5248510000000  0.5657780000000 1.0
C      1  0.5044180000000  0.4380630000000  0.5583670000000 1.0
C      1  0.4330240000000  0.5078940000000  0.5664120000000 1.0
C      1  0.4383280000000  0.5335780000000  0.5678420000000 1.0
C      1  0.4803250000000  0.4468140000000  0.5647310000000 1.0
C      1  0.5703370000000  0.5119910000000  0.5629680000000 1.0
C      1  0.4865420000000  0.5209790000000  0.4353950000000 1.0
C      1  0.5289910000000  0.4949280000000  0.4390790000000 1.0
C      1  0.4853760000000  0.4711320000000  0.4390810000000 1.0
C      1  0.5149010000000  0.5203450000000  0.4374400000000 1.0
C      1  0.4716850000000  0.4959730000000  0.4362200000000 1.0
C      1  0.5144430000000  0.4704530000000  0.4401090000000 1.0
C      1  0.4859840000000  0.5572760000000  0.4704020000000 1.0
C      1  0.5607800000000  0.4774400000000  0.4737500000000 1.0
C      1  0.4535910000000  0.4584950000000  0.4752610000000 1.0
C      1  0.5143000000000  0.5580210000000  0.4715660000000 1.0
C      1  0.4405750000000  0.4824520000000  0.4726830000000 1.0
C      1  0.5462680000000  0.4544830000000  0.4754630000000 1.0
C      1  0.4404070000000  0.5508630000000  0.4799170000000 1.0
C      1  0.5723970000000  0.5200380000000  0.4879390000000 1.0
C      1  0.4845940000000  0.4304120000000  0.4952370000000 1.0
C      1  0.5588340000000  0.5472890000000  0.4861940000000 1.0
C      1  0.4269750000000  0.5252460000000  0.4822000000000 1.0
C      1  0.5138160000000  0.4298120000000  0.4951590000000 1.0
C      1  0.4595160000000  0.4654370000000  0.5222290000000 1.0
C      1  0.4809440000000  0.5490560000000  0.5422960000000 1.0
C      1  0.5636470000000  0.4805460000000  0.5232010000000 1.0
C      1  0.5425600000000  0.4589840000000  0.5250790000000 1.0
C      1  0.5097510000000  0.5489800000000  0.5443730000000 1.0
C      1  0.4517050000000  0.4941830000000  0.5186900000000 1.0
C      1  0.4767450000000  0.5145590000000  0.5618530000000 1.0
C      1  0.5025720000000  0.5058390000000  0.5625740000000 1.0
C      1  0.5023840000000  0.4810780000000  0.5501720000000 1.0
END
