TITL C-65448-6154-6 -30.3988443366635 125000 -332.674954149503 0 0 50 (C2) n - 1
REM
REM in /rds/project/t2_vol4/rds-t2-cs072/BORA/CARBON/from-Arr/AIRSS/Generating-Clusters/GAP-ML-2020/Higher-Symm/SD-CG/HFTN-CG
REM
REM
REM
REM
REM
REM ./C.cell (b20cbc046b6831c77cfcea5457e17084)
REM AIRSS Version 0.9.1 bugfix July 2018 build 013d7b7c2542+ Fri, 06 Jul 2018 19:26:36 +0100
REM compiler GCC version 9.3.0
REM options -cpp -mtune=generic -march=x86-64 -g -O0
REM seed -1152622638 966074259 1054011523 1973542100 228316889 1772004779 1421392837 -1540856846 1365214657 -1273920942 -86283326 60789620 -811159148 -1163336059 -2031331285 -1260836217 -1473271849 -733726520 372229977 1731396447 -619003779 -848034493 -45068613 -19364761 267170843 -1991515842 859121675 -369875392 898274530 -629202698 -1704623093 1883163374 1862110612
REM
CELL 1.54180   50.00000   50.00000   50.00000   90.00000   90.00000   90.00000
LATT -1
SFAC C  
C      1  0.4852800000000  0.5614350000000  0.5261550000000 1.0
C      1  0.5290950000000  0.5633800000000  0.5020450000000 1.0
C      1  0.4784460000000  0.5651830000000  0.4773410000000 1.0
C      1  0.4868510000000  0.4350960000000  0.4720810000000 1.0
C      1  0.5296490000000  0.4349490000000  0.4979070000000 1.0
C      1  0.4907200000000  0.4306760000000  0.5281490000000 1.0
C      1  0.5149590000000  0.4355180000000  0.4737740000000 1.0
C      1  0.4701800000000  0.4313740000000  0.4942960000000 1.0
C      1  0.5182240000000  0.4339340000000  0.5236910000000 1.0
C      1  0.5135170000000  0.5623340000000  0.5255520000000 1.0
C      1  0.4687300000000  0.5615140000000  0.5033680000000 1.0
C      1  0.5180230000000  0.5663420000000  0.4764410000000 1.0
C      1  0.4725410000000  0.5167450000000  0.5505810000000 1.0
C      1  0.5572390000000  0.5203390000000  0.4994290000000 1.0
C      1  0.4702730000000  0.5196390000000  0.4521240000000 1.0
C      1  0.4713130000000  0.4789070000000  0.4507260000000 1.0
C      1  0.5578960000000  0.4794090000000  0.4984120000000 1.0
C      1  0.4737690000000  0.4758380000000  0.5496780000000 1.0
C      1  0.5281710000000  0.4802110000000  0.4496070000000 1.0
C      1  0.4439890000000  0.4766540000000  0.5006760000000 1.0
C      1  0.5306470000000  0.4772870000000  0.5485440000000 1.0
C      1  0.5296600000000  0.5182150000000  0.5493800000000 1.0
C      1  0.4428890000000  0.5173850000000  0.5020410000000 1.0
C      1  0.5275870000000  0.5211230000000  0.4508630000000 1.0
C      1  0.5619130000000  0.5004560000000  0.4784200000000 1.0
C      1  0.4509750000000  0.4987310000000  0.4579200000000 1.0
C      1  0.4887730000000  0.4962620000000  0.5638030000000 1.0
C      1  0.5625880000000  0.4994670000000  0.5191610000000 1.0
C      1  0.4530690000000  0.4956230000000  0.5444420000000 1.0
C      1  0.4858680000000  0.5003290000000  0.4370590000000 1.0
C      1  0.4394490000000  0.4960480000000  0.5218010000000 1.0
C      1  0.5499110000000  0.4983480000000  0.5423030000000 1.0
C      1  0.5122740000000  0.5010620000000  0.4363580000000 1.0
C      1  0.4382490000000  0.4973700000000  0.4811550000000 1.0
C      1  0.5478050000000  0.5009700000000  0.4560450000000 1.0
C      1  0.5152160000000  0.4970870000000  0.5636570000000 1.0
C      1  0.5305120000000  0.5323500000000  0.5003560000000 1.0
C      1  0.4835560000000  0.5337980000000  0.4742150000000 1.0
C      1  0.4850860000000  0.5298520000000  0.5277900000000 1.0
C      1  0.5317980000000  0.4665160000000  0.4986090000000 1.0
C      1  0.4860670000000  0.4622260000000  0.5266670000000 1.0
C      1  0.4852770000000  0.4661540000000  0.4731230000000 1.0
C      1  0.4699230000000  0.4627960000000  0.5000820000000 1.0
C      1  0.5171960000000  0.4649680000000  0.5255920000000 1.0
C      1  0.5158610000000  0.4671070000000  0.4725260000000 1.0
C      1  0.4691280000000  0.5304470000000  0.5016820000000 1.0
C      1  0.5146430000000  0.5347310000000  0.4735190000000 1.0
C      1  0.5156370000000  0.5307990000000  0.5271900000000 1.0
C      1  0.4739280000000  0.4137380000000  0.5148120000000 1.0
C      1  0.4975480000000  0.5829940000000  0.4693500000000 1.0
END
