TITL C-65454-5490-2 52.9533312883393 125000 -404.666089137161 0 0 60 (C1) n - 1
REM
REM in /rds/project/t2_vol4/rds-t2-cs072/BORA/CARBON/from-Arr/AIRSS/Generating-Clusters/GAP-ML-2020/Higher-Symm/SD-CG/HFTN-CG
REM
REM
REM
REM
REM
REM ./C.cell (b20cbc046b6831c77cfcea5457e17084)
REM AIRSS Version 0.9.1 bugfix July 2018 build 013d7b7c2542+ Fri, 06 Jul 2018 19:26:36 +0100
REM compiler GCC version 9.3.0
REM options -cpp -mtune=generic -march=x86-64 -g -O0
REM seed -814603011 -476379456 1804918325 872635751 920415420 565953706 -353424299 450296262 215419895 -1991746750 945607012 1262680864 1741449343 -233501553 812693571 1015571516 -769358772 -586293033 -1221478303 -1783721338 -655678969 -1701948085 -561752557 1142390121 1146905654 1203834106 -1437071773 638880107 1995359555 -865316380 340553477 1952815162 -1373732034
REM
CELL 1.54180   50.00000   50.00000   50.00000   90.00000   90.00000   90.00000
LATT -1
SFAC C  
C      1  0.5186480000000  0.4856100000000  0.4593850000000 1.0
C      1  0.5129080000000  0.4753080000000  0.5457190000000 1.0
C      1  0.5174500000000  0.5405400000000  0.5068170000000 1.0
C      1  0.4922990000000  0.4849020000000  0.4724200000000 1.0
C      1  0.4918710000000  0.4854140000000  0.5274060000000 1.0
C      1  0.4900870000000  0.5326120000000  0.4992220000000 1.0
C      1  0.5189480000000  0.5137450000000  0.4589580000000 1.0
C      1  0.5149080000000  0.5328530000000  0.5358770000000 1.0
C      1  0.5147770000000  0.4486750000000  0.5011030000000 1.0
C      1  0.4911620000000  0.5173810000000  0.4718310000000 1.0
C      1  0.4892990000000  0.5164390000000  0.5268300000000 1.0
C      1  0.4932460000000  0.4691900000000  0.4992380000000 1.0
C      1  0.4245320000000  0.4874710000000  0.4700810000000 1.0
C      1  0.4195920000000  0.4835050000000  0.5202250000000 1.0
C      1  0.4213600000000  0.5284270000000  0.4989840000000 1.0
C      1  0.5887360000000  0.4827910000000  0.4788200000000 1.0
C      1  0.5854150000000  0.4852590000000  0.5283640000000 1.0
C      1  0.5879840000000  0.5267400000000  0.5016240000000 1.0
C      1  0.4236300000000  0.5174270000000  0.4729310000000 1.0
C      1  0.4184220000000  0.5111320000000  0.5220670000000 1.0
C      1  0.4219760000000  0.4717300000000  0.4936660000000 1.0
C      1  0.5895280000000  0.5125970000000  0.4782480000000 1.0
C      1  0.5867330000000  0.5125980000000  0.5278420000000 1.0
C      1  0.5862400000000  0.4698830000000  0.5028540000000 1.0
C      1  0.4552150000000  0.4884790000000  0.4285490000000 1.0
C      1  0.4814600000000  0.4366560000000  0.5539910000000 1.0
C      1  0.4750220000000  0.5747030000000  0.5235340000000 1.0
C      1  0.4797440000000  0.4800130000000  0.4157540000000 1.0
C      1  0.5071570000000  0.4472040000000  0.5487900000000 1.0
C      1  0.5003190000000  0.5837530000000  0.5313270000000 1.0
C      1  0.4660710000000  0.5149720000000  0.4286070000000 1.0
C      1  0.4766150000000  0.5627980000000  0.5517500000000 1.0
C      1  0.4806420000000  0.4253420000000  0.5285240000000 1.0
C      1  0.4888380000000  0.5056840000000  0.4129070000000 1.0
C      1  0.5043250000000  0.5587650000000  0.5475080000000 1.0
C      1  0.5073980000000  0.4329840000000  0.5236070000000 1.0
C      1  0.4667920000000  0.5547710000000  0.5052750000000 1.0
C      1  0.4683800000000  0.4682230000000  0.4648630000000 1.0
C      1  0.4638900000000  0.4841430000000  0.5396800000000 1.0
C      1  0.5409760000000  0.5401730000000  0.4923140000000 1.0
C      1  0.5415710000000  0.4706240000000  0.4668480000000 1.0
C      1  0.5377820000000  0.4880460000000  0.5451040000000 1.0
C      1  0.4677440000000  0.4548820000000  0.4899310000000 1.0
C      1  0.4692630000000  0.5273750000000  0.4536920000000 1.0
C      1  0.4628350000000  0.5123810000000  0.5415040000000 1.0
C      1  0.5398390000000  0.4549520000000  0.4914240000000 1.0
C      1  0.5426140000000  0.5262740000000  0.4672700000000 1.0
C      1  0.5390290000000  0.5170180000000  0.5444010000000 1.0
C      1  0.5640540000000  0.5414520000000  0.5089180000000 1.0
C      1  0.5657140000000  0.4833850000000  0.4606110000000 1.0
C      1  0.5600930000000  0.4727440000000  0.5352170000000 1.0
C      1  0.4418260000000  0.5446100000000  0.5123310000000 1.0
C      1  0.4449210000000  0.4769320000000  0.4518450000000 1.0
C      1  0.4427680000000  0.4686910000000  0.5300390000000 1.0
C      1  0.5611740000000  0.4572760000000  0.5100960000000 1.0
C      1  0.5665640000000  0.5127860000000  0.4600200000000 1.0
C      1  0.5630690000000  0.5277550000000  0.5349490000000 1.0
C      1  0.4437990000000  0.4548040000000  0.5034260000000 1.0
C      1  0.4433060000000  0.5310830000000  0.4591950000000 1.0
C      1  0.4394400000000  0.5260400000000  0.5356900000000 1.0
END
