TITL C-65458-5732-6 0.224182889138013 125000 -825.979683697044 0 0 120 (C1) n - 1
REM
REM in /rds/project/t2_vol4/rds-t2-cs072/BORA/CARBON/from-Arr/AIRSS/Generating-Clusters/GAP-ML-2020/Higher-Symm/SD-CG/HFTN-CG
REM
REM
REM
REM
REM
REM ./C.cell (b20cbc046b6831c77cfcea5457e17084)
REM AIRSS Version 0.9.1 bugfix July 2018 build 013d7b7c2542+ Fri, 06 Jul 2018 19:26:36 +0100
REM compiler GCC version 9.3.0
REM options -cpp -mtune=generic -march=x86-64 -g -O0
REM seed -1442419831 -511088778 1462896615 -817228329 1042614852 410090845 1746702431 1394605815 1087448034 527607679 -492551259 -259713031 -1637607638 -351126889 878441325 2139379514 2138629564 794100361 2066216599 -1993034433 -2011508434 -1421691617 -888006300 -447717857 -68254067 1926718915 -1210172771 1318259525 381546020 1004917792 2044478598 -1533928448 -1898433099
REM
CELL 1.54180   50.00000   50.00000   50.00000   90.00000   90.00000   90.00000
LATT -1
SFAC C  
C      1  0.5390450000000  0.4556960000000  0.5609650000000 1.0
C      1  0.4967340000000  0.5542370000000  0.4510970000000 1.0
C      1  0.5105250000000  0.4555170000000  0.5650410000000 1.0
C      1  0.4894970000000  0.5141010000000  0.4192600000000 1.0
C      1  0.5418060000000  0.5271500000000  0.4934900000000 1.0
C      1  0.5119080000000  0.4102290000000  0.4722850000000 1.0
C      1  0.4453020000000  0.5120950000000  0.5515280000000 1.0
C      1  0.4447240000000  0.4292010000000  0.5035190000000 1.0
C      1  0.4012430000000  0.5271430000000  0.4925290000000 1.0
C      1  0.5748740000000  0.4601520000000  0.5142380000000 1.0
C      1  0.5023630000000  0.5383430000000  0.4265090000000 1.0
C      1  0.4784670000000  0.4715910000000  0.5252100000000 1.0
C      1  0.5846310000000  0.5289020000000  0.5385240000000 1.0
C      1  0.4847450000000  0.4596190000000  0.4264910000000 1.0
C      1  0.5133610000000  0.5331070000000  0.4962650000000 1.0
C      1  0.5143780000000  0.5925520000000  0.5265640000000 1.0
C      1  0.5540140000000  0.5354500000000  0.4281800000000 1.0
C      1  0.5041340000000  0.4082470000000  0.5193110000000 1.0
C      1  0.5084450000000  0.4280100000000  0.4511100000000 1.0
C      1  0.4659440000000  0.5644570000000  0.4536090000000 1.0
C      1  0.4738370000000  0.5168290000000  0.5357870000000 1.0
C      1  0.5048090000000  0.5042150000000  0.5028270000000 1.0
C      1  0.4242180000000  0.5097990000000  0.5302740000000 1.0
C      1  0.5092630000000  0.4695770000000  0.4163390000000 1.0
C      1  0.4472240000000  0.5604800000000  0.5517560000000 1.0
C      1  0.5703760000000  0.5000810000000  0.4744910000000 1.0
C      1  0.5129620000000  0.4837740000000  0.4789680000000 1.0
C      1  0.5337540000000  0.4380870000000  0.4414120000000 1.0
C      1  0.5567840000000  0.4361280000000  0.5179510000000 1.0
C      1  0.5342970000000  0.4417610000000  0.4968020000000 1.0
C      1  0.4642070000000  0.4163970000000  0.4858430000000 1.0
C      1  0.5615740000000  0.4746380000000  0.5613240000000 1.0
C      1  0.5736160000000  0.4772220000000  0.4542630000000 1.0
C      1  0.5132580000000  0.4372510000000  0.5165710000000 1.0
C      1  0.5573440000000  0.4840460000000  0.4995310000000 1.0
C      1  0.5491840000000  0.5450360000000  0.4555570000000 1.0
C      1  0.4990040000000  0.5047140000000  0.5521780000000 1.0
C      1  0.5446600000000  0.5151340000000  0.4666100000000 1.0
C      1  0.5216310000000  0.4999040000000  0.4572410000000 1.0
C      1  0.5405660000000  0.4167560000000  0.4805000000000 1.0
C      1  0.5190270000000  0.5088590000000  0.5293400000000 1.0
C      1  0.5919710000000  0.5022920000000  0.5331050000000 1.0
C      1  0.5938030000000  0.5222100000000  0.5124270000000 1.0
C      1  0.5307100000000  0.3956130000000  0.5176950000000 1.0
C      1  0.4573090000000  0.5047620000000  0.4589950000000 1.0
C      1  0.4302560000000  0.5607900000000  0.5293570000000 1.0
C      1  0.4436880000000  0.5493020000000  0.4929500000000 1.0
C      1  0.4458440000000  0.5371010000000  0.5685480000000 1.0
C      1  0.4935970000000  0.5460660000000  0.4806260000000 1.0
C      1  0.5523460000000  0.4065450000000  0.5067290000000 1.0
C      1  0.4300140000000  0.4616490000000  0.5376220000000 1.0
C      1  0.5360610000000  0.4690360000000  0.4877730000000 1.0
C      1  0.4831880000000  0.5444340000000  0.5277630000000 1.0
C      1  0.5496910000000  0.5752320000000  0.4952930000000 1.0
C      1  0.4912770000000  0.5992560000000  0.5087150000000 1.0
C      1  0.4905970000000  0.4068890000000  0.4913670000000 1.0
C      1  0.5277810000000  0.5338740000000  0.5820160000000 1.0
C      1  0.4583630000000  0.4299840000000  0.4609360000000 1.0
C      1  0.4652620000000  0.4875370000000  0.4831420000000 1.0
C      1  0.4611960000000  0.4757390000000  0.4233150000000 1.0
C      1  0.5303330000000  0.5843310000000  0.4765560000000 1.0
C      1  0.5067430000000  0.6002400000000  0.4828740000000 1.0
C      1  0.4720410000000  0.4754470000000  0.5757550000000 1.0
C      1  0.5086020000000  0.4963770000000  0.4074450000000 1.0
C      1  0.4446710000000  0.5479210000000  0.4638590000000 1.0
C      1  0.4770960000000  0.4985950000000  0.5108590000000 1.0
C      1  0.4880050000000  0.4664530000000  0.4785110000000 1.0
C      1  0.4164930000000  0.4826690000000  0.5232690000000 1.0
C      1  0.4386380000000  0.4610560000000  0.5642960000000 1.0
C      1  0.5624100000000  0.5492170000000  0.4832550000000 1.0
C      1  0.4889460000000  0.4335580000000  0.5636260000000 1.0
C      1  0.4659690000000  0.5850680000000  0.4980580000000 1.0
C      1  0.4143810000000  0.4700390000000  0.4955650000000 1.0
C      1  0.4876190000000  0.6068200000000  0.4637050000000 1.0
C      1  0.5753290000000  0.4507330000000  0.4659060000000 1.0
C      1  0.5561390000000  0.5059340000000  0.4180610000000 1.0
C      1  0.4768490000000  0.5685620000000  0.5485710000000 1.0
C      1  0.4902280000000  0.5925130000000  0.5379840000000 1.0
C      1  0.5321040000000  0.5105210000000  0.4038900000000 1.0
C      1  0.5218020000000  0.5580820000000  0.5684940000000 1.0
C      1  0.4678550000000  0.5021570000000  0.4320210000000 1.0
C      1  0.4194810000000  0.4648450000000  0.4504630000000 1.0
C      1  0.4470420000000  0.4883210000000  0.5689650000000 1.0
C      1  0.4569670000000  0.5361170000000  0.5936980000000 1.0
C      1  0.4397200000000  0.5755440000000  0.5070740000000 1.0
C      1  0.4843160000000  0.4453100000000  0.4527650000000 1.0
C      1  0.5614480000000  0.5392430000000  0.5516150000000 1.0
C      1  0.4830190000000  0.5390390000000  0.5857720000000 1.0
C      1  0.4226000000000  0.4407080000000  0.4890270000000 1.0
C      1  0.4345040000000  0.5219110000000  0.4582810000000 1.0
C      1  0.4924750000000  0.4763780000000  0.5544960000000 1.0
C      1  0.5362160000000  0.4395620000000  0.5386970000000 1.0
C      1  0.5857460000000  0.4486920000000  0.4907760000000 1.0
C      1  0.5595350000000  0.4970920000000  0.5766100000000 1.0
C      1  0.5284020000000  0.5373510000000  0.4147090000000 1.0
C      1  0.5351380000000  0.4609150000000  0.4252260000000 1.0
C      1  0.4911740000000  0.4545900000000  0.5068590000000 1.0
C      1  0.4527130000000  0.4549740000000  0.5183730000000 1.0
C      1  0.5391060000000  0.5784010000000  0.5225640000000 1.0
C      1  0.5843330000000  0.5271340000000  0.4867900000000 1.0
C      1  0.5035140000000  0.5192140000000  0.5795740000000 1.0
C      1  0.5260820000000  0.5651430000000  0.4562530000000 1.0
C      1  0.4070510000000  0.4825660000000  0.4704630000000 1.0
C      1  0.5815630000000  0.4759410000000  0.5390400000000 1.0
C      1  0.4306410000000  0.4398380000000  0.4620700000000 1.0
C      1  0.4910320000000  0.4127650000000  0.5462390000000 1.0
C      1  0.4683650000000  0.5882610000000  0.4688560000000 1.0
C      1  0.5458320000000  0.5062720000000  0.5158590000000 1.0
C      1  0.4645810000000  0.4482410000000  0.5727820000000 1.0
C      1  0.5530490000000  0.5233550000000  0.5742100000000 1.0
C      1  0.4213100000000  0.5339270000000  0.5134740000000 1.0
C      1  0.4356580000000  0.4717230000000  0.4308420000000 1.0
C      1  0.4934060000000  0.5617890000000  0.5716090000000 1.0
C      1  0.5126260000000  0.5390660000000  0.5254830000000 1.0
C      1  0.4096750000000  0.5119160000000  0.4709530000000 1.0
C      1  0.4736460000000  0.5527890000000  0.5000190000000 1.0
C      1  0.5582660000000  0.4800740000000  0.4300430000000 1.0
C      1  0.4440820000000  0.4721650000000  0.4958520000000 1.0
C      1  0.5379750000000  0.5567470000000  0.5426370000000 1.0
C      1  0.5547720000000  0.4309860000000  0.4587540000000 1.0
END
