TITL C-65451-5471-4 -0.140266810495162 125000 -272.170930331823 0 0 40 (C1) n - 1
REM
REM in /rds/project/t2_vol4/rds-t2-cs072/BORA/CARBON/from-Arr/AIRSS/Generating-Clusters/GAP-ML-2020/Higher-Symm/SD-CG/HFTN-CG
REM
REM
REM
REM
REM
REM ./C.cell (b20cbc046b6831c77cfcea5457e17084)
REM AIRSS Version 0.9.1 bugfix July 2018 build 013d7b7c2542+ Fri, 06 Jul 2018 19:26:36 +0100
REM compiler GCC version 9.3.0
REM options -cpp -mtune=generic -march=x86-64 -g -O0
REM seed -920616176 -742606696 -1316865775 1365135344 -787946066 -1365527977 35870340 -96307091 65175458 -130547093 613395009 1875152167 -1767527444 -799100140 794195619 -301902949 636904046 -1879269430 770608453 -379056233 904959075 -2129680601 -1204368826 695027283 1450090167 612632940 -1806415552 -858336086 125833934 98237430 1099696684 681865825 209890210
REM
CELL 1.54180   50.00000   50.00000   50.00000   90.00000   90.00000   90.00000
LATT -1
SFAC C  
C      1  0.4682630000000  0.5703980000000  0.5029770000000 1.0
C      1  0.4977800000000  0.5882300000000  0.4837540000000 1.0
C      1  0.5163120000000  0.5675560000000  0.5162830000000 1.0
C      1  0.4702220000000  0.5862040000000  0.4777580000000 1.0
C      1  0.4931040000000  0.5845550000000  0.5132850000000 1.0
C      1  0.5192730000000  0.5687660000000  0.4854680000000 1.0
C      1  0.5082280000000  0.4474750000000  0.5416830000000 1.0
C      1  0.4600630000000  0.4496730000000  0.4859810000000 1.0
C      1  0.5315710000000  0.4483600000000  0.4717140000000 1.0
C      1  0.5069130000000  0.4495490000000  0.4574860000000 1.0
C      1  0.4605100000000  0.4490680000000  0.5146040000000 1.0
C      1  0.5324700000000  0.4469910000000  0.5267140000000 1.0
C      1  0.4676350000000  0.4749950000000  0.4732290000000 1.0
C      1  0.5402160000000  0.4727840000000  0.4852060000000 1.0
C      1  0.4937780000000  0.4729970000000  0.5427040000000 1.0
C      1  0.4685910000000  0.4737350000000  0.5282790000000 1.0
C      1  0.5407100000000  0.4721260000000  0.5142390000000 1.0
C      1  0.4924300000000  0.4750540000000  0.4581430000000 1.0
C      1  0.5092440000000  0.4973190000000  0.5429920000000 1.0
C      1  0.4605500000000  0.4991620000000  0.4866890000000 1.0
C      1  0.5333590000000  0.4980000000000  0.4730870000000 1.0
C      1  0.5079380000000  0.4992900000000  0.4586090000000 1.0
C      1  0.4611920000000  0.4986460000000  0.5162840000000 1.0
C      1  0.5342650000000  0.4967120000000  0.5279000000000 1.0
C      1  0.5385070000000  0.5223770000000  0.4866220000000 1.0
C      1  0.4968180000000  0.5227990000000  0.5403710000000 1.0
C      1  0.4702860000000  0.5241890000000  0.4774540000000 1.0
C      1  0.5389810000000  0.5219000000000  0.5156610000000 1.0
C      1  0.4954960000000  0.5243290000000  0.4628790000000 1.0
C      1  0.4710710000000  0.5233010000000  0.5265430000000 1.0
C      1  0.5382550000000  0.4245350000000  0.4858610000000 1.0
C      1  0.4912410000000  0.4247830000000  0.5405630000000 1.0
C      1  0.4686950000000  0.4268480000000  0.4715570000000 1.0
C      1  0.5386400000000  0.4239460000000  0.5111420000000 1.0
C      1  0.4900130000000  0.4267860000000  0.4579860000000 1.0
C      1  0.4694960000000  0.4255830000000  0.5277170000000 1.0
C      1  0.4718430000000  0.5422230000000  0.5020880000000 1.0
C      1  0.5176900000000  0.5401630000000  0.5266540000000 1.0
C      1  0.5166600000000  0.5412020000000  0.4773200000000 1.0
C      1  0.5012130000000  0.5389950000000  0.5019090000000 1.0
END
