TITL C-65799-1175-1 -6.52267841325913 125000 -568.769621926439 0 0 82 (C1) n - 1
REM
REM in /rds/project/t2_vol4/rds-t2-cs072/BORA/CARBON/from-Arr/AIRSS/Generating-Clusters/GAP-ML-2020/Higher-Symm/SD-CG/HFTN-CG
REM
REM
REM
REM
REM
REM ./C.cell (b20cbc046b6831c77cfcea5457e17084)
REM AIRSS Version 0.9.1 bugfix July 2018 build 013d7b7c2542+ Fri, 06 Jul 2018 19:26:36 +0100
REM compiler GCC version 9.3.0
REM options -cpp -mtune=generic -march=x86-64 -g -O0
REM seed 1944960339 817987632 -719512789 -688728547 1269750917 1855141562 -1556411506 -1887559410 1017165143 1986841091 1671095894 -1682007192 19254122 1519052394 2019101889 1086607006 1378048085 -2024882302 -174154087 -1124745506 1250550912 -1936995374 -53912620 497896124 465720123 -691709825 -1129455406 1109999537 945143614 -2045262126 267979057 -115421598 -1113785571
REM
CELL 1.54180   50.00000   50.00000   50.00000   90.00000   90.00000   90.00000
LATT -1
SFAC C  
C      1  0.4970220000000  0.5130950000000  0.5810050000000 1.0
C      1  0.5136270000000  0.5828960000000  0.4979700000000 1.0
C      1  0.4335610000000  0.4776700000000  0.5289670000000 1.0
C      1  0.4706870000000  0.5784230000000  0.4699470000000 1.0
C      1  0.5392970000000  0.4540340000000  0.5404340000000 1.0
C      1  0.4898740000000  0.5268680000000  0.4891510000000 1.0
C      1  0.5320220000000  0.5392420000000  0.4615480000000 1.0
C      1  0.5182020000000  0.5176970000000  0.5001880000000 1.0
C      1  0.4501860000000  0.4606270000000  0.4537940000000 1.0
C      1  0.5589700000000  0.4913750000000  0.4719070000000 1.0
C      1  0.4869760000000  0.5885150000000  0.4946880000000 1.0
C      1  0.5081150000000  0.5000090000000  0.4588430000000 1.0
C      1  0.4703350000000  0.4508700000000  0.5567680000000 1.0
C      1  0.5619080000000  0.4544210000000  0.4993030000000 1.0
C      1  0.5599890000000  0.5358530000000  0.5325090000000 1.0
C      1  0.4893950000000  0.4759730000000  0.4209390000000 1.0
C      1  0.4935030000000  0.5380150000000  0.5628430000000 1.0
C      1  0.5449460000000  0.4472190000000  0.4554750000000 1.0
C      1  0.4726650000000  0.5059840000000  0.5350870000000 1.0
C      1  0.4406160000000  0.5259750000000  0.4465520000000 1.0
C      1  0.4565500000000  0.4938970000000  0.5663580000000 1.0
C      1  0.5614360000000  0.4725080000000  0.5400690000000 1.0
C      1  0.5432130000000  0.5262180000000  0.4392340000000 1.0
C      1  0.5401600000000  0.5398710000000  0.4905410000000 1.0
C      1  0.4705280000000  0.5477940000000  0.5013480000000 1.0
C      1  0.4801960000000  0.5685440000000  0.4464440000000 1.0
C      1  0.5707660000000  0.5008790000000  0.4975550000000 1.0
C      1  0.4344870000000  0.5397250000000  0.4693270000000 1.0
C      1  0.5364060000000  0.4453280000000  0.5106740000000 1.0
C      1  0.5251680000000  0.4299810000000  0.4665280000000 1.0
C      1  0.5274180000000  0.5093320000000  0.4192670000000 1.0
C      1  0.5207350000000  0.4256890000000  0.4946370000000 1.0
C      1  0.4733110000000  0.5868420000000  0.5192470000000 1.0
C      1  0.5019410000000  0.4411600000000  0.4539280000000 1.0
C      1  0.5357340000000  0.4843770000000  0.5758700000000 1.0
C      1  0.4721750000000  0.5012330000000  0.4868310000000 1.0
C      1  0.4501050000000  0.5178290000000  0.5499860000000 1.0
C      1  0.5712090000000  0.4770260000000  0.5138340000000 1.0
C      1  0.4369160000000  0.4716400000000  0.5000260000000 1.0
C      1  0.5033250000000  0.5310530000000  0.4610290000000 1.0
C      1  0.5444610000000  0.4870930000000  0.4263420000000 1.0
C      1  0.4940250000000  0.4597160000000  0.4749650000000 1.0
C      1  0.4836140000000  0.4853170000000  0.4650140000000 1.0
C      1  0.4799080000000  0.5216910000000  0.4219040000000 1.0
C      1  0.4996790000000  0.5025240000000  0.4148840000000 1.0
C      1  0.4929790000000  0.4643680000000  0.5699190000000 1.0
C      1  0.4529790000000  0.5588300000000  0.4807640000000 1.0
C      1  0.5167600000000  0.5052420000000  0.5264180000000 1.0
C      1  0.4412050000000  0.4980130000000  0.4867720000000 1.0
C      1  0.4271810000000  0.5066060000000  0.5334370000000 1.0
C      1  0.4239480000000  0.5210150000000  0.4898220000000 1.0
C      1  0.5615540000000  0.4616220000000  0.4722130000000 1.0
C      1  0.4758630000000  0.4399640000000  0.4839030000000 1.0
C      1  0.4562560000000  0.5091410000000  0.4325800000000 1.0
C      1  0.5257730000000  0.4941640000000  0.4811230000000 1.0
C      1  0.5160820000000  0.4689800000000  0.4942230000000 1.0
C      1  0.5225610000000  0.5492620000000  0.5593780000000 1.0
C      1  0.4653500000000  0.4801960000000  0.4397950000000 1.0
C      1  0.4491030000000  0.4525170000000  0.4809970000000 1.0
C      1  0.4768980000000  0.4884220000000  0.5130080000000 1.0
C      1  0.5311930000000  0.5642790000000  0.5070570000000 1.0
C      1  0.5219360000000  0.4620020000000  0.5640530000000 1.0
C      1  0.4884820000000  0.5440140000000  0.4383470000000 1.0
C      1  0.4486280000000  0.4700790000000  0.5528780000000 1.0
C      1  0.5380810000000  0.5549210000000  0.5346370000000 1.0
C      1  0.4973870000000  0.5148960000000  0.5444400000000 1.0
C      1  0.5386160000000  0.5305810000000  0.5730470000000 1.0
C      1  0.5594560000000  0.5029180000000  0.4452620000000 1.0
C      1  0.5641390000000  0.5273470000000  0.5057290000000 1.0
C      1  0.4724500000000  0.4259380000000  0.5446780000000 1.0
C      1  0.5598660000000  0.5204780000000  0.5570720000000 1.0
C      1  0.5035270000000  0.4812070000000  0.5169210000000 1.0
C      1  0.5244710000000  0.5088690000000  0.5853960000000 1.0
C      1  0.4667730000000  0.5455780000000  0.5525730000000 1.0
C      1  0.4813000000000  0.4894280000000  0.5799750000000 1.0
C      1  0.5347500000000  0.4617850000000  0.4327040000000 1.0
C      1  0.5070790000000  0.4564370000000  0.4302100000000 1.0
C      1  0.4115880000000  0.5196260000000  0.5142880000000 1.0
C      1  0.4811600000000  0.4135560000000  0.5241460000000 1.0
C      1  0.4919630000000  0.4222130000000  0.5002240000000 1.0
C      1  0.4687490000000  0.5614460000000  0.5283610000000 1.0
C      1  0.5585510000000  0.4920330000000  0.5598920000000 1.0
END
