TITL C-65452-6107-5 106.6360104505 125000 -790.122365372968 0 0 115 (Cs) n - 1
REM
REM in /rds/project/t2_vol4/rds-t2-cs072/BORA/CARBON/from-Arr/AIRSS/Generating-Clusters/GAP-ML-2020/Higher-Symm/SD-CG/HFTN-CG
REM
REM
REM
REM
REM
REM ./C.cell (b20cbc046b6831c77cfcea5457e17084)
REM AIRSS Version 0.9.1 bugfix July 2018 build 013d7b7c2542+ Fri, 06 Jul 2018 19:26:36 +0100
REM compiler GCC version 9.3.0
REM options -cpp -mtune=generic -march=x86-64 -g -O0
REM seed -645475425 -575575744 -263033509 -317608828 -1012544319 -1071885575 -785096647 -164400461 -1261311452 138958146 -569501738 721922274 -1658986708 1862926287 750946352 -1972113121 1972148921 -886202399 57538847 134497523 -1405007080 -395622739 -1651724838 1126044255 747383574 -116865213 -690205024 1656419277 -979065605 1833729859 -1897049609 200192209 -1843561565
REM
CELL 1.54180   50.00000   50.00000   50.00000   90.00000   90.00000   90.00000
LATT -1
SFAC C  
C      1  0.5718540000000  0.4714040000000  0.4715230000000 1.0
C      1  0.5734890000000  0.5292840000000  0.5265180000000 1.0
C      1  0.4289830000000  0.4713090000000  0.4709460000000 1.0
C      1  0.4268260000000  0.5291870000000  0.5259250000000 1.0
C      1  0.5749350000000  0.4723830000000  0.5263740000000 1.0
C      1  0.5721230000000  0.5292830000000  0.4709060000000 1.0
C      1  0.4254570000000  0.4722840000000  0.5257700000000 1.0
C      1  0.4286420000000  0.5291880000000  0.4703260000000 1.0
C      1  0.5153170000000  0.5781980000000  0.4475270000000 1.0
C      1  0.5152160000000  0.4213760000000  0.5538120000000 1.0
C      1  0.4855710000000  0.5781790000000  0.4474070000000 1.0
C      1  0.4850200000000  0.4213560000000  0.5536900000000 1.0
C      1  0.5154030000000  0.5786670000000  0.5520920000000 1.0
C      1  0.5154420000000  0.4216480000000  0.4496170000000 1.0
C      1  0.4846380000000  0.5786460000000  0.5519680000000 1.0
C      1  0.4856360000000  0.4216290000000  0.4494970000000 1.0
C      1  0.4854500000000  0.5603840000000  0.4241670000000 1.0
C      1  0.4658150000000  0.4296440000000  0.5731360000000 1.0
C      1  0.5156480000000  0.5604040000000  0.4242890000000 1.0
C      1  0.5342520000000  0.4296890000000  0.5734130000000 1.0
C      1  0.4649440000000  0.5730580000000  0.5723350000000 1.0
C      1  0.4856000000000  0.4386810000000  0.4256530000000 1.0
C      1  0.5349390000000  0.5731050000000  0.5726180000000 1.0
C      1  0.5156480000000  0.4387010000000  0.4257750000000 1.0
C      1  0.5157670000000  0.4501140000000  0.4875670000000 1.0
C      1  0.5158510000000  0.5507700000000  0.5153500000000 1.0
C      1  0.4849670000000  0.4500940000000  0.4874430000000 1.0
C      1  0.4845240000000  0.5507500000000  0.5152230000000 1.0
C      1  0.5242610000000  0.4480840000000  0.5160200000000 1.0
C      1  0.5156100000000  0.5503060000000  0.4846020000000 1.0
C      1  0.4762460000000  0.4480530000000  0.5158260000000 1.0
C      1  0.4850140000000  0.5502860000000  0.4844780000000 1.0
C      1  0.4782010000000  0.4781010000000  0.4765430000000 1.0
C      1  0.4760830000000  0.5237600000000  0.5256590000000 1.0
C      1  0.5225830000000  0.4781310000000  0.4767230000000 1.0
C      1  0.5242440000000  0.5237920000000  0.5258540000000 1.0
C      1  0.4739540000000  0.4738180000000  0.5290970000000 1.0
C      1  0.4776820000000  0.5232710000000  0.4744540000000 1.0
C      1  0.5264110000000  0.4738530000000  0.5293090000000 1.0
C      1  0.5230590000000  0.5233010000000  0.4746380000000 1.0
C      1  0.5589370000000  0.4718620000000  0.5639740000000 1.0
C      1  0.5530910000000  0.5287540000000  0.4375670000000 1.0
C      1  0.4411510000000  0.4717840000000  0.5634980000000 1.0
C      1  0.4479430000000  0.5286840000000  0.4371420000000 1.0
C      1  0.5528860000000  0.4706360000000  0.4392630000000 1.0
C      1  0.5575870000000  0.5301760000000  0.5613450000000 1.0
C      1  0.4482120000000  0.4705660000000  0.4388400000000 1.0
C      1  0.4424450000000  0.5300990000000  0.5608790000000 1.0
C      1  0.4243880000000  0.4460930000000  0.4838030000000 1.0
C      1  0.4242900000000  0.5542840000000  0.5122480000000 1.0
C      1  0.5763780000000  0.4461940000000  0.4844170000000 1.0
C      1  0.5761030000000  0.5543850000000  0.5128610000000 1.0
C      1  0.4238770000000  0.4468080000000  0.5131160000000 1.0
C      1  0.4247210000000  0.5544170000000  0.4829280000000 1.0
C      1  0.5766510000000  0.4469090000000  0.5137340000000 1.0
C      1  0.5759090000000  0.5545170000000  0.4835390000000 1.0
C      1  0.4248850000000  0.4850150000000  0.4458830000000 1.0
C      1  0.4196330000000  0.5151140000000  0.5498800000000 1.0
C      1  0.5761360000000  0.4851150000000  0.4464950000000 1.0
C      1  0.5805070000000  0.5152200000000  0.5505300000000 1.0
C      1  0.4194680000000  0.4861800000000  0.5500490000000 1.0
C      1  0.4247940000000  0.5150160000000  0.4456110000000 1.0
C      1  0.5807090000000  0.4862870000000  0.5507010000000 1.0
C      1  0.5761890000000  0.5151160000000  0.4462230000000 1.0
C      1  0.5140590000000  0.4867070000000  0.5804560000000 1.0
C      1  0.5152820000000  0.5149460000000  0.4191680000000 1.0
C      1  0.4858750000000  0.4866880000000  0.5803420000000 1.0
C      1  0.4859180000000  0.5149260000000  0.4190490000000 1.0
C      1  0.5152010000000  0.4841230000000  0.4197130000000 1.0
C      1  0.5139970000000  0.5158760000000  0.5787540000000 1.0
C      1  0.4860350000000  0.4841040000000  0.4195950000000 1.0
C      1  0.4859120000000  0.5158570000000  0.5786410000000 1.0
C      1  0.5549870000000  0.4247390000000  0.4852610000000 1.0
C      1  0.5541690000000  0.5751920000000  0.5133410000000 1.0
C      1  0.4458000000000  0.4246660000000  0.4848190000000 1.0
C      1  0.4461910000000  0.5751200000000  0.5129050000000 1.0
C      1  0.5543820000000  0.4260090000000  0.5144650000000 1.0
C      1  0.5544970000000  0.5760170000000  0.4840410000000 1.0
C      1  0.4461670000000  0.4259370000000  0.5140270000000 1.0
C      1  0.4460990000000  0.5759450000000  0.4836030000000 1.0
C      1  0.4505860000000  0.4853570000000  0.4853930000000 1.0
C      1  0.4497070000000  0.5156220000000  0.5141230000000 1.0
C      1  0.5501160000000  0.4854240000000  0.4857950000000 1.0
C      1  0.5507220000000  0.5156890000000  0.5145310000000 1.0
C      1  0.4491600000000  0.4854230000000  0.5148500000000 1.0
C      1  0.4504890000000  0.5155480000000  0.4846120000000 1.0
C      1  0.5513040000000  0.4854910000000  0.5152630000000 1.0
C      1  0.5501790000000  0.5156140000000  0.4850150000000 1.0
C      1  0.4714670000000  0.4242430000000  0.5281730000000 1.0
C      1  0.4712940000000  0.5724450000000  0.4711870000000 1.0
C      1  0.5289710000000  0.4242820000000  0.5284050000000 1.0
C      1  0.5294080000000  0.5724840000000  0.4714220000000 1.0
C      1  0.4712600000000  0.4283920000000  0.4727340000000 1.0
C      1  0.4716010000000  0.5731410000000  0.5264670000000 1.0
C      1  0.5296200000000  0.4284310000000  0.4729690000000 1.0
C      1  0.5286530000000  0.5731790000000  0.5266980000000 1.0
C      1  0.4682500000000  0.4605170000000  0.4191000000000 1.0
C      1  0.4460120000000  0.5554670000000  0.5746520000000 1.0
C      1  0.5330220000000  0.4605600000000  0.4193620000000 1.0
C      1  0.5538750000000  0.5555380000000  0.5750880000000 1.0
C      1  0.4463330000000  0.4465050000000  0.5755840000000 1.0
C      1  0.4679530000000  0.5386290000000  0.4175000000000 1.0
C      1  0.5536910000000  0.4465760000000  0.5760180000000 1.0
C      1  0.5332280000000  0.5386720000000  0.4177630000000 1.0
C      1  0.5297540000000  0.5143380000000  0.4476020000000 1.0
C      1  0.5331570000000  0.4839010000000  0.5573850000000 1.0
C      1  0.4712170000000  0.5142990000000  0.4473650000000 1.0
C      1  0.4669680000000  0.4838570000000  0.5571180000000 1.0
C      1  0.5321380000000  0.5165670000000  0.5550450000000 1.0
C      1  0.5294510000000  0.4851940000000  0.4488100000000 1.0
C      1  0.4679630000000  0.5165240000000  0.5547850000000 1.0
C      1  0.4715500000000  0.4851550000000  0.4485760000000 1.0
C      1  0.5002020000000  0.4827440000000  0.5228750000000 1.0
C      1  0.5002170000000  0.5090960000000  0.5149150000000 1.0
C      1  0.5003440000000  0.5035560000000  0.4844130000000 1.0
END
