TITL C-65450-4930-3 357.678684481658 125000 -507.05657826198 0 0 73 (C1) n - 1
REM
REM in /rds/project/t2_vol4/rds-t2-cs072/BORA/CARBON/from-Arr/AIRSS/Generating-Clusters/GAP-ML-2020/Higher-Symm/SD-CG/HFTN-CG
REM
REM
REM
REM
REM
REM ./C.cell (b20cbc046b6831c77cfcea5457e17084)
REM AIRSS Version 0.9.1 bugfix July 2018 build 013d7b7c2542+ Fri, 06 Jul 2018 19:26:36 +0100
REM compiler GCC version 9.3.0
REM options -cpp -mtune=generic -march=x86-64 -g -O0
REM seed 1050411654 97863742 -1085605310 -1551761758 1853507040 -1934330047 -1190404422 944649729 -1158829331 -765049744 -733954662 -2143832525 -376496357 1759827488 1147667807 -2008654759 734302132 581166205 -780862492 1814224396 225613132 958937077 1559940272 -306459200 988736343 -429325900 -145051847 -504166437 -526993469 200293767 1119188493 -1571412663 661424605
REM
CELL 1.54180   50.00000   50.00000   50.00000   90.00000   90.00000   90.00000
LATT -1
SFAC C  
C      1  0.4749340000000  0.4799230000000  0.5186880000000 1.0
C      1  0.5424190000000  0.4632940000000  0.4620660000000 1.0
C      1  0.4574200000000  0.5495570000000  0.4891970000000 1.0
C      1  0.5104940000000  0.4946460000000  0.4838300000000 1.0
C      1  0.4930420000000  0.5495640000000  0.4550250000000 1.0
C      1  0.5101470000000  0.5461960000000  0.5578240000000 1.0
C      1  0.4541440000000  0.4892240000000  0.5377700000000 1.0
C      1  0.5559860000000  0.5243620000000  0.5430500000000 1.0
C      1  0.4772060000000  0.5348510000000  0.4745060000000 1.0
C      1  0.5358160000000  0.5439440000000  0.5449540000000 1.0
C      1  0.4968160000000  0.4964370000000  0.5083680000000 1.0
C      1  0.5495620000000  0.4541510000000  0.4871140000000 1.0
C      1  0.4567350000000  0.4427220000000  0.4973500000000 1.0
C      1  0.4947590000000  0.4588130000000  0.4481670000000 1.0
C      1  0.4375300000000  0.4963680000000  0.4569260000000 1.0
C      1  0.5303540000000  0.4339700000000  0.4956500000000 1.0
C      1  0.4697350000000  0.5724560000000  0.5010790000000 1.0
C      1  0.5420070000000  0.5615940000000  0.4994340000000 1.0
C      1  0.5022030000000  0.4561260000000  0.5587090000000 1.0
C      1  0.4976960000000  0.5255840000000  0.5717920000000 1.0
C      1  0.4998720000000  0.5307860000000  0.4344490000000 1.0
C      1  0.5532660000000  0.4963010000000  0.5476720000000 1.0
C      1  0.4291210000000  0.4980460000000  0.5271000000000 1.0
C      1  0.5566690000000  0.4867450000000  0.4539050000000 1.0
C      1  0.5703420000000  0.5257550000000  0.4779140000000 1.0
C      1  0.4750310000000  0.5710810000000  0.5294000000000 1.0
C      1  0.5290590000000  0.4599670000000  0.5674740000000 1.0
C      1  0.4256270000000  0.5264710000000  0.5209540000000 1.0
C      1  0.5631520000000  0.4765620000000  0.5285560000000 1.0
C      1  0.4287860000000  0.4703460000000  0.4659670000000 1.0
C      1  0.5335610000000  0.5699690000000  0.4737170000000 1.0
C      1  0.4651940000000  0.4292280000000  0.4738610000000 1.0
C      1  0.5225690000000  0.4304060000000  0.5229740000000 1.0
C      1  0.4715720000000  0.4674800000000  0.4351980000000 1.0
C      1  0.5278010000000  0.5225860000000  0.4316900000000 1.0
C      1  0.4694800000000  0.5213900000000  0.5698510000000 1.0
C      1  0.4897990000000  0.4799260000000  0.5682830000000 1.0
C      1  0.5669700000000  0.4974690000000  0.4782040000000 1.0
C      1  0.4892790000000  0.5844340000000  0.4860610000000 1.0
C      1  0.5157500000000  0.4771660000000  0.4578780000000 1.0
C      1  0.4793820000000  0.5131220000000  0.4305560000000 1.0
C      1  0.5097270000000  0.4996550000000  0.5737690000000 1.0
C      1  0.4225980000000  0.4777990000000  0.5108020000000 1.0
C      1  0.5727450000000  0.5334420000000  0.5237400000000 1.0
C      1  0.4305560000000  0.5167230000000  0.4724790000000 1.0
C      1  0.5275370000000  0.5616610000000  0.5236980000000 1.0
C      1  0.4752160000000  0.4508990000000  0.5180460000000 1.0
C      1  0.5133540000000  0.4248560000000  0.4768560000000 1.0
C      1  0.4512720000000  0.5410090000000  0.5635090000000 1.0
C      1  0.5661260000000  0.4492400000000  0.5396800000000 1.0
C      1  0.5508170000000  0.5625360000000  0.4526200000000 1.0
C      1  0.5492840000000  0.5423420000000  0.4334100000000 1.0
C      1  0.4519790000000  0.4466160000000  0.4304350000000 1.0
C      1  0.5495040000000  0.4431100000000  0.5617920000000 1.0
C      1  0.4291400000000  0.4494970000000  0.4469280000000 1.0
C      1  0.5690110000000  0.5410050000000  0.4538130000000 1.0
C      1  0.4332310000000  0.5436400000000  0.5415440000000 1.0
C      1  0.4538700000000  0.5620740000000  0.5455880000000 1.0
C      1  0.5463220000000  0.4282010000000  0.5384540000000 1.0
C      1  0.4472980000000  0.4285910000000  0.4519030000000 1.0
C      1  0.5626890000000  0.4769160000000  0.5000440000000 1.0
C      1  0.5053830000000  0.5720400000000  0.4677050000000 1.0
C      1  0.4654670000000  0.4939250000000  0.5624330000000 1.0
C      1  0.4331810000000  0.4611180000000  0.4930680000000 1.0
C      1  0.5643270000000  0.5428880000000  0.5003220000000 1.0
C      1  0.4342390000000  0.5334500000000  0.4937980000000 1.0
C      1  0.5011240000000  0.5640010000000  0.5366810000000 1.0
C      1  0.4979310000000  0.4415800000000  0.5336930000000 1.0
C      1  0.4924210000000  0.4341990000000  0.4637870000000 1.0
C      1  0.5336150000000  0.4974460000000  0.4412430000000 1.0
C      1  0.4612850000000  0.4947570000000  0.4373400000000 1.0
C      1  0.5345380000000  0.4879580000000  0.5670790000000 1.0
C      1  0.4945510000000  0.5163170000000  0.4883510000000 1.0
END
