TITL C-65797-1288-10 -26.7913949346766 125000 -588.05214389077 0 0 86 (C1) n - 1
REM
REM in /rds/project/t2_vol4/rds-t2-cs072/BORA/CARBON/from-Arr/AIRSS/Generating-Clusters/GAP-ML-2020/Higher-Symm/SD-CG/HFTN-CG
REM
REM
REM
REM
REM
REM ./C.cell (b20cbc046b6831c77cfcea5457e17084)
REM AIRSS Version 0.9.1 bugfix July 2018 build 013d7b7c2542+ Fri, 06 Jul 2018 19:26:36 +0100
REM compiler GCC version 9.3.0
REM options -cpp -mtune=generic -march=x86-64 -g -O0
REM seed -2080331952 -1696622693 943711466 -2079682962 1988463006 -973378953 -2053368941 718798773 -1977778975 -24924044 -1181197723 -795073593 367226653 -1246468554 1997434887 -1673786123 -155922536 1612516517 -1622071096 880049168 -1192701524 -1716434242 354203521 -1514815819 1314446455 1952777716 1969000040 1062180098 -791385656 589825276 966883766 -1187361418 1324025038
REM
CELL 1.54180   50.00000   50.00000   50.00000   90.00000   90.00000   90.00000
LATT -1
SFAC C  
C      1  0.4700310000000  0.5153200000000  0.5776420000000 1.0
C      1  0.4724590000000  0.4846890000000  0.4230200000000 1.0
C      1  0.5393930000000  0.4346140000000  0.4574980000000 1.0
C      1  0.5405690000000  0.5650820000000  0.5447780000000 1.0
C      1  0.5254900000000  0.5246780000000  0.5051250000000 1.0
C      1  0.5238210000000  0.4718050000000  0.4968580000000 1.0
C      1  0.4450010000000  0.5088590000000  0.5644380000000 1.0
C      1  0.4472120000000  0.4916440000000  0.4353520000000 1.0
C      1  0.4403690000000  0.5106300000000  0.4901790000000 1.0
C      1  0.4397780000000  0.4897780000000  0.5097780000000 1.0
C      1  0.5069630000000  0.4631830000000  0.5362800000000 1.0
C      1  0.5083230000000  0.5347700000000  0.4653290000000 1.0
C      1  0.4624860000000  0.5519650000000  0.4933880000000 1.0
C      1  0.4608900000000  0.4477840000000  0.5072370000000 1.0
C      1  0.5427530000000  0.5082340000000  0.5250240000000 1.0
C      1  0.5385260000000  0.4869030000000  0.4754120000000 1.0
C      1  0.4381610000000  0.5363630000000  0.5005400000000 1.0
C      1  0.4373140000000  0.4641550000000  0.4992390000000 1.0
C      1  0.4787640000000  0.4173740000000  0.5392890000000 1.0
C      1  0.4826310000000  0.5811530000000  0.4606720000000 1.0
C      1  0.4465940000000  0.4831370000000  0.5514930000000 1.0
C      1  0.4491860000000  0.5171070000000  0.4485780000000 1.0
C      1  0.4717770000000  0.5626840000000  0.5199920000000 1.0
C      1  0.4711750000000  0.4371380000000  0.4810480000000 1.0
C      1  0.5115900000000  0.4263170000000  0.4547200000000 1.0
C      1  0.5123970000000  0.5724160000000  0.5471740000000 1.0
C      1  0.5009980000000  0.4609670000000  0.5649220000000 1.0
C      1  0.5044220000000  0.5380540000000  0.4365060000000 1.0
C      1  0.4678640000000  0.4582020000000  0.4603560000000 1.0
C      1  0.4668780000000  0.5423870000000  0.5407330000000 1.0
C      1  0.4811370000000  0.5402490000000  0.5668720000000 1.0
C      1  0.4818540000000  0.4591060000000  0.4338950000000 1.0
C      1  0.5533750000000  0.5249000000000  0.4547660000000 1.0
C      1  0.5480530000000  0.4700500000000  0.5522000000000 1.0
C      1  0.5442310000000  0.4436150000000  0.5527770000000 1.0
C      1  0.5486350000000  0.5524290000000  0.4544760000000 1.0
C      1  0.5345210000000  0.4551460000000  0.4369310000000 1.0
C      1  0.5350980000000  0.5420560000000  0.5625290000000 1.0
C      1  0.5733240000000  0.4599010000000  0.4810970000000 1.0
C      1  0.5740770000000  0.5531260000000  0.5060370000000 1.0
C      1  0.4526750000000  0.4563820000000  0.5578510000000 1.0
C      1  0.4563500000000  0.5433750000000  0.4422040000000 1.0
C      1  0.5751300000000  0.5145100000000  0.4712210000000 1.0
C      1  0.5688200000000  0.5044750000000  0.5098970000000 1.0
C      1  0.4884470000000  0.5084300000000  0.4170550000000 1.0
C      1  0.4845790000000  0.4912330000000  0.5838520000000 1.0
C      1  0.4404570000000  0.4697850000000  0.4539130000000 1.0
C      1  0.4394570000000  0.5308200000000  0.5457890000000 1.0
C      1  0.4835280000000  0.5300650000000  0.4835560000000 1.0
C      1  0.4818210000000  0.4691950000000  0.5181290000000 1.0
C      1  0.5313680000000  0.4807130000000  0.5260750000000 1.0
C      1  0.5302960000000  0.5155350000000  0.4761320000000 1.0
C      1  0.4961930000000  0.4837150000000  0.4958370000000 1.0
C      1  0.4970600000000  0.5147190000000  0.5063970000000 1.0
C      1  0.5406770000000  0.4813160000000  0.4455850000000 1.0
C      1  0.5421220000000  0.5153680000000  0.5545650000000 1.0
C      1  0.5306990000000  0.4409080000000  0.5013920000000 1.0
C      1  0.5302590000000  0.5559100000000  0.5008140000000 1.0
C      1  0.5068380000000  0.5519130000000  0.5665590000000 1.0
C      1  0.5065820000000  0.4455850000000  0.4338370000000 1.0
C      1  0.5165870000000  0.5164210000000  0.4232210000000 1.0
C      1  0.5123610000000  0.4828330000000  0.5791180000000 1.0
C      1  0.5410010000000  0.5066880000000  0.4334550000000 1.0
C      1  0.5380400000000  0.4910490000000  0.5692420000000 1.0
C      1  0.4773700000000  0.5336490000000  0.4261530000000 1.0
C      1  0.4737200000000  0.4660410000000  0.5738810000000 1.0
C      1  0.4245830000000  0.5378430000000  0.5249280000000 1.0
C      1  0.4247800000000  0.4630580000000  0.4742200000000 1.0
C      1  0.5541740000000  0.4396860000000  0.4814660000000 1.0
C      1  0.5525130000000  0.5636790000000  0.5188730000000 1.0
C      1  0.5029700000000  0.4170290000000  0.5269160000000 1.0
C      1  0.5061620000000  0.5814680000000  0.4740310000000 1.0
C      1  0.5267040000000  0.5596970000000  0.4701470000000 1.0
C      1  0.5246540000000  0.4372320000000  0.5324620000000 1.0
C      1  0.4784440000000  0.5147980000000  0.5286150000000 1.0
C      1  0.4789670000000  0.4846720000000  0.4727080000000 1.0
C      1  0.5677090000000  0.4881660000000  0.4848050000000 1.0
C      1  0.5779610000000  0.5283240000000  0.4967100000000 1.0
C      1  0.5105600000000  0.5783540000000  0.5019680000000 1.0
C      1  0.5102200000000  0.4192020000000  0.4993500000000 1.0
C      1  0.4952810000000  0.5772100000000  0.5250610000000 1.0
C      1  0.4941170000000  0.4217190000000  0.4765800000000 1.0
C      1  0.4641600000000  0.5096290000000  0.4726170000000 1.0
C      1  0.4628750000000  0.4903130000000  0.5283420000000 1.0
C      1  0.4596380000000  0.4369230000000  0.5362690000000 1.0
C      1  0.4629710000000  0.5623950000000  0.4640230000000 1.0
END
