TITL C-65806-1245-8 -0.0296906055295038 125000 -66.7688844638437 0 0 11 (C1) n - 1
REM
REM in /rds/project/t2_vol4/rds-t2-cs072/BORA/CARBON/from-Arr/AIRSS/Generating-Clusters/GAP-ML-2020/Higher-Symm/SD-CG/HFTN-CG
REM
REM
REM
REM
REM
REM ./C.cell (b20cbc046b6831c77cfcea5457e17084)
REM AIRSS Version 0.9.1 bugfix July 2018 build 013d7b7c2542+ Fri, 06 Jul 2018 19:26:36 +0100
REM compiler GCC version 9.3.0
REM options -cpp -mtune=generic -march=x86-64 -g -O0
REM seed 1211500223 -1251458832 -85363469 987050748 -675959147 -1466436145 693125217 -1548587798 -334465316 953598067 1363282573 417393186 1778384663 -434995277 -604481704 -267769072 -1799621676 1944813680 1954493923 1079623702 -2102986151 874893286 -2086054093 -1067700506 2082002217 1788602602 -132145228 -895225123 520996052 2082516665 -620170577 -173491507 1730967238
REM
CELL 1.54180   50.00000   50.00000   50.00000   90.00000   90.00000   90.00000
LATT -1
SFAC C  
C      1  0.4788560000000  0.4753890000000  0.4904210000000 1.0
C      1  0.5287000000000  0.5161610000000  0.4924640000000 1.0
C      1  0.5039340000000  0.4849280000000  0.4821310000000 1.0
C      1  0.4767590000000  0.5259110000000  0.4898010000000 1.0
C      1  0.5440900000000  0.5223480000000  0.5149230000000 1.0
C      1  0.4671100000000  0.4644340000000  0.5133610000000 1.0
C      1  0.5460580000000  0.4951870000000  0.5103160000000 1.0
C      1  0.4528960000000  0.4892110000000  0.5165130000000 1.0
C      1  0.5304960000000  0.4847640000000  0.4914290000000 1.0
C      1  0.4650320000000  0.5017410000000  0.4947910000000 1.0
C      1  0.5015730000000  0.5140990000000  0.4842450000000 1.0
END
