TITL C-65463-2081-9 -0.178446358639901 125000 -380.758610445121 0 0 56 (C7v) n - 1
REM
REM in /rds/project/t2_vol4/rds-t2-cs072/BORA/CARBON/from-Arr/AIRSS/Generating-Clusters/GAP-ML-2020/Higher-Symm/SD-CG/HFTN-CG
REM
REM
REM
REM
REM
REM ./C.cell (b20cbc046b6831c77cfcea5457e17084)
REM AIRSS Version 0.9.1 bugfix July 2018 build 013d7b7c2542+ Fri, 06 Jul 2018 19:26:36 +0100
REM compiler GCC version 9.3.0
REM options -cpp -mtune=generic -march=x86-64 -g -O0
REM seed -658789488 -1956231983 -474951227 -1056184361 -1057361901 -1112106019 -878661629 -1430445704 572110733 -1975120647 1484966419 1518174896 -828194940 -1533556564 122629652 -1407787782 1342642561 1127213539 1803748361 424113082 -1403456637 1727457143 -1424578074 1006606222 1034679639 -641905864 2109980449 1153924564 -1378858810 -1505137369 -24999204 1023714634 1386532771
REM
CELL 1.54180   50.00000   50.00000   50.00000   90.00000   90.00000   90.00000
LATT -1
SFAC C  
C      1  0.4763120000000  0.4512940000000  0.4575900000000 1.0
C      1  0.4471420000000  0.4881480000000  0.4576030000000 1.0
C      1  0.4577690000000  0.5339310000000  0.4576080000000 1.0
C      1  0.5001890000000  0.5541690000000  0.4576020000000 1.0
C      1  0.5424600000000  0.5336210000000  0.4575890000000 1.0
C      1  0.5527510000000  0.4877610000000  0.4575790000000 1.0
C      1  0.5233120000000  0.4511220000000  0.4575800000000 1.0
C      1  0.5152510000000  0.5313670000000  0.5123970000000 1.0
C      1  0.5340360000000  0.5076350000000  0.5123890000000 1.0
C      1  0.5271920000000  0.4781510000000  0.5123860000000 1.0
C      1  0.4998750000000  0.4651190000000  0.5123900000000 1.0
C      1  0.4726540000000  0.4783510000000  0.5123980000000 1.0
C      1  0.4660270000000  0.5078840000000  0.5124040000000 1.0
C      1  0.4849850000000  0.5314780000000  0.5124030000000 1.0
C      1  0.5263990000000  0.4787900000000  0.5605550000000 1.0
C      1  0.4998890000000  0.4661430000000  0.5605590000000 1.0
C      1  0.4734730000000  0.4789840000000  0.5605660000000 1.0
C      1  0.4670420000000  0.5076430000000  0.5605730000000 1.0
C      1  0.4854390000000  0.5305400000000  0.5605720000000 1.0
C      1  0.5148110000000  0.5304320000000  0.5605660000000 1.0
C      1  0.5330400000000  0.5074010000000  0.5605580000000 1.0
C      1  0.5236310000000  0.5485890000000  0.5396150000000 1.0
C      1  0.5527300000000  0.5118240000000  0.5396020000000 1.0
C      1  0.5421290000000  0.4661510000000  0.5395970000000 1.0
C      1  0.4998110000000  0.4459620000000  0.5396040000000 1.0
C      1  0.4576420000000  0.4664600000000  0.5396160000000 1.0
C      1  0.4473760000000  0.5122100000000  0.5396260000000 1.0
C      1  0.4767440000000  0.5487600000000  0.5396250000000 1.0
C      1  0.4523060000000  0.4622600000000  0.4704750000000 1.0
C      1  0.4407510000000  0.5137550000000  0.4704860000000 1.0
C      1  0.4738070000000  0.5548950000000  0.4704850000000 1.0
C      1  0.5265820000000  0.5547020000000  0.4704730000000 1.0
C      1  0.5593350000000  0.5133210000000  0.4704590000000 1.0
C      1  0.5474030000000  0.4619120000000  0.4704530000000 1.0
C      1  0.4997710000000  0.4391880000000  0.4704600000000 1.0
C      1  0.4730010000000  0.5565940000000  0.4981040000000 1.0
C      1  0.5274120000000  0.5563940000000  0.4980920000000 1.0
C      1  0.5611820000000  0.5137290000000  0.4980780000000 1.0
C      1  0.5488800000000  0.4607260000000  0.4980720000000 1.0
C      1  0.4997700000000  0.4372970000000  0.4980790000000 1.0
C      1  0.4508330000000  0.4610850000000  0.4980940000000 1.0
C      1  0.4389190000000  0.5141770000000  0.4981050000000 1.0
C      1  0.5140940000000  0.4704380000000  0.4381580000000 1.0
C      1  0.4856620000000  0.4705420000000  0.4381640000000 1.0
C      1  0.4680160000000  0.4928360000000  0.4381720000000 1.0
C      1  0.4744450000000  0.5205320000000  0.4381750000000 1.0
C      1  0.5001060000000  0.5327740000000  0.4381710000000 1.0
C      1  0.5256770000000  0.5203440000000  0.4381640000000 1.0
C      1  0.5319030000000  0.4926020000000  0.4381580000000 1.0
C      1  0.5594550000000  0.4522300000000  0.5230890000000 1.0
C      1  0.4997260000000  0.4237350000000  0.5230980000000 1.0
C      1  0.4402070000000  0.4526670000000  0.5231160000000 1.0
C      1  0.4257180000000  0.5172380000000  0.5231290000000 1.0
C      1  0.4671680000000  0.5688270000000  0.5231280000000 1.0
C      1  0.5333450000000  0.5685840000000  0.5231140000000 1.0
C      1  0.5744170000000  0.5166940000000  0.5230960000000 1.0
END
