TITL C-65464-8160-3 0.126932211834057 125000 -267.760905146719 0 0 39 (C1) n - 1
REM
REM in /rds/project/t2_vol4/rds-t2-cs072/BORA/CARBON/from-Arr/AIRSS/Generating-Clusters/GAP-ML-2020/Higher-Symm/SD-CG/HFTN-CG
REM
REM
REM
REM
REM
REM ./C.cell (b20cbc046b6831c77cfcea5457e17084)
REM AIRSS Version 0.9.1 bugfix July 2018 build 013d7b7c2542+ Fri, 06 Jul 2018 19:26:36 +0100
REM compiler GCC version 9.3.0
REM options -cpp -mtune=generic -march=x86-64 -g -O0
REM seed 321089467 1894311023 1520648003 -1819783197 -1059536497 -1814092363 492681960 411693457 1761323396 830699456 -147813450 80186411 4380318 905630006 1634373885 1128047017 1070738649 -852584838 -1926625402 -568732013 602584022 -595475579 640090580 1420380441 -1030653713 -2053064425 -517215352 2018638181 700474593 -597218948 -1649135117 -719934185 1083292632
REM
CELL 1.54180   50.00000   50.00000   50.00000   90.00000   90.00000   90.00000
LATT -1
SFAC C  
C      1  0.4324410000000  0.4889100000000  0.5221090000000 1.0
C      1  0.4368680000000  0.4700530000000  0.5003190000000 1.0
C      1  0.4359050000000  0.4840270000000  0.4748630000000 1.0
C      1  0.4292950000000  0.5123220000000  0.4786610000000 1.0
C      1  0.4301090000000  0.5377640000000  0.5233520000000 1.0
C      1  0.4828770000000  0.4782590000000  0.4633060000000 1.0
C      1  0.4823340000000  0.5259670000000  0.4721650000000 1.0
C      1  0.4780340000000  0.5294630000000  0.5192630000000 1.0
C      1  0.4791100000000  0.4870440000000  0.5408000000000 1.0
C      1  0.4828520000000  0.4543470000000  0.5052900000000 1.0
C      1  0.4519920000000  0.4881170000000  0.5416850000000 1.0
C      1  0.4559600000000  0.4519500000000  0.5038090000000 1.0
C      1  0.4560570000000  0.4761430000000  0.4589650000000 1.0
C      1  0.4544180000000  0.5257640000000  0.4761580000000 1.0
C      1  0.4543590000000  0.5441040000000  0.5279780000000 1.0
C      1  0.5618730000000  0.4742320000000  0.5067950000000 1.0
C      1  0.5642190000000  0.4877870000000  0.4815820000000 1.0
C      1  0.5598860000000  0.5342590000000  0.4702090000000 1.0
C      1  0.5614560000000  0.5196220000000  0.5162540000000 1.0
C      1  0.5604340000000  0.4932690000000  0.5276310000000 1.0
C      1  0.5205990000000  0.5140830000000  0.5397000000000 1.0
C      1  0.5225130000000  0.4659760000000  0.5307660000000 1.0
C      1  0.5252690000000  0.4609770000000  0.4814360000000 1.0
C      1  0.5244130000000  0.5034290000000  0.4555730000000 1.0
C      1  0.5213980000000  0.5438330000000  0.4992250000000 1.0
C      1  0.4926860000000  0.5126850000000  0.5386650000000 1.0
C      1  0.4945750000000  0.4649410000000  0.5297640000000 1.0
C      1  0.4973370000000  0.4600310000000  0.4807140000000 1.0
C      1  0.4963190000000  0.5036840000000  0.4594480000000 1.0
C      1  0.4943140000000  0.5376850000000  0.4959220000000 1.0
C      1  0.5404280000000  0.4810370000000  0.4657700000000 1.0
C      1  0.5377160000000  0.5291170000000  0.4537750000000 1.0
C      1  0.5358970000000  0.5326890000000  0.5222130000000 1.0
C      1  0.5358180000000  0.4894650000000  0.5421950000000 1.0
C      1  0.5382820000000  0.4577390000000  0.5072710000000 1.0
C      1  0.4282830000000  0.5135460000000  0.5088340000000 1.0
C      1  0.5689070000000  0.5156460000000  0.4882810000000 1.0
C      1  0.4595690000000  0.5115070000000  0.5028440000000 1.0
C      1  0.5363940000000  0.5486590000000  0.4747900000000 1.0
END
