TITL C-65460-9300-3 25.4882343415859 125000 -737.623463745841 0 0 110 (C2) n - 1
REM
REM in /rds/project/t2_vol4/rds-t2-cs072/BORA/CARBON/from-Arr/AIRSS/Generating-Clusters/GAP-ML-2020/Higher-Symm/SD-CG/HFTN-CG
REM
REM
REM
REM
REM
REM ./C.cell (b20cbc046b6831c77cfcea5457e17084)
REM AIRSS Version 0.9.1 bugfix July 2018 build 013d7b7c2542+ Fri, 06 Jul 2018 19:26:36 +0100
REM compiler GCC version 9.3.0
REM options -cpp -mtune=generic -march=x86-64 -g -O0
REM seed -961746275 -1723200440 2026630780 -306897413 1055172628 1775455954 -481611020 773596158 1752526963 846588400 -1451165480 -1657743442 1157251450 2114685304 1285130630 13976054 -355469690 533511492 -1407840076 -1775382012 879131861 -421528291 -1859219216 184610164 -1317279082 1979759597 -849212715 1968909782 590246201 204221757 -408608051 -1528175748 291893450
REM
CELL 1.54180   50.00000   50.00000   50.00000   90.00000   90.00000   90.00000
LATT -1
SFAC C  
C      1  0.4976130000000  0.5926660000000  0.5322610000000 1.0
C      1  0.4106680000000  0.4973650000000  0.5336380000000 1.0
C      1  0.5006680000000  0.4084340000000  0.5275580000000 1.0
C      1  0.5911640000000  0.5008460000000  0.5360360000000 1.0
C      1  0.5026590000000  0.5926640000000  0.4665260000000 1.0
C      1  0.5895510000000  0.4973140000000  0.4651510000000 1.0
C      1  0.4995010000000  0.4084340000000  0.4712330000000 1.0
C      1  0.4090560000000  0.5008960000000  0.4627530000000 1.0
C      1  0.5317740000000  0.4369460000000  0.4467450000000 1.0
C      1  0.5551770000000  0.5257950000000  0.4404940000000 1.0
C      1  0.4676430000000  0.5643670000000  0.4463680000000 1.0
C      1  0.4429860000000  0.4694530000000  0.4469500000000 1.0
C      1  0.4684110000000  0.4369650000000  0.5520450000000 1.0
C      1  0.4450570000000  0.5258280000000  0.5582940000000 1.0
C      1  0.5326130000000  0.5643500000000  0.5524190000000 1.0
C      1  0.5572170000000  0.4694220000000  0.5518390000000 1.0
C      1  0.4509850000000  0.5421740000000  0.4392720000000 1.0
C      1  0.4592120000000  0.4468060000000  0.4393000000000 1.0
C      1  0.5521950000000  0.4545590000000  0.4379050000000 1.0
C      1  0.5351670000000  0.5455490000000  0.4354250000000 1.0
C      1  0.5492580000000  0.5421480000000  0.5595160000000 1.0
C      1  0.5409780000000  0.4467850000000  0.5594910000000 1.0
C      1  0.4479990000000  0.4545900000000  0.5608850000000 1.0
C      1  0.4650790000000  0.5455700000000  0.5633630000000 1.0
C      1  0.5072210000000  0.5411590000000  0.4238010000000 1.0
C      1  0.4642820000000  0.5174960000000  0.4280390000000 1.0
C      1  0.4834970000000  0.4483480000000  0.4248360000000 1.0
C      1  0.5492030000000  0.4775650000000  0.4210930000000 1.0
C      1  0.4930220000000  0.5411650000000  0.5749870000000 1.0
C      1  0.5359480000000  0.5174780000000  0.5707490000000 1.0
C      1  0.5166940000000  0.4483410000000  0.5739540000000 1.0
C      1  0.4510050000000  0.4775950000000  0.5776970000000 1.0
C      1  0.5306470000000  0.4101420000000  0.5201810000000 1.0
C      1  0.5917840000000  0.5308980000000  0.5305160000000 1.0
C      1  0.4683030000000  0.5874620000000  0.5236260000000 1.0
C      1  0.4119250000000  0.4685800000000  0.5223240000000 1.0
C      1  0.4695220000000  0.4101580000000  0.4786100000000 1.0
C      1  0.4084540000000  0.5309480000000  0.4682720000000 1.0
C      1  0.5319660000000  0.5874430000000  0.4751610000000 1.0
C      1  0.5882780000000  0.4685300000000  0.4764650000000 1.0
C      1  0.5576010000000  0.4894960000000  0.5068000000000 1.0
C      1  0.5161460000000  0.5566150000000  0.5095620000000 1.0
C      1  0.4382570000000  0.5325130000000  0.5042510000000 1.0
C      1  0.4840500000000  0.4496260000000  0.5104760000000 1.0
C      1  0.4426130000000  0.4895290000000  0.4919900000000 1.0
C      1  0.4841060000000  0.5566240000000  0.4892260000000 1.0
C      1  0.5619810000000  0.5324780000000  0.4945380000000 1.0
C      1  0.5161420000000  0.4496170000000  0.4883140000000 1.0
C      1  0.5116240000000  0.4557800000000  0.5170720000000 1.0
C      1  0.5485900000000  0.5145800000000  0.5163850000000 1.0
C      1  0.4900310000000  0.5487080000000  0.5181790000000 1.0
C      1  0.4514830000000  0.4920120000000  0.5203640000000 1.0
C      1  0.4885710000000  0.4557860000000  0.4817180000000 1.0
C      1  0.4516380000000  0.5146070000000  0.4824030000000 1.0
C      1  0.5102160000000  0.5487020000000  0.4806090000000 1.0
C      1  0.5487330000000  0.4919840000000  0.4784250000000 1.0
C      1  0.5205650000000  0.4984540000000  0.4812860000000 1.0
C      1  0.5037730000000  0.5224620000000  0.4763250000000 1.0
C      1  0.4790240000000  0.5060780000000  0.4848900000000 1.0
C      1  0.4950560000000  0.4815520000000  0.4749470000000 1.0
C      1  0.4796540000000  0.4984660000000  0.5175030000000 1.0
C      1  0.4964590000000  0.5224650000000  0.5224640000000 1.0
C      1  0.5211990000000  0.5060670000000  0.5138990000000 1.0
C      1  0.5051530000000  0.4815500000000  0.5238430000000 1.0
C      1  0.5259380000000  0.4258960000000  0.4750800000000 1.0
C      1  0.5648740000000  0.5166440000000  0.4689320000000 1.0
C      1  0.4750150000000  0.5789040000000  0.4734550000000 1.0
C      1  0.4258590000000  0.4758240000000  0.4731970000000 1.0
C      1  0.4742400000000  0.4259110000000  0.5237110000000 1.0
C      1  0.4353550000000  0.5166810000000  0.5298560000000 1.0
C      1  0.5252490000000  0.5788900000000  0.5253320000000 1.0
C      1  0.5743480000000  0.4757830000000  0.5255930000000 1.0
C      1  0.5626900000000  0.5010880000000  0.4262070000000 1.0
C      1  0.4918410000000  0.5646060000000  0.4312590000000 1.0
C      1  0.4452590000000  0.4950030000000  0.4333320000000 1.0
C      1  0.5063730000000  0.4348670000000  0.4334720000000 1.0
C      1  0.4375300000000  0.5011250000000  0.5725820000000 1.0
C      1  0.5084150000000  0.5646040000000  0.5675280000000 1.0
C      1  0.5549590000000  0.4949740000000  0.5654570000000 1.0
C      1  0.4938100000000  0.4348720000000  0.5653180000000 1.0
C      1  0.4647110000000  0.4202550000000  0.4518050000000 1.0
C      1  0.5786520000000  0.4616920000000  0.4499280000000 1.0
C      1  0.5345530000000  0.5730590000000  0.4478790000000 1.0
C      1  0.4231310000000  0.5353780000000  0.4433800000000 1.0
C      1  0.5354640000000  0.4202360000000  0.5469860000000 1.0
C      1  0.4215460000000  0.4617370000000  0.5488620000000 1.0
C      1  0.4657080000000  0.5730800000000  0.5509080000000 1.0
C      1  0.5771080000000  0.5353360000000  0.5554080000000 1.0
C      1  0.4916950000000  0.4132320000000  0.4444130000000 1.0
C      1  0.5844950000000  0.4880010000000  0.4391300000000 1.0
C      1  0.5091260000000  0.5844070000000  0.4406540000000 1.0
C      1  0.4200240000000  0.5073130000000  0.4376110000000 1.0
C      1  0.5084770000000  0.4132280000000  0.5543780000000 1.0
C      1  0.4157180000000  0.4880500000000  0.5596600000000 1.0
C      1  0.4911410000000  0.5844140000000  0.5581330000000 1.0
C      1  0.5802000000000  0.5072700000000  0.5611780000000 1.0
C      1  0.4565870000000  0.5821110000000  0.4978570000000 1.0
C      1  0.4186630000000  0.4564750000000  0.4963110000000 1.0
C      1  0.5456580000000  0.4178530000000  0.4970840000000 1.0
C      1  0.5847440000000  0.5465830000000  0.5082550000000 1.0
C      1  0.5436790000000  0.5820860000000  0.5009290000000 1.0
C      1  0.5815320000000  0.4564290000000  0.5024790000000 1.0
C      1  0.4545160000000  0.4178780000000  0.5017070000000 1.0
C      1  0.4155020000000  0.5466300000000  0.4905330000000 1.0
C      1  0.5688790000000  0.4321800000000  0.5005650000000 1.0
C      1  0.4313030000000  0.4322190000000  0.4982260000000 1.0
C      1  0.5648600000000  0.5627360000000  0.4994520000000 1.0
C      1  0.4353950000000  0.5627720000000  0.4993350000000 1.0
C      1  0.4903780000000  0.5193360000000  0.4190580000000 1.0
C      1  0.5098530000000  0.5193320000000  0.5797310000000 1.0
END
