TITL C-65791-1292-6 0.0589355523435954 125000 -651.31706554755 0 0 93 (C1) n - 1
REM
REM in /rds/project/t2_vol4/rds-t2-cs072/BORA/CARBON/from-Arr/AIRSS/Generating-Clusters/GAP-ML-2020/Higher-Symm/SD-CG/HFTN-CG
REM
REM
REM
REM
REM
REM ./C.cell (b20cbc046b6831c77cfcea5457e17084)
REM AIRSS Version 0.9.1 bugfix July 2018 build 013d7b7c2542+ Fri, 06 Jul 2018 19:26:36 +0100
REM compiler GCC version 9.3.0
REM options -cpp -mtune=generic -march=x86-64 -g -O0
REM seed -939575340 675081907 -294092921 163094690 1859105180 1210381793 -1612115496 -1500568404 1425319788 449461919 -248156747 457007527 391128739 -242529594 -2103774316 1150997205 -1699825950 -601948130 943831232 615171384 -1342720029 -1577535461 -654540917 -670024644 -1321613254 1457511127 1090567458 -1366925957 -508514874 -2034925726 1257369134 1193493631 1553817592
REM
CELL 1.54180   50.00000   50.00000   50.00000   90.00000   90.00000   90.00000
LATT -1
SFAC C  
C      1  0.5229660000000  0.4571380000000  0.5659900000000 1.0
C      1  0.4307360000000  0.4608590000000  0.4839860000000 1.0
C      1  0.5468170000000  0.4628160000000  0.4446580000000 1.0
C      1  0.5234810000000  0.4627080000000  0.4304200000000 1.0
C      1  0.4307360000000  0.4595810000000  0.5113520000000 1.0
C      1  0.5463590000000  0.4590950000000  0.5518660000000 1.0
C      1  0.5039780000000  0.5566980000000  0.4640300000000 1.0
C      1  0.5291590000000  0.5658990000000  0.5331630000000 1.0
C      1  0.4556720000000  0.5698240000000  0.5183170000000 1.0
C      1  0.5017920000000  0.5555210000000  0.5437640000000 1.0
C      1  0.5331590000000  0.5557540000000  0.4798890000000 1.0
C      1  0.4564670000000  0.5711570000000  0.4877490000000 1.0
C      1  0.5136920000000  0.4784110000000  0.5822400000000 1.0
C      1  0.4228360000000  0.4842740000000  0.4700760000000 1.0
C      1  0.5617330000000  0.4863760000000  0.4461260000000 1.0
C      1  0.5146550000000  0.4856610000000  0.4163070000000 1.0
C      1  0.4226690000000  0.4817480000000  0.5270430000000 1.0
C      1  0.5608840000000  0.4829940000000  0.5525470000000 1.0
C      1  0.5521230000000  0.5053750000000  0.5671190000000 1.0
C      1  0.4176960000000  0.5063850000000  0.5138340000000 1.0
C      1  0.5290730000000  0.5101840000000  0.4186520000000 1.0
C      1  0.5540750000000  0.5099400000000  0.4328870000000 1.0
C      1  0.4177830000000  0.5077030000000  0.4852860000000 1.0
C      1  0.5279060000000  0.5030630000000  0.5823480000000 1.0
C      1  0.5418300000000  0.5516250000000  0.5558750000000 1.0
C      1  0.4308580000000  0.5534090000000  0.5161360000000 1.0
C      1  0.5196480000000  0.5542040000000  0.4386410000000 1.0
C      1  0.5449530000000  0.5532160000000  0.4523290000000 1.0
C      1  0.4312810000000  0.5547140000000  0.4873660000000 1.0
C      1  0.5164320000000  0.5485660000000  0.5696670000000 1.0
C      1  0.5447830000000  0.4990760000000  0.4836750000000 1.0
C      1  0.4961930000000  0.5010140000000  0.5420920000000 1.0
C      1  0.4686150000000  0.5047280000000  0.4734800000000 1.0
C      1  0.5443570000000  0.4988620000000  0.5142860000000 1.0
C      1  0.4943400000000  0.5028010000000  0.4569220000000 1.0
C      1  0.4698130000000  0.5033520000000  0.5271500000000 1.0
C      1  0.4332630000000  0.5294560000000  0.4452160000000 1.0
C      1  0.5858370000000  0.5281780000000  0.4649620000000 1.0
C      1  0.4850240000000  0.5197420000000  0.5935740000000 1.0
C      1  0.4330760000000  0.5248250000000  0.5557910000000 1.0
C      1  0.5828010000000  0.5291670000000  0.5358480000000 1.0
C      1  0.4871110000000  0.5289780000000  0.4098860000000 1.0
C      1  0.5444110000000  0.4509110000000  0.5236180000000 1.0
C      1  0.4558190000000  0.4501900000000  0.5232450000000 1.0
C      1  0.5003720000000  0.4533320000000  0.4462200000000 1.0
C      1  0.5446160000000  0.4523420000000  0.4721550000000 1.0
C      1  0.4561930000000  0.4528040000000  0.4720100000000 1.0
C      1  0.5000640000000  0.4490940000000  0.5492320000000 1.0
C      1  0.5262660000000  0.4756700000000  0.4833330000000 1.0
C      1  0.5015010000000  0.4753750000000  0.5284020000000 1.0
C      1  0.4752630000000  0.4780970000000  0.4849620000000 1.0
C      1  0.5260620000000  0.4750050000000  0.5135570000000 1.0
C      1  0.5013380000000  0.4769810000000  0.4691170000000 1.0
C      1  0.4752560000000  0.4774060000000  0.5133620000000 1.0
C      1  0.5061980000000  0.5253940000000  0.5300920000000 1.0
C      1  0.4777770000000  0.5292060000000  0.4866740000000 1.0
C      1  0.5295600000000  0.5243920000000  0.4838180000000 1.0
C      1  0.5043400000000  0.5256010000000  0.4709560000000 1.0
C      1  0.4783540000000  0.5287640000000  0.5158340000000 1.0
C      1  0.5304820000000  0.5253870000000  0.5140890000000 1.0
C      1  0.5695730000000  0.4612780000000  0.4849140000000 1.0
C      1  0.4768080000000  0.4565140000000  0.5655390000000 1.0
C      1  0.4538190000000  0.4624730000000  0.4442780000000 1.0
C      1  0.5694480000000  0.4607480000000  0.5119910000000 1.0
C      1  0.4774250000000  0.4624780000000  0.4302590000000 1.0
C      1  0.4530790000000  0.4574140000000  0.5515670000000 1.0
C      1  0.5248590000000  0.4312700000000  0.5113550000000 1.0
C      1  0.4755090000000  0.4313580000000  0.5111050000000 1.0
C      1  0.5003200000000  0.4327710000000  0.4682690000000 1.0
C      1  0.5249600000000  0.4322100000000  0.4827470000000 1.0
C      1  0.4756250000000  0.4326000000000  0.4826140000000 1.0
C      1  0.5001670000000  0.4305580000000  0.5255700000000 1.0
C      1  0.5728370000000  0.4883860000000  0.4734220000000 1.0
C      1  0.4847380000000  0.4774350000000  0.5828030000000 1.0
C      1  0.4361170000000  0.4846500000000  0.4443700000000 1.0
C      1  0.5721130000000  0.4871850000000  0.5254490000000 1.0
C      1  0.4857570000000  0.4848760000000  0.4149950000000 1.0
C      1  0.4354570000000  0.4797830000000  0.5528720000000 1.0
C      1  0.4243350000000  0.5325990000000  0.4708080000000 1.0
C      1  0.5658020000000  0.5334710000000  0.4465090000000 1.0
C      1  0.5105480000000  0.5261140000000  0.5865250000000 1.0
C      1  0.4241240000000  0.5298270000000  0.5305570000000 1.0
C      1  0.5623480000000  0.5308850000000  0.5550650000000 1.0
C      1  0.5126570000000  0.5344870000000  0.4175960000000 1.0
C      1  0.4438670000000  0.5091590000000  0.4303170000000 1.0
C      1  0.5898950000000  0.5103020000000  0.4853690000000 1.0
C      1  0.4675390000000  0.5006640000000  0.5856750000000 1.0
C      1  0.4428460000000  0.5029440000000  0.5690560000000 1.0
C      1  0.5880840000000  0.5108290000000  0.5157260000000 1.0
C      1  0.4691950000000  0.5088480000000  0.4143650000000 1.0
C      1  0.5378040000000  0.5561000000000  0.5091610000000 1.0
C      1  0.4766100000000  0.5586880000000  0.4747110000000 1.0
C      1  0.4752000000000  0.5561780000000  0.5312180000000 1.0
END
