TITL C-65802-1335-10 229.195344260479 125000 -740.239579993007 0 0 107 (C1) n - 1
REM
REM in /rds/project/t2_vol4/rds-t2-cs072/BORA/CARBON/from-Arr/AIRSS/Generating-Clusters/GAP-ML-2020/Higher-Symm/SD-CG/HFTN-CG
REM
REM
REM
REM
REM
REM ./C.cell (b20cbc046b6831c77cfcea5457e17084)
REM AIRSS Version 0.9.1 bugfix July 2018 build 013d7b7c2542+ Fri, 06 Jul 2018 19:26:36 +0100
REM compiler GCC version 9.3.0
REM options -cpp -mtune=generic -march=x86-64 -g -O0
REM seed 759661874 1310161945 -61175209 -219592373 -21634750 -1072403208 257131115 600401637 -924962534 86907318 803275076 1784775870 116514074 -964006860 -1024312466 -1817532296 1973173777 -1356892408 1304935748 464900574 2027587298 928523040 1284949166 1428837467 -131825353 1612889809 1715779639 173230499 1133862320 -473618777 2015258411 850119889 -736992230
REM
CELL 1.54180   50.00000   50.00000   50.00000   90.00000   90.00000   90.00000
LATT -1
SFAC C  
C      1  0.4878530000000  0.4985400000000  0.4930140000000 1.0
C      1  0.5072470000000  0.5546460000000  0.4267660000000 1.0
C      1  0.4822930000000  0.5844320000000  0.5405560000000 1.0
C      1  0.4790660000000  0.5940590000000  0.4991110000000 1.0
C      1  0.4834860000000  0.4579750000000  0.4245400000000 1.0
C      1  0.4581800000000  0.4166770000000  0.4813890000000 1.0
C      1  0.4603020000000  0.5373620000000  0.4270140000000 1.0
C      1  0.4274030000000  0.4530800000000  0.5256650000000 1.0
C      1  0.5521070000000  0.4463690000000  0.4626000000000 1.0
C      1  0.4991320000000  0.5052630000000  0.4313300000000 1.0
C      1  0.5546350000000  0.5058140000000  0.5711990000000 1.0
C      1  0.4674860000000  0.4221820000000  0.5097340000000 1.0
C      1  0.5562830000000  0.4268850000000  0.5208740000000 1.0
C      1  0.4660250000000  0.4629010000000  0.5532520000000 1.0
C      1  0.5088040000000  0.5501190000000  0.5620600000000 1.0
C      1  0.5282710000000  0.4333760000000  0.4772290000000 1.0
C      1  0.4627160000000  0.5762220000000  0.4527800000000 1.0
C      1  0.5415020000000  0.5741360000000  0.4953430000000 1.0
C      1  0.5496910000000  0.4940580000000  0.4324300000000 1.0
C      1  0.5350670000000  0.4175440000000  0.5022690000000 1.0
C      1  0.4506520000000  0.4728410000000  0.5007410000000 1.0
C      1  0.4715780000000  0.4198830000000  0.4582420000000 1.0
C      1  0.4403840000000  0.4272090000000  0.5198700000000 1.0
C      1  0.4266290000000  0.5421060000000  0.5116850000000 1.0
C      1  0.4430990000000  0.5582020000000  0.5279770000000 1.0
C      1  0.4188800000000  0.4724920000000  0.4709720000000 1.0
C      1  0.5663480000000  0.4904260000000  0.4556270000000 1.0
C      1  0.5420870000000  0.5213200000000  0.4279470000000 1.0
C      1  0.4427770000000  0.4718310000000  0.4546060000000 1.0
C      1  0.4892180000000  0.4327090000000  0.4413470000000 1.0
C      1  0.5102540000000  0.4956370000000  0.4590930000000 1.0
C      1  0.4912650000000  0.5390450000000  0.4667770000000 1.0
C      1  0.5643730000000  0.5105330000000  0.4747060000000 1.0
C      1  0.5503640000000  0.5433690000000  0.4445200000000 1.0
C      1  0.5188920000000  0.4754400000000  0.5309930000000 1.0
C      1  0.5379420000000  0.4226140000000  0.5438780000000 1.0
C      1  0.5093390000000  0.4558990000000  0.4900000000000 1.0
C      1  0.4651340000000  0.5166790000000  0.4980850000000 1.0
C      1  0.4327030000000  0.4274020000000  0.4911680000000 1.0
C      1  0.4792890000000  0.5083330000000  0.5742110000000 1.0
C      1  0.4273490000000  0.5144940000000  0.5222610000000 1.0
C      1  0.5164920000000  0.4304890000000  0.4486800000000 1.0
C      1  0.5728230000000  0.4502990000000  0.5205800000000 1.0
C      1  0.5942110000000  0.5210370000000  0.5495640000000 1.0
C      1  0.4373210000000  0.5010270000000  0.5460820000000 1.0
C      1  0.5730050000000  0.4928100000000  0.5159920000000 1.0
C      1  0.4791600000000  0.5566780000000  0.5064500000000 1.0
C      1  0.4741760000000  0.4697350000000  0.5220070000000 1.0
C      1  0.5315190000000  0.4370590000000  0.5673310000000 1.0
C      1  0.4876460000000  0.4461690000000  0.5101870000000 1.0
C      1  0.4259870000000  0.5449730000000  0.4809220000000 1.0
C      1  0.5567900000000  0.5488560000000  0.5422360000000 1.0
C      1  0.4389500000000  0.5004400000000  0.5002480000000 1.0
C      1  0.4782640000000  0.4798850000000  0.5751600000000 1.0
C      1  0.5681610000000  0.5275740000000  0.5590910000000 1.0
C      1  0.4755490000000  0.5606570000000  0.4302040000000 1.0
C      1  0.5713670000000  0.5445950000000  0.5174450000000 1.0
C      1  0.5151430000000  0.5273450000000  0.4210920000000 1.0
C      1  0.4912710000000  0.4239110000000  0.5297610000000 1.0
C      1  0.4420800000000  0.4904550000000  0.4310200000000 1.0
C      1  0.5084250000000  0.5175210000000  0.4788510000000 1.0
C      1  0.4572230000000  0.4688560000000  0.4266310000000 1.0
C      1  0.5046500000000  0.5184020000000  0.5250090000000 1.0
C      1  0.4236740000000  0.5227980000000  0.4621940000000 1.0
C      1  0.4381570000000  0.4713520000000  0.5463650000000 1.0
C      1  0.5043220000000  0.4772290000000  0.4201130000000 1.0
C      1  0.4837630000000  0.5612610000000  0.5555620000000 1.0
C      1  0.4471360000000  0.5609470000000  0.4711610000000 1.0
C      1  0.4793060000000  0.5327070000000  0.5224440000000 1.0
C      1  0.5031470000000  0.4402000000000  0.5732370000000 1.0
C      1  0.5867180000000  0.5192400000000  0.5224340000000 1.0
C      1  0.5176890000000  0.4130290000000  0.5258150000000 1.0
C      1  0.4253250000000  0.4552780000000  0.4949410000000 1.0
C      1  0.5784160000000  0.4674700000000  0.4977660000000 1.0
C      1  0.5289410000000  0.4738670000000  0.5059950000000 1.0
C      1  0.5056550000000  0.5230430000000  0.5747860000000 1.0
C      1  0.4406390000000  0.5191790000000  0.4373880000000 1.0
C      1  0.4963920000000  0.4902670000000  0.5219320000000 1.0
C      1  0.4204280000000  0.4995310000000  0.4770990000000 1.0
C      1  0.5322830000000  0.4720260000000  0.4241700000000 1.0
C      1  0.5630960000000  0.5378180000000  0.4695230000000 1.0
C      1  0.5305000000000  0.5642620000000  0.4437930000000 1.0
C      1  0.4561350000000  0.5176650000000  0.5601940000000 1.0
C      1  0.4926840000000  0.4757730000000  0.4744450000000 1.0
C      1  0.5706240000000  0.4658190000000  0.4703060000000 1.0
C      1  0.4783940000000  0.5221500000000  0.4426000000000 1.0
C      1  0.5261900000000  0.5783060000000  0.5203330000000 1.0
C      1  0.4643460000000  0.4703300000000  0.4747490000000 1.0
C      1  0.4826260000000  0.4366810000000  0.5552050000000 1.0
C      1  0.5632660000000  0.4782480000000  0.5649480000000 1.0
C      1  0.5367730000000  0.4478720000000  0.4382210000000 1.0
C      1  0.5237980000000  0.4783590000000  0.5893030000000 1.0
C      1  0.5463680000000  0.4999320000000  0.5005800000000 1.0
C      1  0.4676110000000  0.5429540000000  0.4835090000000 1.0
C      1  0.4991920000000  0.4655750000000  0.5863930000000 1.0
C      1  0.4614090000000  0.5799910000000  0.5197900000000 1.0
C      1  0.5022690000000  0.5713180000000  0.4676240000000 1.0
C      1  0.5733200000000  0.4725800000000  0.5394060000000 1.0
C      1  0.5624330000000  0.5550090000000  0.4931660000000 1.0
C      1  0.5288220000000  0.5773890000000  0.4698690000000 1.0
C      1  0.5012710000000  0.5930190000000  0.5204800000000 1.0
C      1  0.5278570000000  0.5059550000000  0.5821010000000 1.0
C      1  0.4808940000000  0.5891380000000  0.4708530000000 1.0
C      1  0.4620490000000  0.5425720000000  0.5463590000000 1.0
C      1  0.5248080000000  0.5206830000000  0.5033750000000 1.0
C      1  0.5312530000000  0.5611900000000  0.5438470000000 1.0
C      1  0.5437060000000  0.4611120000000  0.5772250000000 1.0
END
