TITL C-65798-1199-7 -73.4519168326813 125000 -833.932646438013 0 0 117 (C1) n - 1
REM
REM in /rds/project/t2_vol4/rds-t2-cs072/BORA/CARBON/from-Arr/AIRSS/Generating-Clusters/GAP-ML-2020/Higher-Symm/SD-CG/HFTN-CG
REM
REM
REM
REM
REM
REM ./C.cell (b20cbc046b6831c77cfcea5457e17084)
REM AIRSS Version 0.9.1 bugfix July 2018 build 013d7b7c2542+ Fri, 06 Jul 2018 19:26:36 +0100
REM compiler GCC version 9.3.0
REM options -cpp -mtune=generic -march=x86-64 -g -O0
REM seed -1186385790 -1653134577 315975797 257652369 -1852376461 -860765787 -7783632 227172203 -2096942188 -1904050524 -1598397377 -71010803 885654722 39148923 -1555618597 -23933071 -485045104 -455181710 -1088859379 -630656692 -1355965613 -932677172 494690276 -440503611 1391785376 892202269 2094406073 1428053316 1375619849 -106450588 111776065 -513373246 1944557992
REM
CELL 1.54180   50.00000   50.00000   50.00000   90.00000   90.00000   90.00000
LATT -1
SFAC C  
C      1  0.4552540000000  0.5556010000000  0.4486560000000 1.0
C      1  0.5389180000000  0.5623070000000  0.4453890000000 1.0
C      1  0.5713570000000  0.4814240000000  0.4428090000000 1.0
C      1  0.5026360000000  0.4282360000000  0.4486720000000 1.0
C      1  0.4341100000000  0.4682630000000  0.4441900000000 1.0
C      1  0.4499360000000  0.5580470000000  0.5550910000000 1.0
C      1  0.5398330000000  0.5641390000000  0.5516290000000 1.0
C      1  0.5700340000000  0.4813650000000  0.5512130000000 1.0
C      1  0.5048450000000  0.4259360000000  0.5553650000000 1.0
C      1  0.4285930000000  0.4716810000000  0.5545070000000 1.0
C      1  0.5170470000000  0.4884560000000  0.5645140000000 1.0
C      1  0.4908270000000  0.4743320000000  0.5700720000000 1.0
C      1  0.4718600000000  0.4980990000000  0.5625800000000 1.0
C      1  0.4875630000000  0.5256050000000  0.5696410000000 1.0
C      1  0.5155540000000  0.5185790000000  0.5699020000000 1.0
C      1  0.5229730000000  0.4841950000000  0.4249340000000 1.0
C      1  0.4943460000000  0.4744270000000  0.4254410000000 1.0
C      1  0.4747900000000  0.4969360000000  0.4258190000000 1.0
C      1  0.4897060000000  0.5219270000000  0.4272150000000 1.0
C      1  0.5192920000000  0.5133520000000  0.4332980000000 1.0
C      1  0.4377130000000  0.5395250000000  0.4371320000000 1.0
C      1  0.5176200000000  0.5764170000000  0.4366740000000 1.0
C      1  0.5793890000000  0.5058080000000  0.4340840000000 1.0
C      1  0.5264720000000  0.4273850000000  0.4372050000000 1.0
C      1  0.4376180000000  0.4433770000000  0.4311620000000 1.0
C      1  0.4291930000000  0.5427500000000  0.5635540000000 1.0
C      1  0.5191660000000  0.5766030000000  0.5626400000000 1.0
C      1  0.5764090000000  0.5051960000000  0.5623510000000 1.0
C      1  0.5304780000000  0.4252630000000  0.5643930000000 1.0
C      1  0.4358890000000  0.4478370000000  0.5657830000000 1.0
C      1  0.4151430000000  0.4471770000000  0.5141140000000 1.0
C      1  0.4240010000000  0.5637960000000  0.5140120000000 1.0
C      1  0.5375320000000  0.5933550000000  0.5131090000000 1.0
C      1  0.5965830000000  0.4930030000000  0.5120210000000 1.0
C      1  0.5232130000000  0.4029030000000  0.5148550000000 1.0
C      1  0.4159770000000  0.4472680000000  0.4851170000000 1.0
C      1  0.4247190000000  0.5636050000000  0.4850080000000 1.0
C      1  0.5368390000000  0.5927810000000  0.4841670000000 1.0
C      1  0.5966810000000  0.4930520000000  0.4830590000000 1.0
C      1  0.5225280000000  0.4029750000000  0.4858110000000 1.0
C      1  0.5841640000000  0.4738190000000  0.5271490000000 1.0
C      1  0.5012300000000  0.4095140000000  0.5306890000000 1.0
C      1  0.4155670000000  0.4702810000000  0.5285850000000 1.0
C      1  0.4447460000000  0.5725880000000  0.5300310000000 1.0
C      1  0.5521180000000  0.5752250000000  0.5278470000000 1.0
C      1  0.5840900000000  0.4736300000000  0.4681430000000 1.0
C      1  0.5004510000000  0.4117770000000  0.4721170000000 1.0
C      1  0.4179960000000  0.4693520000000  0.4692830000000 1.0
C      1  0.4471800000000  0.5707900000000  0.4714770000000 1.0
C      1  0.5515010000000  0.5746890000000  0.4690960000000 1.0
C      1  0.5813050000000  0.5393580000000  0.4688340000000 1.0
C      1  0.5606530000000  0.4333390000000  0.4684040000000 1.0
C      1  0.4565350000000  0.4240990000000  0.4721650000000 1.0
C      1  0.4143900000000  0.5157750000000  0.4687580000000 1.0
C      1  0.4883720000000  0.5893710000000  0.4713310000000 1.0
C      1  0.5809240000000  0.5388900000000  0.5279480000000 1.0
C      1  0.5618320000000  0.4328160000000  0.5278500000000 1.0
C      1  0.4552710000000  0.4209130000000  0.5310460000000 1.0
C      1  0.4123390000000  0.5166680000000  0.5274330000000 1.0
C      1  0.4883380000000  0.5910070000000  0.5306590000000 1.0
C      1  0.4334580000000  0.4251600000000  0.4864460000000 1.0
C      1  0.4106990000000  0.5389150000000  0.4834430000000 1.0
C      1  0.5091700000000  0.6000340000000  0.4857500000000 1.0
C      1  0.5963140000000  0.5217340000000  0.4836240000000 1.0
C      1  0.5489680000000  0.4136450000000  0.4839800000000 1.0
C      1  0.4328240000000  0.4249440000000  0.5155310000000 1.0
C      1  0.4094620000000  0.5392770000000  0.5124590000000 1.0
C      1  0.5095470000000  0.5999620000000  0.5149030000000 1.0
C      1  0.5959270000000  0.5215050000000  0.5127520000000 1.0
C      1  0.5500970000000  0.4129430000000  0.5130060000000 1.0
C      1  0.4852390000000  0.4462320000000  0.5636580000000 1.0
C      1  0.4416570000000  0.4961090000000  0.5622770000000 1.0
C      1  0.4770310000000  0.5525580000000  0.5638540000000 1.0
C      1  0.5382050000000  0.5346280000000  0.5532460000000 1.0
C      1  0.5432370000000  0.4699040000000  0.5537330000000 1.0
C      1  0.4869260000000  0.4530830000000  0.4449620000000 1.0
C      1  0.4470420000000  0.4929620000000  0.4353250000000 1.0
C      1  0.4826160000000  0.5448350000000  0.4463450000000 1.0
C      1  0.5417310000000  0.5347690000000  0.4371190000000 1.0
C      1  0.5468110000000  0.4692640000000  0.4336000000000 1.0
C      1  0.4252810000000  0.5179540000000  0.5533160000000 1.0
C      1  0.4934520000000  0.5751310000000  0.5553980000000 1.0
C      1  0.5670950000000  0.5281770000000  0.5512620000000 1.0
C      1  0.5495050000000  0.4403840000000  0.5531000000000 1.0
C      1  0.4586680000000  0.4364890000000  0.5557750000000 1.0
C      1  0.4309630000000  0.5147430000000  0.4445260000000 1.0
C      1  0.4938590000000  0.5729400000000  0.4481670000000 1.0
C      1  0.5686590000000  0.5283430000000  0.4447800000000 1.0
C      1  0.5474980000000  0.4423140000000  0.4438470000000 1.0
C      1  0.4597440000000  0.4402410000000  0.4481300000000 1.0
C      1  0.4770310000000  0.4123560000000  0.4871280000000 1.0
C      1  0.4112580000000  0.4924820000000  0.4837390000000 1.0
C      1  0.4651750000000  0.5858450000000  0.4866450000000 1.0
C      1  0.5712240000000  0.5611170000000  0.4836630000000 1.0
C      1  0.5768790000000  0.4508980000000  0.4831830000000 1.0
C      1  0.4770030000000  0.4107190000000  0.5162450000000 1.0
C      1  0.4106710000000  0.4928910000000  0.5127910000000 1.0
C      1  0.4647680000000  0.5865570000000  0.5158410000000 1.0
C      1  0.5714780000000  0.5610050000000  0.5132080000000 1.0
C      1  0.5768990000000  0.4510570000000  0.5124580000000 1.0
C      1  0.5080410000000  0.4617010000000  0.5112850000000 1.0
C      1  0.4813640000000  0.4970860000000  0.5312930000000 1.0
C      1  0.4746710000000  0.5217090000000  0.5152680000000 1.0
C      1  0.5230660000000  0.5231650000000  0.5270860000000 1.0
C      1  0.5266160000000  0.4741830000000  0.5282650000000 1.0
C      1  0.4941820000000  0.4759600000000  0.4683330000000 1.0
C      1  0.4722010000000  0.4839550000000  0.4872060000000 1.0
C      1  0.4915110000000  0.5267780000000  0.4717180000000 1.0
C      1  0.5104910000000  0.5397550000000  0.4904580000000 1.0
C      1  0.5307360000000  0.4971030000000  0.4835420000000 1.0
C      1  0.5328870000000  0.5211970000000  0.4986210000000 1.0
C      1  0.4984220000000  0.5386860000000  0.5162220000000 1.0
C      1  0.5186980000000  0.4700250000000  0.4868570000000 1.0
C      1  0.4791310000000  0.4731660000000  0.5128710000000 1.0
C      1  0.4692500000000  0.5132230000000  0.4883080000000 1.0
C      1  0.5119810000000  0.4978140000000  0.5353400000000 1.0
C      1  0.5089450000000  0.5038940000000  0.4628030000000 1.0
END
