TITL C-66560-2204-2 0.0529580490019072 125000 -1104.28070800436 0 0 155 (C1) n - 1
REM
REM in /rds/project/t2_vol4/rds-t2-cs072/BORA/CARBON/from-Arr/AIRSS/Generating-Clusters/GAP-ML-2020/Higher-Symm/SD-CG/HFTN-CG
REM
REM
REM
REM
REM
REM ./C.cell (b20cbc046b6831c77cfcea5457e17084)
REM AIRSS Version 0.9.1 bugfix July 2018 build 013d7b7c2542+ Fri, 06 Jul 2018 19:26:36 +0100
REM compiler GCC version 9.3.0
REM options -cpp -mtune=generic -march=x86-64 -g -O0
REM seed -820788739 500445011 -2125225889 -41619330 -1480289297 1029786643 -1206316219 -846297206 238034353 -140822353 865086856 -1492211748 -1098940707 -162668289 -2099535426 -1843869566 1201948343 948494196 1391264973 2032950220 -1992694144 2100985867 -1542725204 -1875599288 730120741 -1070557158 -134548982 -841455550 -1770315149 -47050344 2040242721 -129004646 -1734777512
REM
CELL 1.54180   50.00000   50.00000   50.00000   90.00000   90.00000   90.00000
LATT -1
SFAC C  
C      1  0.5597290000000  0.5401700000000  0.5101970000000 1.0
C      1  0.5587550000000  0.4594580000000  0.4922250000000 1.0
C      1  0.4414460000000  0.5392870000000  0.5094240000000 1.0
C      1  0.4412020000000  0.4599330000000  0.4911260000000 1.0
C      1  0.4485330000000  0.4841370000000  0.5072730000000 1.0
C      1  0.4523500000000  0.5114560000000  0.4969110000000 1.0
C      1  0.5554250000000  0.4829130000000  0.5110220000000 1.0
C      1  0.5516550000000  0.5102120000000  0.5028260000000 1.0
C      1  0.5624910000000  0.4354590000000  0.5113250000000 1.0
C      1  0.5624910000000  0.5636640000000  0.4892930000000 1.0
C      1  0.4366410000000  0.4358610000000  0.5105340000000 1.0
C      1  0.4372480000000  0.5629330000000  0.4893280000000 1.0
C      1  0.5280310000000  0.5761720000000  0.4496010000000 1.0
C      1  0.5276150000000  0.4248010000000  0.5493270000000 1.0
C      1  0.4710990000000  0.5743900000000  0.4503690000000 1.0
C      1  0.4699480000000  0.4237430000000  0.5498270000000 1.0
C      1  0.4190820000000  0.4493490000000  0.5449420000000 1.0
C      1  0.4197930000000  0.5497080000000  0.4549170000000 1.0
C      1  0.5793220000000  0.4498530000000  0.5454990000000 1.0
C      1  0.5790840000000  0.5503750000000  0.4551760000000 1.0
C      1  0.5275270000000  0.4947360000000  0.4057150000000 1.0
C      1  0.5285200000000  0.5050000000000  0.5946980000000 1.0
C      1  0.4700140000000  0.4943610000000  0.4042510000000 1.0
C      1  0.4708610000000  0.5048180000000  0.5945090000000 1.0
C      1  0.5944920000000  0.5047210000000  0.4629550000000 1.0
C      1  0.5965040000000  0.4954240000000  0.5391130000000 1.0
C      1  0.4038510000000  0.5044010000000  0.4620200000000 1.0
C      1  0.4034430000000  0.4949950000000  0.5381070000000 1.0
C      1  0.5244690000000  0.5490890000000  0.5744120000000 1.0
C      1  0.5230400000000  0.4517070000000  0.4276550000000 1.0
C      1  0.4751550000000  0.5487130000000  0.5738680000000 1.0
C      1  0.4739610000000  0.4496980000000  0.4249260000000 1.0
C      1  0.4460600000000  0.4134430000000  0.4961350000000 1.0
C      1  0.4467770000000  0.5854500000000  0.5035830000000 1.0
C      1  0.5522180000000  0.4140830000000  0.4965020000000 1.0
C      1  0.5530290000000  0.5862240000000  0.5036260000000 1.0
C      1  0.5498780000000  0.5578890000000  0.4609560000000 1.0
C      1  0.5495270000000  0.4428740000000  0.5384780000000 1.0
C      1  0.4492980000000  0.5560510000000  0.4617020000000 1.0
C      1  0.4486020000000  0.4426690000000  0.5383720000000 1.0
C      1  0.3951970000000  0.5100890000000  0.4901490000000 1.0
C      1  0.3946260000000  0.4888780000000  0.5099690000000 1.0
C      1  0.6041970000000  0.5104940000000  0.4909420000000 1.0
C      1  0.6047480000000  0.4892370000000  0.5108140000000 1.0
C      1  0.4848090000000  0.4343100000000  0.5726800000000 1.0
C      1  0.4850270000000  0.5650650000000  0.4265390000000 1.0
C      1  0.5132660000000  0.4347290000000  0.5725360000000 1.0
C      1  0.5133880000000  0.5657620000000  0.4262380000000 1.0
C      1  0.4392080000000  0.5218450000000  0.5608030000000 1.0
C      1  0.4381790000000  0.4772770000000  0.4381800000000 1.0
C      1  0.5610160000000  0.5224660000000  0.5614280000000 1.0
C      1  0.5591500000000  0.4784910000000  0.4403040000000 1.0
C      1  0.5120240000000  0.4875480000000  0.4645630000000 1.0
C      1  0.5163850000000  0.5145490000000  0.5367870000000 1.0
C      1  0.4833760000000  0.4863210000000  0.4558700000000 1.0
C      1  0.4849230000000  0.5139900000000  0.5360690000000 1.0
C      1  0.4736350000000  0.4085910000000  0.5014540000000 1.0
C      1  0.4745310000000  0.5891610000000  0.4984040000000 1.0
C      1  0.5240410000000  0.4114620000000  0.5015280000000 1.0
C      1  0.5251790000000  0.5899400000000  0.4983550000000 1.0
C      1  0.4844490000000  0.4087060000000  0.5295080000000 1.0
C      1  0.4852830000000  0.5895910000000  0.4705910000000 1.0
C      1  0.5132430000000  0.4099570000000  0.5292180000000 1.0
C      1  0.5138990000000  0.5904480000000  0.4704020000000 1.0
C      1  0.5149710000000  0.4405630000000  0.4899610000000 1.0
C      1  0.5160090000000  0.5606410000000  0.5096240000000 1.0
C      1  0.4839540000000  0.4395140000000  0.4908300000000 1.0
C      1  0.4846790000000  0.5597230000000  0.5097350000000 1.0
C      1  0.4308330000000  0.4796790000000  0.5781210000000 1.0
C      1  0.4303560000000  0.5198240000000  0.4208610000000 1.0
C      1  0.5682780000000  0.4796930000000  0.5786280000000 1.0
C      1  0.5675730000000  0.5200580000000  0.4217240000000 1.0
C      1  0.4846030000000  0.4696630000000  0.4066190000000 1.0
C      1  0.4854950000000  0.5292910000000  0.5922960000000 1.0
C      1  0.5129670000000  0.4702860000000  0.4082000000000 1.0
C      1  0.5138500000000  0.5294610000000  0.5924970000000 1.0
C      1  0.5132430000000  0.4255900000000  0.4351130000000 1.0
C      1  0.5140820000000  0.5746300000000  0.5656730000000 1.0
C      1  0.4847960000000  0.4242870000000  0.4340280000000 1.0
C      1  0.4856180000000  0.5744010000000  0.5654950000000 1.0
C      1  0.3981820000000  0.4619100000000  0.5010450000000 1.0
C      1  0.3990400000000  0.5369380000000  0.4990950000000 1.0
C      1  0.6007530000000  0.4621460000000  0.5020280000000 1.0
C      1  0.6006810000000  0.5374340000000  0.4993940000000 1.0
C      1  0.5392580000000  0.5531130000000  0.5280540000000 1.0
C      1  0.5379910000000  0.4488500000000  0.4735600000000 1.0
C      1  0.4612620000000  0.5520080000000  0.5274750000000 1.0
C      1  0.4616040000000  0.4484410000000  0.4729830000000 1.0
C      1  0.5137140000000  0.5162610000000  0.4541010000000 1.0
C      1  0.5156150000000  0.4857510000000  0.5451200000000 1.0
C      1  0.4826850000000  0.5147650000000  0.4524330000000 1.0
C      1  0.4849260000000  0.4856990000000  0.5450620000000 1.0
C      1  0.5827040000000  0.4797440000000  0.4568510000000 1.0
C      1  0.5849000000000  0.5209180000000  0.5452110000000 1.0
C      1  0.4150430000000  0.4791480000000  0.4553390000000 1.0
C      1  0.4153940000000  0.5201420000000  0.5445700000000 1.0
C      1  0.5259640000000  0.5446410000000  0.4096810000000 1.0
C      1  0.5262130000000  0.4553660000000  0.5893390000000 1.0
C      1  0.4719850000000  0.5443700000000  0.4095570000000 1.0
C      1  0.4725510000000  0.4552450000000  0.5895270000000 1.0
C      1  0.4463830000000  0.4587650000000  0.5855370000000 1.0
C      1  0.4456530000000  0.5410540000000  0.4130560000000 1.0
C      1  0.5525070000000  0.4586160000000  0.5857420000000 1.0
C      1  0.5522250000000  0.5411120000000  0.4135570000000 1.0
C      1  0.5357060000000  0.5349760000000  0.5512780000000 1.0
C      1  0.5337890000000  0.4666170000000  0.4509310000000 1.0
C      1  0.4646630000000  0.5341820000000  0.5505240000000 1.0
C      1  0.4636750000000  0.4648010000000  0.4480860000000 1.0
C      1  0.4847700000000  0.5193580000000  0.4001410000000 1.0
C      1  0.4855760000000  0.4800920000000  0.5988330000000 1.0
C      1  0.5128130000000  0.5195570000000  0.4007920000000 1.0
C      1  0.5136190000000  0.4802490000000  0.5989140000000 1.0
C      1  0.5281510000000  0.4100180000000  0.4545330000000 1.0
C      1  0.5289570000000  0.5899090000000  0.5455790000000 1.0
C      1  0.4700950000000  0.4087990000000  0.4540510000000 1.0
C      1  0.4707600000000  0.5897360000000  0.5455750000000 1.0
C      1  0.5781270000000  0.4315460000000  0.4634840000000 1.0
C      1  0.5796910000000  0.5694410000000  0.5371220000000 1.0
C      1  0.4207220000000  0.4314460000000  0.4631350000000 1.0
C      1  0.4207640000000  0.5682660000000  0.5367420000000 1.0
C      1  0.5536870000000  0.4954220000000  0.4182440000000 1.0
C      1  0.5546230000000  0.5043770000000  0.5823600000000 1.0
C      1  0.4438580000000  0.4950500000000  0.4167830000000 1.0
C      1  0.4449450000000  0.5041210000000  0.5819620000000 1.0
C      1  0.5311550000000  0.5336420000000  0.4664780000000 1.0
C      1  0.5348960000000  0.4701360000000  0.5293540000000 1.0
C      1  0.4651620000000  0.5288390000000  0.4701790000000 1.0
C      1  0.4649470000000  0.4705390000000  0.5290670000000 1.0
C      1  0.4145120000000  0.5420330000000  0.5253980000000 1.0
C      1  0.4140140000000  0.4572790000000  0.4747080000000 1.0
C      1  0.5861190000000  0.5432360000000  0.5260990000000 1.0
C      1  0.5848360000000  0.4573270000000  0.4755560000000 1.0
C      1  0.4863710000000  0.5364020000000  0.4911250000000 1.0
C      1  0.4856760000000  0.4581980000000  0.5134190000000 1.0
C      1  0.5156680000000  0.5369180000000  0.4906340000000 1.0
C      1  0.5127170000000  0.4651180000000  0.5092810000000 1.0
C      1  0.4465250000000  0.5782370000000  0.5326370000000 1.0
C      1  0.4462040000000  0.4210550000000  0.4671740000000 1.0
C      1  0.5537290000000  0.5793640000000  0.5327260000000 1.0
C      1  0.5522050000000  0.4220300000000  0.4674250000000 1.0
C      1  0.5895180000000  0.5557990000000  0.4806310000000 1.0
C      1  0.5895310000000  0.4434460000000  0.5204050000000 1.0
C      1  0.4100090000000  0.5554460000000  0.4805970000000 1.0
C      1  0.4092910000000  0.4432980000000  0.5193820000000 1.0
C      1  0.4131150000000  0.5248130000000  0.4436740000000 1.0
C      1  0.4128630000000  0.4744900000000  0.5560350000000 1.0
C      1  0.5849140000000  0.5250120000000  0.4445040000000 1.0
C      1  0.5864470000000  0.4746980000000  0.5566690000000 1.0
C      1  0.5136450000000  0.6008120000000  0.5239070000000 1.0
C      1  0.5129980000000  0.3991540000000  0.4761010000000 1.0
C      1  0.4858920000000  0.6007390000000  0.5238890000000 1.0
C      1  0.4853120000000  0.3976870000000  0.4758120000000 1.0
C      1  0.4805950000000  0.5107810000000  0.5061720000000 1.0
C      1  0.5237440000000  0.5131790000000  0.5068180000000 1.0
C      1  0.5076290000000  0.4911830000000  0.4956290000000 1.0
END
