TITL C-66559-1995-6 -7.24061975308029 125000 -167.409246274102 0 0 26 (C1) n - 1
REM
REM in /rds/project/t2_vol4/rds-t2-cs072/BORA/CARBON/from-Arr/AIRSS/Generating-Clusters/GAP-ML-2020/Higher-Symm/SD-CG/HFTN-CG
REM
REM
REM
REM
REM
REM ./C.cell (b20cbc046b6831c77cfcea5457e17084)
REM AIRSS Version 0.9.1 bugfix July 2018 build 013d7b7c2542+ Fri, 06 Jul 2018 19:26:36 +0100
REM compiler GCC version 9.3.0
REM options -cpp -mtune=generic -march=x86-64 -g -O0
REM seed -842935729 -1400052592 -984410091 -433179317 -343773306 -1338851675 -914184893 -1887643550 -1783539944 -1413107021 -445700039 1237627626 1794723874 1146135551 -854646319 1636201817 -794728765 -1894927967 1159693539 -1611920695 996492885 1097569450 1230983032 864377832 -951333711 1486158710 1245919516 97703401 -1671078976 -1238611610 2147106961 1998301563 323663335
REM
CELL 1.54180   50.00000   50.00000   50.00000   90.00000   90.00000   90.00000
LATT -1
SFAC C  
C      1  0.5399880000000  0.4873160000000  0.5069840000000 1.0
C      1  0.5253190000000  0.4813790000000  0.5498580000000 1.0
C      1  0.4709430000000  0.4913430000000  0.4439960000000 1.0
C      1  0.5299430000000  0.5138010000000  0.4656530000000 1.0
C      1  0.4606830000000  0.4482280000000  0.5015190000000 1.0
C      1  0.5331430000000  0.4709720000000  0.5254550000000 1.0
C      1  0.5231250000000  0.4919930000000  0.4505260000000 1.0
C      1  0.5001820000000  0.4862970000000  0.5600240000000 1.0
C      1  0.4621780000000  0.4294190000000  0.5182340000000 1.0
C      1  0.5475260000000  0.4991460000000  0.5510940000000 1.0
C      1  0.4713140000000  0.5289260000000  0.4752290000000 1.0
C      1  0.4656850000000  0.5143750000000  0.5016570000000 1.0
C      1  0.4841680000000  0.5173230000000  0.5218000000000 1.0
C      1  0.5067040000000  0.5359550000000  0.5195150000000 1.0
C      1  0.5130310000000  0.5312920000000  0.5475560000000 1.0
C      1  0.4929830000000  0.5100690000000  0.5486550000000 1.0
C      1  0.5403370000000  0.5103300000000  0.4918010000000 1.0
C      1  0.4951520000000  0.5388520000000  0.4682550000000 1.0
C      1  0.4579140000000  0.5081910000000  0.4615160000000 1.0
C      1  0.4518020000000  0.4939800000000  0.4866560000000 1.0
C      1  0.5186100000000  0.5390370000000  0.4589680000000 1.0
C      1  0.4980910000000  0.4844700000000  0.4511150000000 1.0
C      1  0.4618760000000  0.4675410000000  0.4831860000000 1.0
C      1  0.5339470000000  0.5291650000000  0.5123050000000 1.0
C      1  0.5393510000000  0.5236210000000  0.5404580000000 1.0
C      1  0.4760050000000  0.4669770000000  0.4579850000000 1.0
END
