TITL C-66569-1996-8 0.249772848052054 125000 -869.248996135475 0 0 126 (C1) n - 1
REM
REM in /rds/project/t2_vol4/rds-t2-cs072/BORA/CARBON/from-Arr/AIRSS/Generating-Clusters/GAP-ML-2020/Higher-Symm/SD-CG/HFTN-CG
REM
REM
REM
REM
REM
REM ./C.cell (b20cbc046b6831c77cfcea5457e17084)
REM AIRSS Version 0.9.1 bugfix July 2018 build 013d7b7c2542+ Fri, 06 Jul 2018 19:26:36 +0100
REM compiler GCC version 9.3.0
REM options -cpp -mtune=generic -march=x86-64 -g -O0
REM seed 923491281 -2107402618 -995894878 -844774478 1581250931 -1158723403 -919099391 -830382186 -1067577323 -1986266543 -1320953999 -1782987024 1322210610 261764157 500724067 -1199673364 432077792 1297748915 564983349 659117170 321741157 -1929568889 699004349 -1584411593 1810711819 -1248948258 -1016473111 760636763 1495381920 -416177629 -2100162630 -1331681806 -902613485
REM
CELL 1.54180   50.00000   50.00000   50.00000   90.00000   90.00000   90.00000
LATT -1
SFAC C  
C      1  0.5107790000000  0.5422220000000  0.5676040000000 1.0
C      1  0.4605770000000  0.4843050000000  0.5716410000000 1.0
C      1  0.5347010000000  0.4731230000000  0.5732130000000 1.0
C      1  0.4902700000000  0.5457000000000  0.4306210000000 1.0
C      1  0.5391820000000  0.4850820000000  0.4285650000000 1.0
C      1  0.4666020000000  0.4749000000000  0.4299860000000 1.0
C      1  0.4925220000000  0.4584900000000  0.4272950000000 1.0
C      1  0.5378690000000  0.5154310000000  0.4333310000000 1.0
C      1  0.4650280000000  0.5317120000000  0.4290140000000 1.0
C      1  0.5070720000000  0.4572930000000  0.5738940000000 1.0
C      1  0.4625480000000  0.5141510000000  0.5658810000000 1.0
C      1  0.5362800000000  0.5270520000000  0.5705440000000 1.0
C      1  0.4382350000000  0.4216380000000  0.5310910000000 1.0
C      1  0.6004560000000  0.4855690000000  0.5307580000000 1.0
C      1  0.4628300000000  0.5929900000000  0.5311830000000 1.0
C      1  0.5608150000000  0.4218260000000  0.4695210000000 1.0
C      1  0.4002680000000  0.4864190000000  0.4683830000000 1.0
C      1  0.5379360000000  0.5944300000000  0.4688790000000 1.0
C      1  0.5617610000000  0.5795700000000  0.4693030000000 1.0
C      1  0.3993100000000  0.5144440000000  0.4681750000000 1.0
C      1  0.5366190000000  0.4080470000000  0.4695220000000 1.0
C      1  0.4388110000000  0.5786070000000  0.5310280000000 1.0
C      1  0.6008760000000  0.5135890000000  0.5307110000000 1.0
C      1  0.4623700000000  0.4076930000000  0.5311520000000 1.0
C      1  0.5487680000000  0.5277900000000  0.4881360000000 1.0
C      1  0.4519820000000  0.5268080000000  0.4813060000000 1.0
C      1  0.5011320000000  0.4427430000000  0.4869750000000 1.0
C      1  0.4514920000000  0.5246020000000  0.5088390000000 1.0
C      1  0.5479370000000  0.5292790000000  0.5161690000000 1.0
C      1  0.5010320000000  0.4435460000000  0.5151500000000 1.0
C      1  0.4514070000000  0.4696280000000  0.5141270000000 1.0
C      1  0.5479690000000  0.4719200000000  0.5156820000000 1.0
C      1  0.4984760000000  0.5543000000000  0.5130840000000 1.0
C      1  0.5490380000000  0.4714130000000  0.4875420000000 1.0
C      1  0.4527180000000  0.4704250000000  0.4860540000000 1.0
C      1  0.4977440000000  0.5534030000000  0.4851190000000 1.0
C      1  0.4652600000000  0.4122720000000  0.4818000000000 1.0
C      1  0.5933710000000  0.5136650000000  0.4825090000000 1.0
C      1  0.4408420000000  0.5742530000000  0.4827220000000 1.0
C      1  0.5349530000000  0.4122970000000  0.5194570000000 1.0
C      1  0.4067220000000  0.5134190000000  0.5162560000000 1.0
C      1  0.5588420000000  0.5747310000000  0.5176830000000 1.0
C      1  0.5343460000000  0.5880360000000  0.5165270000000 1.0
C      1  0.4066870000000  0.4856390000000  0.5170830000000 1.0
C      1  0.5588980000000  0.4263210000000  0.5190840000000 1.0
C      1  0.4650710000000  0.5881670000000  0.4830590000000 1.0
C      1  0.5936390000000  0.4858200000000  0.4820920000000 1.0
C      1  0.4410960000000  0.4259700000000  0.4813940000000 1.0
C      1  0.4279150000000  0.4720740000000  0.5312840000000 1.0
C      1  0.5599570000000  0.4518950000000  0.5326580000000 1.0
C      1  0.5114080000000  0.5754110000000  0.5287440000000 1.0
C      1  0.5717650000000  0.4722900000000  0.4692020000000 1.0
C      1  0.4401580000000  0.4516780000000  0.4680590000000 1.0
C      1  0.4877050000000  0.5759130000000  0.4698780000000 1.0
C      1  0.5712390000000  0.5275170000000  0.4705700000000 1.0
C      1  0.4393530000000  0.5493330000000  0.4678830000000 1.0
C      1  0.4881080000000  0.4238850000000  0.4685340000000 1.0
C      1  0.4293440000000  0.5270400000000  0.5275610000000 1.0
C      1  0.5596490000000  0.5497770000000  0.5318270000000 1.0
C      1  0.5124530000000  0.4240700000000  0.5332090000000 1.0
C      1  0.5618810000000  0.5348320000000  0.5564380000000 1.0
C      1  0.4419420000000  0.5323450000000  0.5540050000000 1.0
C      1  0.5005750000000  0.4307520000000  0.5591120000000 1.0
C      1  0.4373610000000  0.5378260000000  0.4412860000000 1.0
C      1  0.5583830000000  0.5336670000000  0.4450860000000 1.0
C      1  0.4988290000000  0.4319340000000  0.4421940000000 1.0
C      1  0.4401260000000  0.4658470000000  0.4420560000000 1.0
C      1  0.5592750000000  0.4664470000000  0.4429710000000 1.0
C      1  0.4986100000000  0.5721610000000  0.4429460000000 1.0
C      1  0.5610420000000  0.4648790000000  0.5587330000000 1.0
C      1  0.4400240000000  0.4660290000000  0.5576910000000 1.0
C      1  0.5026100000000  0.5691790000000  0.5559410000000 1.0
C      1  0.6066540000000  0.4728990000000  0.5053100000000 1.0
C      1  0.4697270000000  0.6057470000000  0.5060110000000 1.0
C      1  0.4240660000000  0.4228440000000  0.5054210000000 1.0
C      1  0.3938250000000  0.4732780000000  0.4935780000000 1.0
C      1  0.5302050000000  0.6064970000000  0.4941520000000 1.0
C      1  0.5753900000000  0.4226460000000  0.4948200000000 1.0
C      1  0.3931510000000  0.5266780000000  0.4938260000000 1.0
C      1  0.5289040000000  0.3962570000000  0.4952450000000 1.0
C      1  0.5763650000000  0.5790210000000  0.4945290000000 1.0
C      1  0.6063200000000  0.5267440000000  0.5053770000000 1.0
C      1  0.4699610000000  0.3955220000000  0.5058750000000 1.0
C      1  0.4236970000000  0.5784570000000  0.5060780000000 1.0
C      1  0.4771270000000  0.4832670000000  0.4775310000000 1.0
C      1  0.5254680000000  0.4845160000000  0.4779060000000 1.0
C      1  0.5022410000000  0.5266140000000  0.4706370000000 1.0
C      1  0.5242490000000  0.4858200000000  0.5253740000000 1.0
C      1  0.4752560000000  0.4838870000000  0.5227790000000 1.0
C      1  0.4961150000000  0.5272320000000  0.5269680000000 1.0
C      1  0.5218880000000  0.5135910000000  0.5182660000000 1.0
C      1  0.4745750000000  0.5111000000000  0.5178610000000 1.0
C      1  0.4998660000000  0.4709450000000  0.5246150000000 1.0
C      1  0.4744500000000  0.5104680000000  0.4673090000000 1.0
C      1  0.5231330000000  0.5121630000000  0.4858070000000 1.0
C      1  0.5018330000000  0.4699350000000  0.4772360000000 1.0
C      1  0.3973810000000  0.4286100000000  0.5024860000000 1.0
C      1  0.6169690000000  0.4471100000000  0.5026390000000 1.0
C      1  0.4874650000000  0.6269510000000  0.5029130000000 1.0
C      1  0.6025970000000  0.4268900000000  0.4970800000000 1.0
C      1  0.3821690000000  0.4479280000000  0.4959060000000 1.0
C      1  0.5121560000000  0.6274030000000  0.4974020000000 1.0
C      1  0.6036630000000  0.5746040000000  0.4972330000000 1.0
C      1  0.3838490000000  0.5526360000000  0.4975960000000 1.0
C      1  0.5105110000000  0.3760580000000  0.4979320000000 1.0
C      1  0.3964230000000  0.5738630000000  0.5033840000000 1.0
C      1  0.6154180000000  0.5527610000000  0.5025110000000 1.0
C      1  0.4859970000000  0.3726420000000  0.5039810000000 1.0
C      1  0.4476610000000  0.4387770000000  0.5542800000000 1.0
C      1  0.5809260000000  0.4850310000000  0.5539990000000 1.0
C      1  0.4745290000000  0.5748960000000  0.5523230000000 1.0
C      1  0.5517020000000  0.4393110000000  0.4465550000000 1.0
C      1  0.4197070000000  0.4858670000000  0.4456630000000 1.0
C      1  0.5266180000000  0.5775260000000  0.4468840000000 1.0
C      1  0.5517640000000  0.5616910000000  0.4475090000000 1.0
C      1  0.4188760000000  0.5157950000000  0.4453320000000 1.0
C      1  0.5262480000000  0.4249040000000  0.4463620000000 1.0
C      1  0.4489760000000  0.5599110000000  0.5519600000000 1.0
C      1  0.5817000000000  0.5144740000000  0.5535780000000 1.0
C      1  0.4730480000000  0.4242340000000  0.5543740000000 1.0
C      1  0.4830870000000  0.4696640000000  0.5789270000000 1.0
C      1  0.5112790000000  0.5271180000000  0.4400280000000 1.0
C      1  0.4703060000000  0.5039450000000  0.4361460000000 1.0
C      1  0.5167610000000  0.4703860000000  0.4209860000000 1.0
C      1  0.4897260000000  0.5251050000000  0.5580390000000 1.0
C      1  0.5351670000000  0.5002740000000  0.5764700000000 1.0
END
