TITL C-66581-3145-12 0.0921413949593941 125000 -448.617972307578 0 0 68 (C2v) n - 1
REM
REM in /rds/project/t2_vol4/rds-t2-cs072/BORA/CARBON/from-Arr/AIRSS/Generating-Clusters/GAP-ML-2020/Higher-Symm/SD-CG/HFTN-CG
REM
REM
REM
REM
REM
REM ./C.cell (b20cbc046b6831c77cfcea5457e17084)
REM AIRSS Version 0.9.1 bugfix July 2018 build 013d7b7c2542+ Fri, 06 Jul 2018 19:26:36 +0100
REM compiler GCC version 9.3.0
REM options -cpp -mtune=generic -march=x86-64 -g -O0
REM seed -908197468 313007139 1005115842 1934712390 1371000919 153235887 -1697115658 -945570779 1942456025 991040609 -652152522 1973929698 1229247719 2283836 -1443647167 30809878 -1485822511 850171751 -629912552 -384547626 1898277185 -1199380288 1458420593 2000111398 -1923221657 1367024795 521007841 -746227425 83135142 -1067434668 1738358412 -1212771161 -1713988554
REM
CELL 1.54180   50.00000   50.00000   50.00000   90.00000   90.00000   90.00000
LATT -1
SFAC C  
C      1  0.4644200000000  0.4762930000000  0.4547260000000 1.0
C      1  0.5353400000000  0.4758560000000  0.5452310000000 1.0
C      1  0.4644610000000  0.4762100000000  0.5452630000000 1.0
C      1  0.5353000000000  0.4759390000000  0.4546940000000 1.0
C      1  0.5294580000000  0.5176670000000  0.4840220000000 1.0
C      1  0.4707200000000  0.5179320000000  0.5160100000000 1.0
C      1  0.5294730000000  0.5176380000000  0.5159840000000 1.0
C      1  0.4707050000000  0.5179610000000  0.4840490000000 1.0
C      1  0.4659680000000  0.5584700000000  0.4663100000000 1.0
C      1  0.5346140000000  0.5580660000000  0.5337960000000 1.0
C      1  0.4659990000000  0.5584090000000  0.5338270000000 1.0
C      1  0.5345840000000  0.5581280000000  0.4662790000000 1.0
C      1  0.4604820000000  0.5404970000000  0.4436340000000 1.0
C      1  0.5399210000000  0.5399970000000  0.5564390000000 1.0
C      1  0.4605320000000  0.5403940000000  0.5564750000000 1.0
C      1  0.5398700000000  0.5401000000000  0.4435980000000 1.0
C      1  0.5569570000000  0.5577680000000  0.5146860000000 1.0
C      1  0.4436230000000  0.5583610000000  0.4854190000000 1.0
C      1  0.5569440000000  0.5577950000000  0.4853680000000 1.0
C      1  0.4436360000000  0.5583350000000  0.5147380000000 1.0
C      1  0.5374020000000  0.4487240000000  0.4691510000000 1.0
C      1  0.4620870000000  0.4490440000000  0.5307560000000 1.0
C      1  0.5374300000000  0.4486680000000  0.5307220000000 1.0
C      1  0.4620590000000  0.4491010000000  0.4691850000000 1.0
C      1  0.4850000000000  0.4720410000000  0.4856670000000 1.0
C      1  0.5147190000000  0.4718670000000  0.5142820000000 1.0
C      1  0.4850130000000  0.4720150000000  0.5142950000000 1.0
C      1  0.5147070000000  0.4718930000000  0.4856540000000 1.0
C      1  0.4174440000000  0.5120380000000  0.5141020000000 1.0
C      1  0.5826730000000  0.5112380000000  0.4859190000000 1.0
C      1  0.4174310000000  0.5120640000000  0.4859940000000 1.0
C      1  0.5826850000000  0.5112120000000  0.5140270000000 1.0
C      1  0.4202360000000  0.4888190000000  0.5297540000000 1.0
C      1  0.5796480000000  0.4880770000000  0.4702250000000 1.0
C      1  0.4202100000000  0.4888740000000  0.4702970000000 1.0
C      1  0.5796750000000  0.4880220000000  0.5296810000000 1.0
C      1  0.4387200000000  0.4447690000000  0.4847780000000 1.0
C      1  0.5607250000000  0.4441320000000  0.5151210000000 1.0
C      1  0.4387330000000  0.4447410000000  0.5151760000000 1.0
C      1  0.5607110000000  0.4441590000000  0.4847230000000 1.0
C      1  0.4839980000000  0.4954230000000  0.4672110000000 1.0
C      1  0.5159550000000  0.4952030000000  0.5327800000000 1.0
C      1  0.4840270000000  0.4953630000000  0.5327940000000 1.0
C      1  0.5159260000000  0.4952630000000  0.4671970000000 1.0
C      1  0.5595440000000  0.5289090000000  0.4844910000000 1.0
C      1  0.4407480000000  0.5294750000000  0.5155630000000 1.0
C      1  0.5595580000000  0.5288810000000  0.5155090000000 1.0
C      1  0.4407340000000  0.5295030000000  0.4845450000000 1.0
C      1  0.5150860000000  0.5444010000000  0.4840610000000 1.0
C      1  0.4853580000000  0.5445200000000  0.5160200000000 1.0
C      1  0.5151010000000  0.5443720000000  0.5160070000000 1.0
C      1  0.4853440000000  0.5445500000000  0.4840740000000 1.0
C      1  0.4497710000000  0.5177020000000  0.5603430000000 1.0
C      1  0.5504040000000  0.5173090000000  0.4396890000000 1.0
C      1  0.4497170000000  0.5178130000000  0.4397350000000 1.0
C      1  0.5504580000000  0.5171990000000  0.5602970000000 1.0
C      1  0.4420220000000  0.4921740000000  0.4502830000000 1.0
C      1  0.5578970000000  0.4915050000000  0.5497020000000 1.0
C      1  0.4420670000000  0.4920830000000  0.5497540000000 1.0
C      1  0.5578520000000  0.4915960000000  0.4502310000000 1.0
C      1  0.5144090000000  0.4410210000000  0.4843850000000 1.0
C      1  0.4850020000000  0.4411400000000  0.5155070000000 1.0
C      1  0.5144230000000  0.4409930000000  0.5154940000000 1.0
C      1  0.4849880000000  0.4411690000000  0.4843990000000 1.0
C      1  0.4183110000000  0.4651740000000  0.5147810000000 1.0
C      1  0.5813370000000  0.4643860000000  0.4851550000000 1.0
C      1  0.4182980000000  0.4652010000000  0.4852290000000 1.0
C      1  0.5813500000000  0.4643590000000  0.5147070000000 1.0
END
