TITL C-66581-3145-5 0.108908126767891 125000 -404.566317560855 0 0 61 (C1) n - 1
REM
REM in /rds/project/t2_vol4/rds-t2-cs072/BORA/CARBON/from-Arr/AIRSS/Generating-Clusters/GAP-ML-2020/Higher-Symm/SD-CG/HFTN-CG
REM
REM
REM
REM
REM
REM ./C.cell (b20cbc046b6831c77cfcea5457e17084)
REM AIRSS Version 0.9.1 bugfix July 2018 build 013d7b7c2542+ Fri, 06 Jul 2018 19:26:36 +0100
REM compiler GCC version 9.3.0
REM options -cpp -mtune=generic -march=x86-64 -g -O0
REM seed -2054151332 643671550 -1660183853 -1533100018 -334727822 516920608 -252619658 1186074647 -1442496484 -2070892569 1917947528 -2029472736 343557662 -1465527068 1108491721 -889706619 -1036802017 -1236183737 -444815443 -1294691686 -613393184 122075855 1717488457 1107628138 -1651027397 -1535044589 -1363173813 -1294955960 -200929808 283180836 2025563806 161450484 353656373
REM
CELL 1.54180   50.00000   50.00000   50.00000   90.00000   90.00000   90.00000
LATT -1
SFAC C  
C      1  0.5408900000000  0.5370370000000  0.5540560000000 1.0
C      1  0.5417040000000  0.4346780000000  0.5036460000000 1.0
C      1  0.5429840000000  0.5322060000000  0.4400590000000 1.0
C      1  0.5421710000000  0.4892100000000  0.4549670000000 1.0
C      1  0.5488070000000  0.5493980000000  0.5094960000000 1.0
C      1  0.5481730000000  0.4661190000000  0.5374220000000 1.0
C      1  0.4844960000000  0.4694970000000  0.5266670000000 1.0
C      1  0.4841920000000  0.4927550000000  0.4598090000000 1.0
C      1  0.4899030000000  0.5420200000000  0.5140750000000 1.0
C      1  0.4576140000000  0.4350860000000  0.5010100000000 1.0
C      1  0.4583010000000  0.5316730000000  0.4402420000000 1.0
C      1  0.4583700000000  0.5338340000000  0.5543610000000 1.0
C      1  0.5669800000000  0.4743910000000  0.4919530000000 1.0
C      1  0.5691880000000  0.5215520000000  0.4792840000000 1.0
C      1  0.5681130000000  0.5076930000000  0.5269390000000 1.0
C      1  0.4430260000000  0.5162160000000  0.4615650000000 1.0
C      1  0.4472360000000  0.5225240000000  0.5291080000000 1.0
C      1  0.4435230000000  0.4617980000000  0.5041880000000 1.0
C      1  0.4539400000000  0.4907820000000  0.4650910000000 1.0
C      1  0.4625040000000  0.5285540000000  0.5052080000000 1.0
C      1  0.4546730000000  0.4758030000000  0.5251000000000 1.0
C      1  0.5296320000000  0.4862370000000  0.5480130000000 1.0
C      1  0.5273420000000  0.4650930000000  0.4631570000000 1.0
C      1  0.5331160000000  0.5511680000000  0.4856720000000 1.0
C      1  0.4753250000000  0.4617960000000  0.4300440000000 1.0
C      1  0.4745290000000  0.5781190000000  0.5014190000000 1.0
C      1  0.4756610000000  0.4580330000000  0.5672340000000 1.0
C      1  0.4774600000000  0.4899390000000  0.4297510000000 1.0
C      1  0.4779460000000  0.5667410000000  0.5266850000000 1.0
C      1  0.4767620000000  0.4446140000000  0.5425600000000 1.0
C      1  0.5435280000000  0.5557710000000  0.5361630000000 1.0
C      1  0.5455900000000  0.4395960000000  0.5290600000000 1.0
C      1  0.5440440000000  0.5072430000000  0.4327610000000 1.0
C      1  0.4824050000000  0.5655500000000  0.4768870000000 1.0
C      1  0.4795830000000  0.4865900000000  0.5683450000000 1.0
C      1  0.4789630000000  0.4479850000000  0.4546710000000 1.0
C      1  0.4628640000000  0.5525230000000  0.4606910000000 1.0
C      1  0.4587150000000  0.5060120000000  0.5645690000000 1.0
C      1  0.4579440000000  0.4408250000000  0.4723410000000 1.0
C      1  0.5432810000000  0.4567020000000  0.4861860000000 1.0
C      1  0.5499850000000  0.5397720000000  0.4655490000000 1.0
C      1  0.5460980000000  0.5106670000000  0.5465280000000 1.0
C      1  0.4692500000000  0.5154550000000  0.4214210000000 1.0
C      1  0.4673630000000  0.5592080000000  0.5515390000000 1.0
C      1  0.4682270000000  0.4253250000000  0.5241280000000 1.0
C      1  0.5677170000000  0.4809470000000  0.5197110000000 1.0
C      1  0.5662340000000  0.4941710000000  0.4726500000000 1.0
C      1  0.5680930000000  0.5276620000000  0.5064110000000 1.0
C      1  0.4954310000000  0.4750090000000  0.4999020000000 1.0
C      1  0.4983890000000  0.5144130000000  0.4765430000000 1.0
C      1  0.4979150000000  0.5136220000000  0.5254300000000 1.0
C      1  0.4968420000000  0.4674020000000  0.4697530000000 1.0
C      1  0.5029160000000  0.5449830000000  0.4861980000000 1.0
C      1  0.4979570000000  0.4889390000000  0.5447980000000 1.0
C      1  0.4447020000000  0.4968500000000  0.5398140000000 1.0
C      1  0.4445220000000  0.4675660000000  0.4768740000000 1.0
C      1  0.4487220000000  0.5357250000000  0.4807410000000 1.0
C      1  0.5251430000000  0.5049870000000  0.5222220000000 1.0
C      1  0.5238100000000  0.4841230000000  0.5008940000000 1.0
C      1  0.5256290000000  0.5023520000000  0.4787210000000 1.0
C      1  0.4843750000000  0.5036810000000  0.5004790000000 1.0
END
