TITL C-66580-2037-8 -110.242403924712 125000 -671.254422106962 0 0 98 (C1) n - 1
REM
REM in /rds/project/t2_vol4/rds-t2-cs072/BORA/CARBON/from-Arr/AIRSS/Generating-Clusters/GAP-ML-2020/Higher-Symm/SD-CG/HFTN-CG
REM
REM
REM
REM
REM
REM ./C.cell (b20cbc046b6831c77cfcea5457e17084)
REM AIRSS Version 0.9.1 bugfix July 2018 build 013d7b7c2542+ Fri, 06 Jul 2018 19:26:36 +0100
REM compiler GCC version 9.3.0
REM options -cpp -mtune=generic -march=x86-64 -g -O0
REM seed -1760033153 -1449848660 2056794103 -817647077 1668817187 -895785364 2108030424 964721932 -686265437 -1651888869 -1733400303 1073160494 1002187981 131895688 892660517 952024227 1192215589 9712196 758184798 890516141 -503881737 -48577020 -1633365013 -58534024 2087306820 1880960975 -1478464937 -1532794596 507636807 145081014 -987851033 1378245196 -365830917
REM
CELL 1.54180   50.00000   50.00000   50.00000   90.00000   90.00000   90.00000
LATT -1
SFAC C  
C      1  0.4632240000000  0.4795830000000  0.4935620000000 1.0
C      1  0.5022720000000  0.4585800000000  0.4952910000000 1.0
C      1  0.5288650000000  0.4669960000000  0.4984330000000 1.0
C      1  0.5515960000000  0.5053790000000  0.5041010000000 1.0
C      1  0.5366330000000  0.5316980000000  0.5025030000000 1.0
C      1  0.4916030000000  0.5350850000000  0.4928140000000 1.0
C      1  0.4568880000000  0.5069320000000  0.4940460000000 1.0
C      1  0.4096080000000  0.4952470000000  0.4651270000000 1.0
C      1  0.4487390000000  0.4335380000000  0.4633520000000 1.0
C      1  0.5217760000000  0.4185560000000  0.4660660000000 1.0
C      1  0.5673480000000  0.4730070000000  0.4692310000000 1.0
C      1  0.5762470000000  0.5445020000000  0.4710150000000 1.0
C      1  0.5177500000000  0.5843160000000  0.4673260000000 1.0
C      1  0.4542470000000  0.5515070000000  0.4658180000000 1.0
C      1  0.5544030000000  0.5075280000000  0.5528420000000 1.0
C      1  0.5264330000000  0.5471650000000  0.5512300000000 1.0
C      1  0.4790710000000  0.5485150000000  0.5465370000000 1.0
C      1  0.4467810000000  0.5151190000000  0.5465030000000 1.0
C      1  0.4532020000000  0.4682440000000  0.5473410000000 1.0
C      1  0.4950290000000  0.4437790000000  0.5486460000000 1.0
C      1  0.5396160000000  0.4607530000000  0.5498680000000 1.0
C      1  0.5236720000000  0.5436970000000  0.4403420000000 1.0
C      1  0.4947140000000  0.5405000000000  0.4399640000000 1.0
C      1  0.4523400000000  0.5023300000000  0.4393080000000 1.0
C      1  0.4523030000000  0.4754750000000  0.4380530000000 1.0
C      1  0.5074500000000  0.4608610000000  0.4422690000000 1.0
C      1  0.5338610000000  0.4618430000000  0.4384390000000 1.0
C      1  0.5402650000000  0.5203920000000  0.4461180000000 1.0
C      1  0.5245700000000  0.4749450000000  0.5276490000000 1.0
C      1  0.5347050000000  0.5023930000000  0.5302110000000 1.0
C      1  0.5195570000000  0.5285890000000  0.5289230000000 1.0
C      1  0.4896230000000  0.5302290000000  0.5221120000000 1.0
C      1  0.4670280000000  0.5096300000000  0.5229370000000 1.0
C      1  0.4705610000000  0.4788680000000  0.5242720000000 1.0
C      1  0.4958940000000  0.4643980000000  0.5256600000000 1.0
C      1  0.5556920000000  0.4521390000000  0.4523830000000 1.0
C      1  0.5680830000000  0.5216980000000  0.4567070000000 1.0
C      1  0.5357630000000  0.5676900000000  0.4542650000000 1.0
C      1  0.4773190000000  0.5621460000000  0.4504880000000 1.0
C      1  0.4268330000000  0.5131400000000  0.4514360000000 1.0
C      1  0.4368460000000  0.4563650000000  0.4511340000000 1.0
C      1  0.5004770000000  0.4323720000000  0.4529390000000 1.0
C      1  0.5221970000000  0.4143530000000  0.5211930000000 1.0
C      1  0.5781710000000  0.4668320000000  0.5199700000000 1.0
C      1  0.5776500000000  0.5443400000000  0.5263870000000 1.0
C      1  0.5151940000000  0.5857280000000  0.5229330000000 1.0
C      1  0.4431130000000  0.5639110000000  0.5179250000000 1.0
C      1  0.4096570000000  0.4958790000000  0.5208590000000 1.0
C      1  0.4472630000000  0.4293530000000  0.5188680000000 1.0
C      1  0.4704840000000  0.4789610000000  0.5689320000000 1.0
C      1  0.4966020000000  0.4645940000000  0.5697570000000 1.0
C      1  0.5241250000000  0.4757410000000  0.5709290000000 1.0
C      1  0.5323050000000  0.5043940000000  0.5719490000000 1.0
C      1  0.5145470000000  0.5287360000000  0.5706980000000 1.0
C      1  0.4851470000000  0.5300450000000  0.5687210000000 1.0
C      1  0.4655140000000  0.5081780000000  0.5684450000000 1.0
C      1  0.4345120000000  0.4501580000000  0.5348300000000 1.0
C      1  0.4970790000000  0.4185170000000  0.5353910000000 1.0
C      1  0.5621440000000  0.4484090000000  0.5360100000000 1.0
C      1  0.5772910000000  0.5188170000000  0.5390220000000 1.0
C      1  0.5349650000000  0.5722690000000  0.5392540000000 1.0
C      1  0.4659390000000  0.5705320000000  0.5343390000000 1.0
C      1  0.4208930000000  0.5192070000000  0.5341430000000 1.0
C      1  0.5595540000000  0.5675920000000  0.4698840000000 1.0
C      1  0.4894610000000  0.5830860000000  0.4647090000000 1.0
C      1  0.4276640000000  0.5388620000000  0.4619860000000 1.0
C      1  0.4146620000000  0.4671630000000  0.4653960000000 1.0
C      1  0.4755190000000  0.4234030000000  0.4632170000000 1.0
C      1  0.5486090000000  0.4283770000000  0.4660550000000 1.0
C      1  0.5815560000000  0.4985020000000  0.4649070000000 1.0
C      1  0.5168720000000  0.5282540000000  0.4830440000000 1.0
C      1  0.4700960000000  0.5255660000000  0.4757570000000 1.0
C      1  0.4799920000000  0.5136460000000  0.4473060000000 1.0
C      1  0.4866020000000  0.4747720000000  0.4786340000000 1.0
C      1  0.4984010000000  0.4888850000000  0.4548550000000 1.0
C      1  0.5420420000000  0.4866510000000  0.4824090000000 1.0
C      1  0.5240760000000  0.5031120000000  0.4639420000000 1.0
C      1  0.5657510000000  0.5735530000000  0.4979150000000 1.0
C      1  0.4865730000000  0.5918610000000  0.4926210000000 1.0
C      1  0.4190600000000  0.5466330000000  0.4885990000000 1.0
C      1  0.4070520000000  0.4645610000000  0.4932540000000 1.0
C      1  0.4718760000000  0.4121210000000  0.4901210000000 1.0
C      1  0.5528970000000  0.4199270000000  0.4935530000000 1.0
C      1  0.5939150000000  0.4940730000000  0.4908730000000 1.0
C      1  0.4731200000000  0.4163980000000  0.5186830000000 1.0
C      1  0.5493650000000  0.4261850000000  0.5215550000000 1.0
C      1  0.5795230000000  0.4969120000000  0.5168360000000 1.0
C      1  0.5600660000000  0.5680690000000  0.5257220000000 1.0
C      1  0.4861530000000  0.5855800000000  0.5205420000000 1.0
C      1  0.4227430000000  0.5430900000000  0.5172980000000 1.0
C      1  0.4154060000000  0.4668320000000  0.5206680000000 1.0
C      1  0.4441390000000  0.4246940000000  0.4904100000000 1.0
C      1  0.5247250000000  0.4079390000000  0.4931780000000 1.0
C      1  0.5852820000000  0.4660790000000  0.4922890000000 1.0
C      1  0.5834920000000  0.5490540000000  0.4984530000000 1.0
C      1  0.5169550000000  0.5927940000000  0.4949050000000 1.0
C      1  0.4417560000000  0.5663200000000  0.4893820000000 1.0
C      1  0.4013650000000  0.4947750000000  0.4932240000000 1.0
END
