TITL C-66560-2204-1 0.06100365202774 125000 -179.605137085945 0 0 28 (C3) n - 1
REM
REM in /rds/project/t2_vol4/rds-t2-cs072/BORA/CARBON/from-Arr/AIRSS/Generating-Clusters/GAP-ML-2020/Higher-Symm/SD-CG/HFTN-CG
REM
REM
REM
REM
REM
REM ./C.cell (b20cbc046b6831c77cfcea5457e17084)
REM AIRSS Version 0.9.1 bugfix July 2018 build 013d7b7c2542+ Fri, 06 Jul 2018 19:26:36 +0100
REM compiler GCC version 9.3.0
REM options -cpp -mtune=generic -march=x86-64 -g -O0
REM seed -655634230 1115102584 1410868950 1964943631 1816301418 -2014968110 -2144227038 1752030688 -2070014681 1932522432 975621993 622994000 -1653588443 2064386622 1940534328 313069639 -1855315379 467197630 -1321708191 957433109 -573108445 -172206938 -248365328 1180606845 -193508527 1214767139 -51797620 -1353608623 1163857690 -1919919081 -1926147809 732513028 1506136328
REM
CELL 1.54180   50.00000   50.00000   50.00000   90.00000   90.00000   90.00000
LATT -1
SFAC C  
C      1  0.5281820000000  0.5377460000000  0.4787450000000 1.0
C      1  0.5281820000000  0.5006100000000  0.5448490000000 1.0
C      1  0.5281810000000  0.4619300000000  0.4796370000000 1.0
C      1  0.4550710000000  0.4891070000000  0.5130880000000 1.0
C      1  0.4550710000000  0.4951900000000  0.4855540000000 1.0
C      1  0.4550710000000  0.5159930000000  0.5045900000000 1.0
C      1  0.5073130000000  0.4455910000000  0.4696280000000 1.0
C      1  0.5073150000000  0.5545840000000  0.4695990000000 1.0
C      1  0.5073140000000  0.5001120000000  0.5640040000000 1.0
C      1  0.5203640000000  0.4718640000000  0.5087090000000 1.0
C      1  0.5203650000000  0.5076010000000  0.4728120000000 1.0
C      1  0.5203650000000  0.5208210000000  0.5217100000000 1.0
C      1  0.5359710000000  0.4779390000000  0.5327150000000 1.0
C      1  0.5359710000000  0.4837740000000  0.4660700000000 1.0
C      1  0.5359720000000  0.5385720000000  0.5044450000000 1.0
C      1  0.4762250000000  0.4766350000000  0.5276320000000 1.0
C      1  0.4762250000000  0.4888290000000  0.4674820000000 1.0
C      1  0.4762260000000  0.5348240000000  0.5081170000000 1.0
C      1  0.4937460000000  0.5295650000000  0.5295030000000 1.0
C      1  0.4937450000000  0.4607440000000  0.5123860000000 1.0
C      1  0.4937460000000  0.5099780000000  0.4613430000000 1.0
C      1  0.4828850000000  0.4877310000000  0.5524150000000 1.0
C      1  0.4828840000000  0.4618190000000  0.4646990000000 1.0
C      1  0.4828860000000  0.5507390000000  0.4861170000000 1.0
C      1  0.4855490000000  0.4468960000000  0.4886490000000 1.0
C      1  0.4855510000000  0.5374590000000  0.4612190000000 1.0
C      1  0.4855510000000  0.5159330000000  0.5533640000000 1.0
C      1  0.5184240000000  0.5000950000000  0.5010770000000 1.0
END
