TITL C-66579-2013-9 -0.0268072172235842 125000 -304.298560359993 0 0 43 (C1) n - 1
REM
REM in /rds/project/t2_vol4/rds-t2-cs072/BORA/CARBON/from-Arr/AIRSS/Generating-Clusters/GAP-ML-2020/Higher-Symm/SD-CG/HFTN-CG
REM
REM
REM
REM
REM
REM ./C.cell (b20cbc046b6831c77cfcea5457e17084)
REM AIRSS Version 0.9.1 bugfix July 2018 build 013d7b7c2542+ Fri, 06 Jul 2018 19:26:36 +0100
REM compiler GCC version 9.3.0
REM options -cpp -mtune=generic -march=x86-64 -g -O0
REM seed -530286572 -1768964684 1399923098 -1702854026 -555538603 839917259 1891344638 -1268742790 1155988423 -1541074008 1521824984 -434805177 -976963097 197246432 1929569348 675523938 1099408131 -247088756 612959724 -449408365 -647158876 -1533230629 -1836645383 686709339 1837680037 -909422546 -120530835 1389295322 -566592829 -535218446 -1637910856 1277433929 344869637
REM
CELL 1.54180   50.00000   50.00000   50.00000   90.00000   90.00000   90.00000
LATT -1
SFAC C  
C      1  0.4480490000000  0.5141910000000  0.5120120000000 1.0
C      1  0.4481400000000  0.5132680000000  0.4623640000000 1.0
C      1  0.4931880000000  0.5213830000000  0.4425110000000 1.0
C      1  0.5375610000000  0.5152190000000  0.4645210000000 1.0
C      1  0.5576110000000  0.5104130000000  0.5101730000000 1.0
C      1  0.5261280000000  0.5169220000000  0.5486020000000 1.0
C      1  0.4773340000000  0.5062440000000  0.5522240000000 1.0
C      1  0.5182470000000  0.4608580000000  0.4692910000000 1.0
C      1  0.5375140000000  0.4574620000000  0.5140370000000 1.0
C      1  0.5172250000000  0.4387530000000  0.5207110000000 1.0
C      1  0.5010070000000  0.4501360000000  0.5430750000000 1.0
C      1  0.4775060000000  0.4487060000000  0.5266110000000 1.0
C      1  0.4709400000000  0.4612270000000  0.4709700000000 1.0
C      1  0.4943200000000  0.4465380000000  0.4796590000000 1.0
C      1  0.5213830000000  0.5439610000000  0.5412200000000 1.0
C      1  0.4751340000000  0.5346810000000  0.5544750000000 1.0
C      1  0.4524510000000  0.5424050000000  0.5121370000000 1.0
C      1  0.4461450000000  0.5415460000000  0.4639540000000 1.0
C      1  0.4928130000000  0.5486140000000  0.4505850000000 1.0
C      1  0.5363610000000  0.5443570000000  0.4683610000000 1.0
C      1  0.5591650000000  0.5385320000000  0.5104520000000 1.0
C      1  0.5179200000000  0.5592460000000  0.4546690000000 1.0
C      1  0.5448700000000  0.5546220000000  0.4933190000000 1.0
C      1  0.5390830000000  0.5543730000000  0.5213590000000 1.0
C      1  0.4943330000000  0.5521680000000  0.5446620000000 1.0
C      1  0.4681730000000  0.5514550000000  0.5337860000000 1.0
C      1  0.4525590000000  0.5553230000000  0.4868380000000 1.0
C      1  0.4683090000000  0.5583120000000  0.4626820000000 1.0
C      1  0.5390140000000  0.4698300000000  0.4873250000000 1.0
C      1  0.5392660000000  0.4745140000000  0.5366950000000 1.0
C      1  0.5146830000000  0.4724360000000  0.5521180000000 1.0
C      1  0.4614810000000  0.4702880000000  0.5189990000000 1.0
C      1  0.4540070000000  0.4730380000000  0.4909070000000 1.0
C      1  0.4795660000000  0.4779390000000  0.4496770000000 1.0
C      1  0.5084990000000  0.4784650000000  0.4497760000000 1.0
C      1  0.5480320000000  0.4976250000000  0.4856140000000 1.0
C      1  0.5463250000000  0.5014190000000  0.5346150000000 1.0
C      1  0.5046320000000  0.4987340000000  0.5564780000000 1.0
C      1  0.4601460000000  0.4962340000000  0.5315590000000 1.0
C      1  0.4449370000000  0.5000090000000  0.4871290000000 1.0
C      1  0.4700950000000  0.5043380000000  0.4464450000000 1.0
C      1  0.5170750000000  0.5054510000000  0.4472940000000 1.0
C      1  0.4940230000000  0.4356950000000  0.5048770000000 1.0
END
