TITL C-66559-1995-10 -15.9060887108875 125000 -254.182345087132 0 0 39 (C1) n - 1
REM
REM in /rds/project/t2_vol4/rds-t2-cs072/BORA/CARBON/from-Arr/AIRSS/Generating-Clusters/GAP-ML-2020/Higher-Symm/SD-CG/HFTN-CG
REM
REM
REM
REM
REM
REM ./C.cell (b20cbc046b6831c77cfcea5457e17084)
REM AIRSS Version 0.9.1 bugfix July 2018 build 013d7b7c2542+ Fri, 06 Jul 2018 19:26:36 +0100
REM compiler GCC version 9.3.0
REM options -cpp -mtune=generic -march=x86-64 -g -O0
REM seed 1603248030 1474558578 675846073 676038486 -230886062 717467850 700877235 -796319304 -591015473 -844718907 -1655609692 866313885 -1244091949 173675530 -1914272979 -1364994449 -796838977 -626756131 -550931321 -1127675628 -1805206211 -401898173 2141531903 -1494593923 661303210 -1404073946 573759239 1158679979 1029663117 1639420620 365109340 -1838366142 1131888490
REM
CELL 1.54180   50.00000   50.00000   50.00000   90.00000   90.00000   90.00000
LATT -1
SFAC C  
C      1  0.4844660000000  0.5321580000000  0.4487090000000 1.0
C      1  0.5144900000000  0.5319280000000  0.4489980000000 1.0
C      1  0.4842620000000  0.4844280000000  0.4429150000000 1.0
C      1  0.5142810000000  0.4840440000000  0.4437570000000 1.0
C      1  0.4722550000000  0.4631420000000  0.4853740000000 1.0
C      1  0.5281300000000  0.4626030000000  0.4864960000000 1.0
C      1  0.5338580000000  0.5092110000000  0.5412570000000 1.0
C      1  0.4644100000000  0.5087260000000  0.5408260000000 1.0
C      1  0.5153090000000  0.5310870000000  0.4982340000000 1.0
C      1  0.4831920000000  0.5311330000000  0.4980160000000 1.0
C      1  0.5589010000000  0.5108500000000  0.5229400000000 1.0
C      1  0.4396020000000  0.5103080000000  0.5225000000000 1.0
C      1  0.4701870000000  0.5279560000000  0.4724420000000 1.0
C      1  0.5285750000000  0.5279090000000  0.4728090000000 1.0
C      1  0.5602970000000  0.5059070000000  0.4982520000000 1.0
C      1  0.4384260000000  0.5055450000000  0.4977570000000 1.0
C      1  0.5146850000000  0.5099300000000  0.4308250000000 1.0
C      1  0.4845350000000  0.5102700000000  0.4303360000000 1.0
C      1  0.5461570000000  0.5047490000000  0.4741750000000 1.0
C      1  0.4525010000000  0.5048450000000  0.4736820000000 1.0
C      1  0.4847550000000  0.4762900000000  0.5096190000000 1.0
C      1  0.5146430000000  0.4761810000000  0.5100890000000 1.0
C      1  0.4839410000000  0.5059220000000  0.5161160000000 1.0
C      1  0.5147640000000  0.5058670000000  0.5163490000000 1.0
C      1  0.4656880000000  0.4804530000000  0.4639780000000 1.0
C      1  0.5329550000000  0.4800700000000  0.4647700000000 1.0
C      1  0.4666540000000  0.4386770000000  0.4966190000000 1.0
C      1  0.5349240000000  0.4386400000000  0.4981800000000 1.0
C      1  0.4711410000000  0.4625960000000  0.5348620000000 1.0
C      1  0.5280070000000  0.4629210000000  0.5358110000000 1.0
C      1  0.4829890000000  0.5316250000000  0.5455470000000 1.0
C      1  0.5149740000000  0.5318470000000  0.5457460000000 1.0
C      1  0.5359910000000  0.4824290000000  0.5525710000000 1.0
C      1  0.4625140000000  0.4817160000000  0.5517440000000 1.0
C      1  0.5346710000000  0.4382160000000  0.5242440000000 1.0
C      1  0.4657450000000  0.4378130000000  0.5227250000000 1.0
C      1  0.4795960000000  0.5502530000000  0.5218980000000 1.0
C      1  0.5184110000000  0.5503240000000  0.5221140000000 1.0
C      1  0.4989680000000  0.5693560000000  0.5239950000000 1.0
END
