TITL C-66561-2011-8 73.0870729965293 125000 -349.498019196333 0 0 52 (C1) n - 1
REM
REM in /rds/project/t2_vol4/rds-t2-cs072/BORA/CARBON/from-Arr/AIRSS/Generating-Clusters/GAP-ML-2020/Higher-Symm/SD-CG/HFTN-CG
REM
REM
REM
REM
REM
REM ./C.cell (b20cbc046b6831c77cfcea5457e17084)
REM AIRSS Version 0.9.1 bugfix July 2018 build 013d7b7c2542+ Fri, 06 Jul 2018 19:26:36 +0100
REM compiler GCC version 9.3.0
REM options -cpp -mtune=generic -march=x86-64 -g -O0
REM seed 198429769 2125409446 -512203192 -1998722053 1503251501 135608446 214798882 522704905 1823490924 250354256 1411319670 -668334165 1509956103 -1992804951 -2056451896 -334143342 205667109 -878343988 -888650053 779825449 -1478340138 1786036154 -188669421 2129378829 1479732665 166217896 1285390330 -1821955841 1573497262 -831721858 839278806 1679162536 107587631
REM
CELL 1.54180   50.00000   50.00000   50.00000   90.00000   90.00000   90.00000
LATT -1
SFAC C  
C      1  0.4781210000000  0.4515030000000  0.4843860000000 1.0
C      1  0.5017260000000  0.5166460000000  0.4518560000000 1.0
C      1  0.5065760000000  0.4860350000000  0.5127170000000 1.0
C      1  0.4799760000000  0.5612040000000  0.5224970000000 1.0
C      1  0.5283570000000  0.5173470000000  0.4917500000000 1.0
C      1  0.4764450000000  0.5155690000000  0.4376310000000 1.0
C      1  0.5140030000000  0.5323120000000  0.5434110000000 1.0
C      1  0.5367670000000  0.4926040000000  0.5490020000000 1.0
C      1  0.4784530000000  0.4807770000000  0.4765340000000 1.0
C      1  0.4581920000000  0.5342170000000  0.5288240000000 1.0
C      1  0.4598430000000  0.4493540000000  0.5065550000000 1.0
C      1  0.4995100000000  0.4645120000000  0.5566270000000 1.0
C      1  0.4612940000000  0.5279510000000  0.4779260000000 1.0
C      1  0.5391370000000  0.5192350000000  0.5387900000000 1.0
C      1  0.4955260000000  0.5145610000000  0.5572060000000 1.0
C      1  0.5042370000000  0.4878660000000  0.4634270000000 1.0
C      1  0.5393920000000  0.4491600000000  0.4911210000000 1.0
C      1  0.4988180000000  0.5643500000000  0.4672380000000 1.0
C      1  0.5178250000000  0.5753650000000  0.4543420000000 1.0
C      1  0.5595560000000  0.4881970000000  0.5091220000000 1.0
C      1  0.5033920000000  0.5463790000000  0.5207580000000 1.0
C      1  0.4510040000000  0.4859020000000  0.4645460000000 1.0
C      1  0.4303450000000  0.4740490000000  0.4770900000000 1.0
C      1  0.5027260000000  0.5281000000000  0.4979170000000 1.0
C      1  0.5512730000000  0.5175360000000  0.5115770000000 1.0
C      1  0.5478890000000  0.4740630000000  0.5301800000000 1.0
C      1  0.4981270000000  0.4354440000000  0.4776720000000 1.0
C      1  0.4841730000000  0.5011680000000  0.5011150000000 1.0
C      1  0.4765880000000  0.4459350000000  0.5286450000000 1.0
C      1  0.4898220000000  0.5374620000000  0.4738610000000 1.0
C      1  0.4504480000000  0.4929290000000  0.5455040000000 1.0
C      1  0.5295860000000  0.5263600000000  0.4456400000000 1.0
C      1  0.5327570000000  0.4512840000000  0.5197600000000 1.0
C      1  0.5223610000000  0.4887990000000  0.4877630000000 1.0
C      1  0.4710230000000  0.4585750000000  0.5542340000000 1.0
C      1  0.4553720000000  0.5124540000000  0.4548380000000 1.0
C      1  0.5477900000000  0.5060660000000  0.4450440000000 1.0
C      1  0.5222590000000  0.4671720000000  0.4504120000000 1.0
C      1  0.5055450000000  0.4556990000000  0.5287150000000 1.0
C      1  0.4547910000000  0.5627420000000  0.5297790000000 1.0
C      1  0.5508110000000  0.4747100000000  0.4841440000000 1.0
C      1  0.5481580000000  0.4807600000000  0.4537790000000 1.0
C      1  0.4482580000000  0.4709100000000  0.5629540000000 1.0
C      1  0.4557600000000  0.5166490000000  0.5056540000000 1.0
C      1  0.4675920000000  0.5161130000000  0.5500920000000 1.0
C      1  0.5365160000000  0.5537860000000  0.4561020000000 1.0
C      1  0.5217820000000  0.4443540000000  0.4689910000000 1.0
C      1  0.4385340000000  0.4692440000000  0.5037370000000 1.0
C      1  0.5615760000000  0.5391600000000  0.4950640000000 1.0
C      1  0.4416420000000  0.4934740000000  0.5183240000000 1.0
C      1  0.5581650000000  0.5542070000000  0.4745120000000 1.0
C      1  0.5101780000000  0.4897490000000  0.5606360000000 1.0
END
