TITL C-66575-1968-3 -198.818528048452 125000 -49.1117721382519 0 0 8 (Cs) n - 1
REM
REM in /rds/project/t2_vol4/rds-t2-cs072/BORA/CARBON/from-Arr/AIRSS/Generating-Clusters/GAP-ML-2020/Higher-Symm/SD-CG/HFTN-CG
REM
REM
REM
REM
REM
REM ./C.cell (b20cbc046b6831c77cfcea5457e17084)
REM AIRSS Version 0.9.1 bugfix July 2018 build 013d7b7c2542+ Fri, 06 Jul 2018 19:26:36 +0100
REM compiler GCC version 9.3.0
REM options -cpp -mtune=generic -march=x86-64 -g -O0
REM seed -1991472544 708373628 2099244564 -365341072 127228155 -897512312 1908945429 756741789 -1452667406 1193020470 -1614538472 -599729685 -654691173 553657791 -219259648 1015398184 -161874096 62512958 -921405547 -1132316671 -727755364 186490229 -1101794170 229642367 1825578567 615760847 1811224081 35893966 199288672 151582724 665591198 466307971 -759415107
REM
CELL 1.54180   50.00000   50.00000   50.00000   90.00000   90.00000   90.00000
LATT -1
SFAC C  
C      1  0.4964140000000  0.5285510000000  0.5190950000000 1.0
C      1  0.5177660000000  0.5284210000000  0.5048970000000 1.0
C      1  0.5230910000000  0.4829020000000  0.5052220000000 1.0
C      1  0.5088080000000  0.4664080000000  0.5195860000000 1.0
C      1  0.4844730000000  0.4753390000000  0.5228120000000 1.0
C      1  0.4672180000000  0.4939900000000  0.5214840000000 1.0
C      1  0.4731480000000  0.5196820000000  0.5252220000000 1.0
C      1  0.5267000000000  0.5056400000000  0.4943890000000 1.0
END
