TITL C-66562-1966-1 -584.454982922287 125000 -1230.76201824601 0 0 171 (C2) n - 1
REM
REM in /rds/project/t2_vol4/rds-t2-cs072/BORA/CARBON/from-Arr/AIRSS/Generating-Clusters/GAP-ML-2020/Higher-Symm/SD-CG/HFTN-CG
REM
REM
REM
REM
REM
REM ./C.cell (b20cbc046b6831c77cfcea5457e17084)
REM AIRSS Version 0.9.1 bugfix July 2018 build 013d7b7c2542+ Fri, 06 Jul 2018 19:26:36 +0100
REM compiler GCC version 9.3.0
REM options -cpp -mtune=generic -march=x86-64 -g -O0
REM seed -546069776 -214321428 -1406767258 54433797 323044966 578544995 -606833205 1351650021 -1903948995 1484730445 -1270973265 -897232045 -2009910105 1954548450 1869564168 -2083279949 2027498153 580050469 -257796347 1635826683 -1733522067 -185511600 478826071 982710728 597462999 320708812 1227215543 838921909 -577317006 1384857235 1996381771 -2100757403 -629957723
REM
CELL 1.54180   50.00000   50.00000   50.00000   90.00000   90.00000   90.00000
LATT -1
SFAC C  
C      1  0.4993870000000  0.4565840000000  0.5354830000000 1.0
C      1  0.5011780000000  0.5436950000000  0.5354860000000 1.0
C      1  0.4957210000000  0.4485570000000  0.4650180000000 1.0
C      1  0.5048330000000  0.5517270000000  0.4650200000000 1.0
C      1  0.5239120000000  0.4747790000000  0.6018960000000 1.0
C      1  0.4766620000000  0.5254950000000  0.6019010000000 1.0
C      1  0.4771050000000  0.4746690000000  0.4007320000000 1.0
C      1  0.5234390000000  0.5256210000000  0.4007300000000 1.0
C      1  0.4809050000000  0.5967250000000  0.5329130000000 1.0
C      1  0.5196590000000  0.4035540000000  0.5329030000000 1.0
C      1  0.5276850000000  0.5990270000000  0.4616090000000 1.0
C      1  0.4728680000000  0.4012590000000  0.4616050000000 1.0
C      1  0.4889140000000  0.5488780000000  0.4890520000000 1.0
C      1  0.5116440000000  0.4514050000000  0.4890470000000 1.0
C      1  0.5108520000000  0.5494610000000  0.5083600000000 1.0
C      1  0.4897090000000  0.4508200000000  0.5083580000000 1.0
C      1  0.4424990000000  0.4365250000000  0.5217940000000 1.0
C      1  0.5580640000000  0.5637550000000  0.5217910000000 1.0
C      1  0.5595970000000  0.4373580000000  0.4790380000000 1.0
C      1  0.4409590000000  0.5629260000000  0.4790520000000 1.0
C      1  0.5366470000000  0.5699080000000  0.5008080000000 1.0
C      1  0.4639120000000  0.4303740000000  0.5008080000000 1.0
C      1  0.4625310000000  0.5693730000000  0.4981870000000 1.0
C      1  0.5380280000000  0.4309090000000  0.4981760000000 1.0
C      1  0.5212340000000  0.5449060000000  0.6103540000000 1.0
C      1  0.4793420000000  0.4553670000000  0.6103540000000 1.0
C      1  0.4789410000000  0.5447150000000  0.3914980000000 1.0
C      1  0.5216020000000  0.4555760000000  0.3914910000000 1.0
C      1  0.4106940000000  0.4713720000000  0.4383320000000 1.0
C      1  0.5898560000000  0.5289150000000  0.4383200000000 1.0
C      1  0.5888200000000  0.4713570000000  0.5633480000000 1.0
C      1  0.4117480000000  0.5289210000000  0.5633640000000 1.0
C      1  0.4486130000000  0.5526980000000  0.4530620000000 1.0
C      1  0.5519390000000  0.4475870000000  0.4530500000000 1.0
C      1  0.5499790000000  0.5529670000000  0.5478580000000 1.0
C      1  0.4505870000000  0.4473120000000  0.5478610000000 1.0
C      1  0.5532490000000  0.4823360000000  0.5997670000000 1.0
C      1  0.4473250000000  0.5179390000000  0.5997770000000 1.0
C      1  0.4474160000000  0.4821180000000  0.4027510000000 1.0
C      1  0.5531290000000  0.5181720000000  0.4027440000000 1.0
C      1  0.5970600000000  0.5453910000000  0.4622170000000 1.0
C      1  0.4034930000000  0.4548940000000  0.4622280000000 1.0
C      1  0.4046280000000  0.5450120000000  0.5393380000000 1.0
C      1  0.5959370000000  0.4552680000000  0.5393200000000 1.0
C      1  0.4185780000000  0.4405390000000  0.4815660000000 1.0
C      1  0.5819780000000  0.5597440000000  0.4815580000000 1.0
C      1  0.5807180000000  0.4411110000000  0.5200910000000 1.0
C      1  0.4198450000000  0.5591690000000  0.5201070000000 1.0
C      1  0.4033480000000  0.5318030000000  0.4818970000000 1.0
C      1  0.5972090000000  0.4684810000000  0.4818800000000 1.0
C      1  0.5965710000000  0.5323940000000  0.5200240000000 1.0
C      1  0.4039910000000  0.4678870000000  0.5200360000000 1.0
C      1  0.5141100000000  0.5162680000000  0.4340370000000 1.0
C      1  0.4864390000000  0.4840190000000  0.4340380000000 1.0
C      1  0.4850490000000  0.5151750000000  0.5686700000000 1.0
C      1  0.5155200000000  0.4851020000000  0.5686660000000 1.0
C      1  0.5012310000000  0.4010040000000  0.4559990000000 1.0
C      1  0.4993210000000  0.5992820000000  0.4560070000000 1.0
C      1  0.4985500000000  0.3992240000000  0.5505590000000 1.0
C      1  0.5020160000000  0.6010540000000  0.5505660000000 1.0
C      1  0.5512610000000  0.4386180000000  0.5247100000000 1.0
C      1  0.4493020000000  0.5616620000000  0.5247220000000 1.0
C      1  0.4472210000000  0.4386450000000  0.4750350000000 1.0
C      1  0.5533340000000  0.5616390000000  0.4750320000000 1.0
C      1  0.4789040000000  0.4700660000000  0.4579360000000 1.0
C      1  0.5216490000000  0.5302190000000  0.4579350000000 1.0
C      1  0.5219180000000  0.4720340000000  0.5438390000000 1.0
C      1  0.4786470000000  0.5282450000000  0.5438450000000 1.0
C      1  0.3916480000000  0.4782710000000  0.4737960000000 1.0
C      1  0.6089070000000  0.5220140000000  0.4737810000000 1.0
C      1  0.6081110000000  0.4787290000000  0.5281240000000 1.0
C      1  0.3924520000000  0.5215510000000  0.5281410000000 1.0
C      1  0.4633100000000  0.5736510000000  0.5731340000000 1.0
C      1  0.5372600000000  0.4266260000000  0.5731230000000 1.0
C      1  0.5374490000000  0.5741080000000  0.4251460000000 1.0
C      1  0.4630990000000  0.4261800000000  0.4251460000000 1.0
C      1  0.4387660000000  0.4667420000000  0.5884900000000 1.0
C      1  0.5618060000000  0.5335330000000  0.5884830000000 1.0
C      1  0.5626280000000  0.4666460000000  0.4126170000000 1.0
C      1  0.4379180000000  0.5336430000000  0.4126290000000 1.0
C      1  0.5306750000000  0.4816360000000  0.3843490000000 1.0
C      1  0.4698660000000  0.5186550000000  0.3843550000000 1.0
C      1  0.4700600000000  0.4813120000000  0.6174120000000 1.0
C      1  0.5305170000000  0.5189610000000  0.6174090000000 1.0
C      1  0.5064780000000  0.4501590000000  0.6033950000000 1.0
C      1  0.4940970000000  0.5501150000000  0.6034000000000 1.0
C      1  0.4945970000000  0.4499040000000  0.3984000000000 1.0
C      1  0.5059470000000  0.5503860000000  0.3984030000000 1.0
C      1  0.5238720000000  0.4048420000000  0.5038240000000 1.0
C      1  0.4766880000000  0.5954390000000  0.5038350000000 1.0
C      1  0.4760720000000  0.4036370000000  0.4901810000000 1.0
C      1  0.5244860000000  0.5966460000000  0.4901850000000 1.0
C      1  0.4106940000000  0.4781320000000  0.5458770000000 1.0
C      1  0.5898720000000  0.5221470000000  0.5458650000000 1.0
C      1  0.5913060000000  0.4781470000000  0.4555990000000 1.0
C      1  0.4092460000000  0.5221390000000  0.4556150000000 1.0
C      1  0.5446300000000  0.4711940000000  0.5278910000000 1.0
C      1  0.4559330000000  0.5290860000000  0.5279000000000 1.0
C      1  0.4546930000000  0.4711180000000  0.4725500000000 1.0
C      1  0.5458620000000  0.5291660000000  0.4725450000000 1.0
C      1  0.5421730000000  0.4460550000000  0.4085170000000 1.0
C      1  0.4583720000000  0.5542350000000  0.4085280000000 1.0
C      1  0.4584870000000  0.4456830000000  0.5937340000000 1.0
C      1  0.5420860000000  0.5545920000000  0.5937320000000 1.0
C      1  0.4171850000000  0.5543900000000  0.4921410000000 1.0
C      1  0.5833730000000  0.4458930000000  0.4921240000000 1.0
C      1  0.5828390000000  0.5551580000000  0.5098030000000 1.0
C      1  0.4177210000000  0.4451230000000  0.5098110000000 1.0
C      1  0.5550490000000  0.4898980000000  0.3971890000000 1.0
C      1  0.4454940000000  0.5103920000000  0.3971980000000 1.0
C      1  0.4457690000000  0.4895900000000  0.6045140000000 1.0
C      1  0.5548060000000  0.5106840000000  0.6045060000000 1.0
C      1  0.5230510000000  0.4791050000000  0.4855690000000 1.0
C      1  0.4775060000000  0.5211780000000  0.4855740000000 1.0
C      1  0.4780840000000  0.4801330000000  0.5126480000000 1.0
C      1  0.5224780000000  0.5201480000000  0.5126460000000 1.0
C      1  0.5370040000000  0.5700560000000  0.5712300000000 1.0
C      1  0.4635650000000  0.4302210000000  0.5712300000000 1.0
C      1  0.4637000000000  0.5690720000000  0.4318910000000 1.0
C      1  0.5368490000000  0.4312150000000  0.4318800000000 1.0
C      1  0.4302530000000  0.5354520000000  0.5842540000000 1.0
C      1  0.5703190000000  0.4648240000000  0.5842410000000 1.0
C      1  0.5708230000000  0.5353400000000  0.4178490000000 1.0
C      1  0.4297240000000  0.4649480000000  0.4178570000000 1.0
C      1  0.5110440000000  0.4181210000000  0.4343010000000 1.0
C      1  0.4895050000000  0.5821660000000  0.4343090000000 1.0
C      1  0.4891760000000  0.4163810000000  0.5700520000000 1.0
C      1  0.5113930000000  0.5838950000000  0.5700570000000 1.0
C      1  0.4296050000000  0.4639200000000  0.5617610000000 1.0
C      1  0.5709630000000  0.5363570000000  0.5617530000000 1.0
C      1  0.5728600000000  0.4638400000000  0.4390310000000 1.0
C      1  0.4276900000000  0.5364470000000  0.4390440000000 1.0
C      1  0.5391630000000  0.4204190000000  0.5449520000000 1.0
C      1  0.4614030000000  0.5798600000000  0.5449640000000 1.0
C      1  0.4554560000000  0.4204650000000  0.4523300000000 1.0
C      1  0.5450960000000  0.5798210000000  0.4523290000000 1.0
C      1  0.5475560000000  0.5143650000000  0.4978500000000 1.0
C      1  0.4530030000000  0.4859170000000  0.4978570000000 1.0
C      1  0.4537880000000  0.5140880000000  0.5027760000000 1.0
C      1  0.5467710000000  0.4861940000000  0.5027680000000 1.0
C      1  0.4686720000000  0.5243220000000  0.4573550000000 1.0
C      1  0.5318800000000  0.4759630000000  0.4573480000000 1.0
C      1  0.5257890000000  0.5293020000000  0.5440350000000 1.0
C      1  0.4747770000000  0.4709770000000  0.5440360000000 1.0
C      1  0.4412390000000  0.4405080000000  0.4217680000000 1.0
C      1  0.5593080000000  0.5597800000000  0.4217630000000 1.0
C      1  0.5588020000000  0.4405360000000  0.5801790000000 1.0
C      1  0.4417690000000  0.5597400000000  0.5801920000000 1.0
C      1  0.5136080000000  0.5032840000000  0.3833810000000 1.0
C      1  0.4869340000000  0.4970070000000  0.3833830000000 1.0
C      1  0.4869300000000  0.5030850000000  0.6188570000000 1.0
C      1  0.5136470000000  0.4971880000000  0.6188550000000 1.0
C      1  0.4836100000000  0.5137760000000  0.4363900000000 1.0
C      1  0.5169390000000  0.4865110000000  0.4363870000000 1.0
C      1  0.5166330000000  0.5145380000000  0.5671960000000 1.0
C      1  0.4839360000000  0.4857390000000  0.5671970000000 1.0
C      1  0.4010200000000  0.4951700000000  0.4518530000000 1.0
C      1  0.5995320000000  0.5051160000000  0.4518390000000 1.0
C      1  0.5984760000000  0.4953240000000  0.5500590000000 1.0
C      1  0.4020900000000  0.5049540000000  0.5500740000000 1.0
C      1  0.4902900000000  0.4283430000000  0.4161690000000 1.0
C      1  0.5102560000000  0.5719460000000  0.4161730000000 1.0
C      1  0.5108940000000  0.4287630000000  0.5855670000000 1.0
C      1  0.4896780000000  0.5715120000000  0.5855740000000 1.0
C      1  0.3931780000000  0.5139610000000  0.5018500000000 1.0
C      1  0.6073820000000  0.4863210000000  0.5018330000000 1.0
C      1  0.6074180000000  0.5147360000000  0.5001890000000 1.0
C      1  0.3931410000000  0.4855460000000  0.5002040000000 1.0
C      1  0.5045610000000  0.3982030000000  0.4851600000000 1.0
C      1  0.4959960000000  0.6020800000000  0.4851680000000 1.0
C      1  0.5002800000000  0.5001410000000  0.4993340000000 1.0
END
