TITL C-66560-2204-5 108.651006165616 125000 -902.243227184877 0 0 130 (C5) n - 1
REM
REM in /rds/project/t2_vol4/rds-t2-cs072/BORA/CARBON/from-Arr/AIRSS/Generating-Clusters/GAP-ML-2020/Higher-Symm/SD-CG/HFTN-CG
REM
REM
REM
REM
REM
REM ./C.cell (b20cbc046b6831c77cfcea5457e17084)
REM AIRSS Version 0.9.1 bugfix July 2018 build 013d7b7c2542+ Fri, 06 Jul 2018 19:26:36 +0100
REM compiler GCC version 9.3.0
REM options -cpp -mtune=generic -march=x86-64 -g -O0
REM seed 1203139776 -1946582608 218402792 -412368456 -1196866314 2072451613 599659156 925337033 -1827349444 -2076187827 -2066632088 1238926560 1397929298 -501572588 -721601884 389136711 1350395339 1820640234 -78341778 -713982176 -1634353847 1676195178 -1083132473 -1539953538 -1829776168 -1286248646 1303188349 -731024950 -811069985 -1451948209 -500560643 1608041098 636879040
REM
CELL 1.54180   50.00000   50.00000   50.00000   90.00000   90.00000   90.00000
LATT -1
SFAC C  
C      1  0.5689470000000  0.5557580000000  0.5307810000000 1.0
C      1  0.4920290000000  0.5557570000000  0.5750850000000 1.0
C      1  0.4261250000000  0.5557540000000  0.5156220000000 1.0
C      1  0.4623120000000  0.5557530000000  0.4345680000000 1.0
C      1  0.5505810000000  0.5557550000000  0.4439370000000 1.0
C      1  0.5689500000000  0.4442470000000  0.5307840000000 1.0
C      1  0.4920320000000  0.4442460000000  0.5750880000000 1.0
C      1  0.4261270000000  0.4442430000000  0.5156250000000 1.0
C      1  0.4623140000000  0.4442420000000  0.4345710000000 1.0
C      1  0.5505830000000  0.4442440000000  0.4439400000000 1.0
C      1  0.5063270000000  0.5152490000000  0.4581650000000 1.0
C      1  0.5417420000000  0.5152500000000  0.4930900000000 1.0
C      1  0.5194700000000  0.5152510000000  0.5375640000000 1.0
C      1  0.4702910000000  0.5152500000000  0.5301250000000 1.0
C      1  0.4621680000000  0.5152480000000  0.4810540000000 1.0
C      1  0.5063280000000  0.4847500000000  0.4581660000000 1.0
C      1  0.5417430000000  0.4847510000000  0.4930910000000 1.0
C      1  0.5194710000000  0.4847520000000  0.5375650000000 1.0
C      1  0.4702910000000  0.4847510000000  0.5301260000000 1.0
C      1  0.4621690000000  0.4847490000000  0.4810550000000 1.0
C      1  0.4795550000000  0.4863500000000  0.4187370000000 1.0
C      1  0.5709680000000  0.4863540000000  0.4554440000000 1.0
C      1  0.5643060000000  0.4863560000000  0.5537260000000 1.0
C      1  0.4687760000000  0.4863540000000  0.5777610000000 1.0
C      1  0.4163970000000  0.4863510000000  0.4943330000000 1.0
C      1  0.4795540000000  0.5136440000000  0.4187370000000 1.0
C      1  0.5709670000000  0.5136470000000  0.4554430000000 1.0
C      1  0.5643060000000  0.5136500000000  0.5537250000000 1.0
C      1  0.4687750000000  0.5136480000000  0.5777600000000 1.0
C      1  0.4163960000000  0.5136450000000  0.4943330000000 1.0
C      1  0.4175410000000  0.5276150000000  0.5192290000000 1.0
C      1  0.4562300000000  0.5276130000000  0.4275190000000 1.0
C      1  0.5554070000000  0.5276160000000  0.4359750000000 1.0
C      1  0.5780120000000  0.5276190000000  0.5329100000000 1.0
C      1  0.4928070000000  0.5276180000000  0.5843640000000 1.0
C      1  0.4175420000000  0.4723830000000  0.5192300000000 1.0
C      1  0.4562310000000  0.4723810000000  0.4275200000000 1.0
C      1  0.5554080000000  0.4723840000000  0.4359760000000 1.0
C      1  0.5780140000000  0.4723870000000  0.5329120000000 1.0
C      1  0.4928080000000  0.4723860000000  0.5843660000000 1.0
C      1  0.4912040000000  0.5571910000000  0.5413120000000 1.0
C      1  0.4579890000000  0.5571890000000  0.5044010000000 1.0
C      1  0.4828300000000  0.5571890000000  0.4614060000000 1.0
C      1  0.5313970000000  0.5571900000000  0.4717440000000 1.0
C      1  0.5365730000000  0.5571920000000  0.5211290000000 1.0
C      1  0.4912070000000  0.4428110000000  0.5413150000000 1.0
C      1  0.4579920000000  0.4428090000000  0.5044040000000 1.0
C      1  0.4828320000000  0.4428080000000  0.4614090000000 1.0
C      1  0.5314000000000  0.4428100000000  0.4717470000000 1.0
C      1  0.5365760000000  0.4428110000000  0.5211320000000 1.0
C      1  0.5856570000000  0.4861000000000  0.5091140000000 1.0
C      1  0.5178020000000  0.4861000000000  0.5842810000000 1.0
C      1  0.4253460000000  0.4860970000000  0.5429750000000 1.0
C      1  0.4360590000000  0.4860950000000  0.4422800000000 1.0
C      1  0.5351370000000  0.4860960000000  0.4213520000000 1.0
C      1  0.5856560000000  0.5139050000000  0.5091130000000 1.0
C      1  0.5178020000000  0.5139050000000  0.5842800000000 1.0
C      1  0.4253450000000  0.5139020000000  0.5429740000000 1.0
C      1  0.4360590000000  0.5138990000000  0.4422790000000 1.0
C      1  0.5351360000000  0.5139010000000  0.4213520000000 1.0
C      1  0.4666830000000  0.4708710000000  0.5051120000000 1.0
C      1  0.4848440000000  0.4708700000000  0.4698930000000 1.0
C      1  0.5239510000000  0.4708710000000  0.4762820000000 1.0
C      1  0.5299600000000  0.4708730000000  0.5154490000000 1.0
C      1  0.4945660000000  0.4708720000000  0.5332680000000 1.0
C      1  0.4666810000000  0.5291280000000  0.5051110000000 1.0
C      1  0.4848420000000  0.5291280000000  0.4698910000000 1.0
C      1  0.5239500000000  0.5291290000000  0.4762800000000 1.0
C      1  0.5299590000000  0.5291300000000  0.5154480000000 1.0
C      1  0.4945650000000  0.5291290000000  0.5332660000000 1.0
C      1  0.5165650000000  0.5734930000000  0.5389150000000 1.0
C      1  0.4681050000000  0.5734920000000  0.5277800000000 1.0
C      1  0.4637200000000  0.5734900000000  0.4782510000000 1.0
C      1  0.5094700000000  0.5734910000000  0.4587750000000 1.0
C      1  0.5421300000000  0.5734930000000  0.4962680000000 1.0
C      1  0.5165690000000  0.4265100000000  0.5389190000000 1.0
C      1  0.4681090000000  0.4265080000000  0.5277840000000 1.0
C      1  0.4637240000000  0.4265070000000  0.4782550000000 1.0
C      1  0.5094740000000  0.4265070000000  0.4587790000000 1.0
C      1  0.5421340000000  0.4265090000000  0.4962720000000 1.0
C      1  0.5060760000000  0.4029510000000  0.4766370000000 1.0
C      1  0.5241010000000  0.4029520000000  0.4985580000000 1.0
C      1  0.5088230000000  0.4029520000000  0.5224750000000 1.0
C      1  0.4813550000000  0.4029510000000  0.5153360000000 1.0
C      1  0.4796570000000  0.4029500000000  0.4870060000000 1.0
C      1  0.5060710000000  0.5970480000000  0.4766320000000 1.0
C      1  0.5240960000000  0.5970490000000  0.4985530000000 1.0
C      1  0.5088180000000  0.5970500000000  0.5224700000000 1.0
C      1  0.4813500000000  0.5970490000000  0.5153310000000 1.0
C      1  0.4796530000000  0.5970480000000  0.4870010000000 1.0
C      1  0.5191750000000  0.4314010000000  0.5679800000000 1.0
C      1  0.4412760000000  0.4313980000000  0.5392430000000 1.0
C      1  0.4445340000000  0.4313960000000  0.4562760000000 1.0
C      1  0.5244460000000  0.4313970000000  0.4337370000000 1.0
C      1  0.5705770000000  0.4314000000000  0.5027730000000 1.0
C      1  0.5191720000000  0.5686040000000  0.5679760000000 1.0
C      1  0.4412730000000  0.5686010000000  0.5392390000000 1.0
C      1  0.4445300000000  0.5685990000000  0.4562730000000 1.0
C      1  0.5244430000000  0.5686000000000  0.4337330000000 1.0
C      1  0.5705740000000  0.5686030000000  0.5027690000000 1.0
C      1  0.5740040000000  0.5251990000000  0.4835040000000 1.0
C      1  0.5385570000000  0.5252000000000  0.5652850000000 1.0
C      1  0.4498240000000  0.5251980000000  0.5568440000000 1.0
C      1  0.4304320000000  0.5251950000000  0.4698460000000 1.0
C      1  0.5071800000000  0.5251960000000  0.4245190000000 1.0
C      1  0.5740050000000  0.4748040000000  0.4835050000000 1.0
C      1  0.5385580000000  0.4748050000000  0.5652860000000 1.0
C      1  0.4498250000000  0.4748030000000  0.5568450000000 1.0
C      1  0.4304330000000  0.4748000000000  0.4698470000000 1.0
C      1  0.5071810000000  0.4748010000000  0.4245200000000 1.0
C      1  0.5753400000000  0.5644630000000  0.4548490000000 1.0
C      1  0.5662200000000  0.5644660000000  0.5577010000000 1.0
C      1  0.4655840000000  0.5644640000000  0.5808100000000 1.0
C      1  0.4125070000000  0.5644600000000  0.4922400000000 1.0
C      1  0.4803410000000  0.5644600000000  0.4143920000000 1.0
C      1  0.5753430000000  0.4355380000000  0.4548520000000 1.0
C      1  0.5662230000000  0.4355410000000  0.5577040000000 1.0
C      1  0.4655870000000  0.4355390000000  0.5808130000000 1.0
C      1  0.4125100000000  0.4355350000000  0.4922440000000 1.0
C      1  0.4803440000000  0.4355350000000  0.4143950000000 1.0
C      1  0.5435630000000  0.5542710000000  0.5707660000000 1.0
C      1  0.4461570000000  0.5542680000000  0.5632990000000 1.0
C      1  0.4231580000000  0.5542650000000  0.4683530000000 1.0
C      1  0.5063500000000  0.5542660000000  0.4171400000000 1.0
C      1  0.5807640000000  0.5542690000000  0.4804350000000 1.0
C      1  0.5435660000000  0.4457350000000  0.5707690000000 1.0
C      1  0.4461600000000  0.4457330000000  0.5633020000000 1.0
C      1  0.4231610000000  0.4457300000000  0.4683560000000 1.0
C      1  0.5063530000000  0.4457300000000  0.4171430000000 1.0
C      1  0.5807670000000  0.4457340000000  0.4804380000000 1.0
END
