TITL C-66575-1968-7 -26.4850662740643 125000 -103.37451255682 0 0 17 (C1) n - 1
REM
REM in /rds/project/t2_vol4/rds-t2-cs072/BORA/CARBON/from-Arr/AIRSS/Generating-Clusters/GAP-ML-2020/Higher-Symm/SD-CG/HFTN-CG
REM
REM
REM
REM
REM
REM ./C.cell (b20cbc046b6831c77cfcea5457e17084)
REM AIRSS Version 0.9.1 bugfix July 2018 build 013d7b7c2542+ Fri, 06 Jul 2018 19:26:36 +0100
REM compiler GCC version 9.3.0
REM options -cpp -mtune=generic -march=x86-64 -g -O0
REM seed -931117496 1949025994 -1477034456 -1415953018 -188082390 -1875099412 -1835328488 1693529094 1236080769 -1691896577 1375093303 -955475258 214635517 -821248171 -1014539672 314903056 -1326767790 1037696876 1031621938 2045542836 830795228 1014197586 -1237723445 -298737654 81855885 -78071386 956949156 1599469069 1665070570 1539119764 2015831094 -501781609 1683973016
REM
CELL 1.54180   50.00000   50.00000   50.00000   90.00000   90.00000   90.00000
LATT -1
SFAC C  
C      1  0.5283600000000  0.4813210000000  0.4977750000000 1.0
C      1  0.4778070000000  0.4760460000000  0.5097440000000 1.0
C      1  0.5281650000000  0.5262240000000  0.5154870000000 1.0
C      1  0.4658530000000  0.5190270000000  0.4925450000000 1.0
C      1  0.4884300000000  0.4759000000000  0.5368760000000 1.0
C      1  0.5106070000000  0.4731570000000  0.4743110000000 1.0
C      1  0.5059100000000  0.5172340000000  0.5311500000000 1.0
C      1  0.4949180000000  0.5193240000000  0.4796400000000 1.0
C      1  0.5415180000000  0.5018280000000  0.5070250000000 1.0
C      1  0.4580350000000  0.4968270000000  0.5025500000000 1.0
C      1  0.4997690000000  0.4966140000000  0.5474220000000 1.0
C      1  0.5023580000000  0.4975670000000  0.4633220000000 1.0
C      1  0.4841880000000  0.4340180000000  0.4849350000000 1.0
C      1  0.5179590000000  0.5631140000000  0.4863320000000 1.0
C      1  0.4888000000000  0.4591520000000  0.4887510000000 1.0
C      1  0.5148210000000  0.5382100000000  0.4920270000000 1.0
C      1  0.4998010000000  0.4988200000000  0.5041290000000 1.0
END
