TITL C-67869-7043-11 -0.0905890133049047 125000 -658.555729943644 0 0 97 (C2) n - 1
REM
REM in /rds/project/t2_vol4/rds-t2-cs072/BORA/CARBON/from-Arr/AIRSS/Generating-Clusters/GAP-ML-2020/Higher-Symm/SD-CG/HFTN-CG
REM
REM
REM
REM
REM
REM ./C.cell (b20cbc046b6831c77cfcea5457e17084)
REM AIRSS Version 0.9.1 bugfix July 2018 build 013d7b7c2542+ Fri, 06 Jul 2018 19:26:36 +0100
REM compiler GCC version 9.3.0
REM options -cpp -mtune=generic -march=x86-64 -g -O0
REM seed 1815836545 -1976247666 -572897052 -615896139 -1214867540 1818440173 -1941853566 1447498035 542810445 -907669296 1738097396 888470810 -1357797691 -1652775543 -1657512301 -1602239150 771449074 1984250424 64835564 129611650 665847043 850376286 -337968107 1177149905 -543887078 -1493654000 -1751413016 -792811043 -1951111668 -1664404685 -522424044 -1598325217 -1785091669
REM
CELL 1.54180   50.00000   50.00000   50.00000   90.00000   90.00000   90.00000
LATT -1
SFAC C  
C      1  0.5248560000000  0.5351150000000  0.4296890000000 1.0
C      1  0.5244700000000  0.5779030000000  0.5094400000000 1.0
C      1  0.5216300000000  0.5136770000000  0.5707680000000 1.0
C      1  0.5253540000000  0.4278380000000  0.5390120000000 1.0
C      1  0.5213410000000  0.4480150000000  0.4515650000000 1.0
C      1  0.4759970000000  0.4674450000000  0.4291960000000 1.0
C      1  0.4788260000000  0.4289780000000  0.5092360000000 1.0
C      1  0.4750990000000  0.4857160000000  0.5810520000000 1.0
C      1  0.4791210000000  0.5626410000000  0.5348300000000 1.0
C      1  0.4756160000000  0.5565180000000  0.4452330000000 1.0
C      1  0.5155830000000  0.5179490000000  0.5164420000000 1.0
C      1  0.5104920000000  0.4682620000000  0.5269530000000 1.0
C      1  0.5133650000000  0.4730220000000  0.4984180000000 1.0
C      1  0.5188010000000  0.5100220000000  0.4706250000000 1.0
C      1  0.5111100000000  0.5338300000000  0.4899760000000 1.0
C      1  0.4899650000000  0.4846850000000  0.5388820000000 1.0
C      1  0.4870950000000  0.5103510000000  0.5255330000000 1.0
C      1  0.4816650000000  0.5253440000000  0.4817530000000 1.0
C      1  0.4893560000000  0.4995810000000  0.4650940000000 1.0
C      1  0.4848780000000  0.4793210000000  0.4883790000000 1.0
C      1  0.6070280000000  0.4880190000000  0.5226880000000 1.0
C      1  0.6072070000000  0.4751030000000  0.4958360000000 1.0
C      1  0.6077750000000  0.4968590000000  0.4754450000000 1.0
C      1  0.6079200000000  0.5234270000000  0.4889780000000 1.0
C      1  0.6071200000000  0.5175260000000  0.5183130000000 1.0
C      1  0.3932540000000  0.5121700000000  0.5227470000000 1.0
C      1  0.3926890000000  0.5248360000000  0.4957520000000 1.0
C      1  0.3925450000000  0.5037530000000  0.4746690000000 1.0
C      1  0.3933410000000  0.4776800000000  0.4893500000000 1.0
C      1  0.3934310000000  0.4826400000000  0.5187650000000 1.0
C      1  0.4231070000000  0.5263940000000  0.4945360000000 1.0
C      1  0.4237820000000  0.5132240000000  0.5233380000000 1.0
C      1  0.4239940000000  0.4826640000000  0.5202500000000 1.0
C      1  0.4239160000000  0.4771040000000  0.4889200000000 1.0
C      1  0.4231370000000  0.5036110000000  0.4726820000000 1.0
C      1  0.5766790000000  0.4742170000000  0.4950140000000 1.0
C      1  0.5764650000000  0.4866020000000  0.5231220000000 1.0
C      1  0.5765450000000  0.5181160000000  0.5187230000000 1.0
C      1  0.5773270000000  0.5253630000000  0.4884960000000 1.0
C      1  0.5773580000000  0.4975360000000  0.4735850000000 1.0
C      1  0.4747780000000  0.4429430000000  0.4432840000000 1.0
C      1  0.4755760000000  0.5356670000000  0.4262090000000 1.0
C      1  0.4764490000000  0.5769370000000  0.5104230000000 1.0
C      1  0.4747070000000  0.5138540000000  0.5815020000000 1.0
C      1  0.4760600000000  0.4302250000000  0.5375580000000 1.0
C      1  0.5248950000000  0.5596530000000  0.4436370000000 1.0
C      1  0.5240170000000  0.4668060000000  0.4304240000000 1.0
C      1  0.5257480000000  0.4187110000000  0.5123910000000 1.0
C      1  0.5243930000000  0.4863570000000  0.5783370000000 1.0
C      1  0.5256850000000  0.5720810000000  0.5370980000000 1.0
C      1  0.4686230000000  0.5343650000000  0.5372780000000 1.0
C      1  0.4634990000000  0.4748150000000  0.5558100000000 1.0
C      1  0.4677270000000  0.4515760000000  0.4911600000000 1.0
C      1  0.4648990000000  0.4912840000000  0.4427620000000 1.0
C      1  0.4626040000000  0.5485790000000  0.4708440000000 1.0
C      1  0.5369560000000  0.4552130000000  0.5415760000000 1.0
C      1  0.5327320000000  0.5238810000000  0.5436900000000 1.0
C      1  0.5355680000000  0.5576310000000  0.4909650000000 1.0
C      1  0.5378650000000  0.5132120000000  0.4451580000000 1.0
C      1  0.5318380000000  0.4544270000000  0.4792130000000 1.0
C      1  0.5009110000000  0.5682070000000  0.5528020000000 1.0
C      1  0.5002810000000  0.4705080000000  0.5846480000000 1.0
C      1  0.5002700000000  0.4137800000000  0.4974650000000 1.0
C      1  0.5005400000000  0.4758520000000  0.4159310000000 1.0
C      1  0.4992470000000  0.5729970000000  0.4500330000000 1.0
C      1  0.5001700000000  0.4291210000000  0.5545840000000 1.0
C      1  0.5001850000000  0.5295710000000  0.5815800000000 1.0
C      1  0.4999280000000  0.5879210000000  0.4973420000000 1.0
C      1  0.5012250000000  0.5254570000000  0.4154990000000 1.0
C      1  0.4995500000000  0.4292040000000  0.4518250000000 1.0
C      1  0.4380660000000  0.4677280000000  0.5417150000000 1.0
C      1  0.4393810000000  0.4540790000000  0.4816400000000 1.0
C      1  0.4381310000000  0.5038320000000  0.4474580000000 1.0
C      1  0.4368660000000  0.5506610000000  0.4861230000000 1.0
C      1  0.4397990000000  0.5271140000000  0.5428620000000 1.0
C      1  0.5610800000000  0.5321580000000  0.5383690000000 1.0
C      1  0.5623360000000  0.5492850000000  0.4804860000000 1.0
C      1  0.5636010000000  0.4980370000000  0.4479050000000 1.0
C      1  0.5606600000000  0.4513570000000  0.4878380000000 1.0
C      1  0.5623890000000  0.4708060000000  0.5439610000000 1.0
C      1  0.5446220000000  0.5618320000000  0.4639700000000 1.0
C      1  0.5437340000000  0.5517740000000  0.5444920000000 1.0
C      1  0.5440920000000  0.4712890000000  0.5642010000000 1.0
C      1  0.5439950000000  0.4314140000000  0.4949240000000 1.0
C      1  0.5436640000000  0.4867880000000  0.4336040000000 1.0
C      1  0.4567270000000  0.4421900000000  0.4648800000000 1.0
C      1  0.4563610000000  0.4483290000000  0.5475160000000 1.0
C      1  0.4564620000000  0.5265390000000  0.5640200000000 1.0
C      1  0.4568040000000  0.5677370000000  0.4924010000000 1.0
C      1  0.4558480000000  0.5156580000000  0.4304210000000 1.0
C      1  0.4987980000000  0.5919870000000  0.4699660000000 1.0
C      1  0.4997610000000  0.4083960000000  0.4701640000000 1.0
C      1  0.5002250000000  0.4438710000000  0.5777990000000 1.0
C      1  0.5016730000000  0.5006300000000  0.4036020000000 1.0
C      1  0.5006970000000  0.5571990000000  0.5782600000000 1.0
C      1  0.5265490000000  0.4983270000000  0.4967300000000 1.0
C      1  0.4739130000000  0.5041340000000  0.5009450000000 1.0
END
