TITL C-67878-7044-6 -0.14569146896753 125000 -297.808714713796 0 0 44 (C1) n - 1
REM
REM in /rds/project/t2_vol4/rds-t2-cs072/BORA/CARBON/from-Arr/AIRSS/Generating-Clusters/GAP-ML-2020/Higher-Symm/SD-CG/HFTN-CG
REM
REM
REM
REM
REM
REM ./C.cell (b20cbc046b6831c77cfcea5457e17084)
REM AIRSS Version 0.9.1 bugfix July 2018 build 013d7b7c2542+ Fri, 06 Jul 2018 19:26:36 +0100
REM compiler GCC version 9.3.0
REM options -cpp -mtune=generic -march=x86-64 -g -O0
REM seed -1817911638 -274383761 79441864 1020156238 341652498 -286931028 -1540699045 -1523538160 -1590953656 -11564407 206212738 1001291926 -277776196 1721083559 -1628744041 -1915045967 1464555209 -2024646976 -843998541 -725046043 1006808588 -1365849958 -733354977 -1091465589 -1348585190 1527549501 -443818604 702912797 -523243675 1700487570 -1927739785 -1465297956 463337938
REM
CELL 1.54180   50.00000   50.00000   50.00000   90.00000   90.00000   90.00000
LATT -1
SFAC C  
C      1  0.4436200000000  0.5341060000000  0.5214410000000 1.0
C      1  0.5339590000000  0.5112320000000  0.4431170000000 1.0
C      1  0.5119960000000  0.4433680000000  0.5290550000000 1.0
C      1  0.5536260000000  0.4690040000000  0.5153920000000 1.0
C      1  0.4420390000000  0.4699450000000  0.4856340000000 1.0
C      1  0.5547970000000  0.5334670000000  0.4788560000000 1.0
C      1  0.4647950000000  0.4839870000000  0.4438890000000 1.0
C      1  0.5319360000000  0.4764160000000  0.5566850000000 1.0
C      1  0.4681130000000  0.5124690000000  0.5564910000000 1.0
C      1  0.4846080000000  0.5535820000000  0.5338110000000 1.0
C      1  0.5136890000000  0.5516010000000  0.4638360000000 1.0
C      1  0.4765080000000  0.4434910000000  0.4649220000000 1.0
C      1  0.4437270000000  0.5337450000000  0.4767030000000 1.0
C      1  0.5317370000000  0.5207130000000  0.5612780000000 1.0
C      1  0.5221230000000  0.4433220000000  0.4661320000000 1.0
C      1  0.5560730000000  0.4693140000000  0.4877990000000 1.0
C      1  0.4443080000000  0.4703840000000  0.5134060000000 1.0
C      1  0.5539400000000  0.5339570000000  0.5235550000000 1.0
C      1  0.4681500000000  0.4846220000000  0.5538150000000 1.0
C      1  0.5348980000000  0.4836760000000  0.4453660000000 1.0
C      1  0.4660660000000  0.5115470000000  0.4418760000000 1.0
C      1  0.4859110000000  0.5516740000000  0.4633450000000 1.0
C      1  0.5120090000000  0.5554020000000  0.5345150000000 1.0
C      1  0.4841460000000  0.4453250000000  0.5284680000000 1.0
C      1  0.5642990000000  0.4911550000000  0.5024970000000 1.0
C      1  0.4349350000000  0.5216570000000  0.4991010000000 1.0
C      1  0.5625560000000  0.5211490000000  0.5016030000000 1.0
C      1  0.4328480000000  0.4917730000000  0.4995850000000 1.0
C      1  0.4889840000000  0.4979450000000  0.5666640000000 1.0
C      1  0.4994880000000  0.5636360000000  0.4842950000000 1.0
C      1  0.5187730000000  0.4978390000000  0.5666610000000 1.0
C      1  0.4859760000000  0.4961040000000  0.4307510000000 1.0
C      1  0.5143510000000  0.4959310000000  0.4313300000000 1.0
C      1  0.4989880000000  0.4353380000000  0.4774460000000 1.0
C      1  0.4981300000000  0.4339720000000  0.5072530000000 1.0
C      1  0.4984970000000  0.5649800000000  0.5124710000000 1.0
C      1  0.5373490000000  0.5353280000000  0.4590120000000 1.0
C      1  0.4619510000000  0.5365010000000  0.5403810000000 1.0
C      1  0.5355730000000  0.4594970000000  0.5367390000000 1.0
C      1  0.4621640000000  0.4632750000000  0.5351260000000 1.0
C      1  0.5408110000000  0.4619080000000  0.4637100000000 1.0
C      1  0.4622660000000  0.5355710000000  0.4578190000000 1.0
C      1  0.4580060000000  0.4622630000000  0.4620160000000 1.0
C      1  0.5356870000000  0.5396880000000  0.5424210000000 1.0
END
