TITL C-67864-7099-5 0.0332355884951976 125000 -932.648570284227 0 0 131 (C3) n - 1
REM
REM in /rds/project/t2_vol4/rds-t2-cs072/BORA/CARBON/from-Arr/AIRSS/Generating-Clusters/GAP-ML-2020/Higher-Symm/SD-CG/HFTN-CG
REM
REM
REM
REM
REM
REM ./C.cell (b20cbc046b6831c77cfcea5457e17084)
REM AIRSS Version 0.9.1 bugfix July 2018 build 013d7b7c2542+ Fri, 06 Jul 2018 19:26:36 +0100
REM compiler GCC version 9.3.0
REM options -cpp -mtune=generic -march=x86-64 -g -O0
REM seed -1399188593 235363857 1594984776 336151753 -1635901977 476886643 -1131101876 700848088 20149021 215478621 2092489277 -2082717525 1375431361 -1306266962 -1747176735 -1891580360 252966132 -2114944413 457942822 1923025182 -1195290408 372156309 1634938969 1742752818 80864791 1069597146 -827114580 -1273143803 -1417530274 572436998 516851498 -2059293070 -1024661014
REM
CELL 1.54180   50.00000   50.00000   50.00000   90.00000   90.00000   90.00000
LATT -1
SFAC C  
C      1  0.4767420000000  0.4579840000000  0.4785630000000 1.0
C      1  0.5474500000000  0.5008470000000  0.4785410000000 1.0
C      1  0.4749750000000  0.5406500000000  0.4785540000000 1.0
C      1  0.4975620000000  0.5553910000000  0.5747040000000 1.0
C      1  0.4527280000000  0.4701710000000  0.5747250000000 1.0
C      1  0.5489470000000  0.4739530000000  0.5747010000000 1.0
C      1  0.5581540000000  0.5274030000000  0.4315620000000 1.0
C      1  0.4466030000000  0.5366450000000  0.4315880000000 1.0
C      1  0.4943750000000  0.4354170000000  0.4315880000000 1.0
C      1  0.4725760000000  0.4624760000000  0.5258310000000 1.0
C      1  0.5456640000000  0.4949920000000  0.5258090000000 1.0
C      1  0.4809610000000  0.5420300000000  0.5258200000000 1.0
C      1  0.4162840000000  0.4889170000000  0.5462150000000 1.0
C      1  0.5509210000000  0.4330200000000  0.5461880000000 1.0
C      1  0.5320110000000  0.5775680000000  0.5461760000000 1.0
C      1  0.4365660000000  0.5401710000000  0.5612070000000 1.0
C      1  0.4964000000000  0.4249570000000  0.5612050000000 1.0
C      1  0.5662610000000  0.5343810000000  0.5611760000000 1.0
C      1  0.4331990000000  0.4464580000000  0.4674020000000 1.0
C      1  0.5791980000000  0.4689010000000  0.4673630000000 1.0
C      1  0.4867620000000  0.5841180000000  0.4673730000000 1.0
C      1  0.4508630000000  0.4467340000000  0.5586800000000 1.0
C      1  0.5701690000000  0.4840570000000  0.5586460000000 1.0
C      1  0.4781930000000  0.5687180000000  0.5586590000000 1.0
C      1  0.4951200000000  0.4182390000000  0.4538480000000 1.0
C      1  0.5726690000000  0.5366370000000  0.4538160000000 1.0
C      1  0.4313590000000  0.5445970000000  0.4538500000000 1.0
C      1  0.5393990000000  0.4480590000000  0.5675990000000 1.0
C      1  0.5247580000000  0.5600690000000  0.5675900000000 1.0
C      1  0.4350750000000  0.4913840000000  0.5676190000000 1.0
C      1  0.4195520000000  0.5365060000000  0.5377430000000 1.0
C      1  0.5080700000000  0.4120560000000  0.5377350000000 1.0
C      1  0.5715880000000  0.5509400000000  0.5377040000000 1.0
C      1  0.5114360000000  0.4455430000000  0.5745940000000 1.0
C      1  0.5409210000000  0.5371100000000  0.5745760000000 1.0
C      1  0.4468800000000  0.5168620000000  0.5746010000000 1.0
C      1  0.5209240000000  0.4825180000000  0.5285850000000 1.0
C      1  0.5041350000000  0.5268420000000  0.5285840000000 1.0
C      1  0.4741440000000  0.4901390000000  0.5285950000000 1.0
C      1  0.4199860000000  0.4722010000000  0.4745270000000 1.0
C      1  0.5635130000000  0.4445870000000  0.4744950000000 1.0
C      1  0.5156640000000  0.5826920000000  0.4744900000000 1.0
C      1  0.5182220000000  0.5332760000000  0.4550890000000 1.0
C      1  0.4614940000000  0.4991250000000  0.4551070000000 1.0
C      1  0.5194340000000  0.4670730000000  0.4550960000000 1.0
C      1  0.5806260000000  0.5102370000000  0.5561930000000 1.0
C      1  0.4502910000000  0.5646840000000  0.5562180000000 1.0
C      1  0.4683060000000  0.4245870000000  0.5562300000000 1.0
C      1  0.5031690000000  0.4709970000000  0.5863830000000 1.0
C      1  0.5230170000000  0.5172230000000  0.5863730000000 1.0
C      1  0.4730600000000  0.5112990000000  0.5863860000000 1.0
C      1  0.5578050000000  0.5763050000000  0.5341130000000 1.0
C      1  0.4044750000000  0.5118870000000  0.5341570000000 1.0
C      1  0.5369270000000  0.4113090000000  0.5341370000000 1.0
C      1  0.4865910000000  0.4906950000000  0.4116000000000 1.0
C      1  0.5141650000000  0.4930240000000  0.4115930000000 1.0
C      1  0.4983610000000  0.5157400000000  0.4115940000000 1.0
C      1  0.5034290000000  0.5283010000000  0.4800590000000 1.0
C      1  0.4732100000000  0.4888010000000  0.4800710000000 1.0
C      1  0.5225280000000  0.4823800000000  0.4800590000000 1.0
C      1  0.4720770000000  0.4786970000000  0.4334770000000 1.0
C      1  0.5318230000000  0.4864530000000  0.4334620000000 1.0
C      1  0.4952330000000  0.5343160000000  0.4334650000000 1.0
C      1  0.5760020000000  0.4739220000000  0.4405410000000 1.0
C      1  0.4839990000000  0.5788410000000  0.4405510000000 1.0
C      1  0.4391380000000  0.4467050000000  0.4405770000000 1.0
C      1  0.4282980000000  0.4911290000000  0.4256980000000 1.0
C      1  0.5429420000000  0.4423230000000  0.4256750000000 1.0
C      1  0.5278880000000  0.5660110000000  0.4256650000000 1.0
C      1  0.4101050000000  0.5276440000000  0.4903080000000 1.0
C      1  0.5204470000000  0.4083070000000  0.4902950000000 1.0
C      1  0.5686240000000  0.5635350000000  0.4902650000000 1.0
C      1  0.4755900000000  0.4113060000000  0.4741580000000 1.0
C      1  0.5884480000000  0.5231890000000  0.4741180000000 1.0
C      1  0.4351250000000  0.5649850000000  0.4741500000000 1.0
C      1  0.3995490000000  0.5060850000000  0.5061850000000 1.0
C      1  0.5444030000000  0.4099450000000  0.5061610000000 1.0
C      1  0.5552350000000  0.5834620000000  0.5061380000000 1.0
C      1  0.4691180000000  0.5291850000000  0.4495560000000 1.0
C      1  0.4895860000000  0.4586450000000  0.4495590000000 1.0
C      1  0.5404420000000  0.5116410000000  0.4495400000000 1.0
C      1  0.5661030000000  0.4456900000000  0.5257850000000 1.0
C      1  0.5134380000000  0.5843810000000  0.5257820000000 1.0
C      1  0.4196610000000  0.4694260000000  0.5258180000000 1.0
C      1  0.5810960000000  0.4946740000000  0.4836020000000 1.0
C      1  0.4635010000000  0.5728760000000  0.4836220000000 1.0
C      1  0.4545730000000  0.4319340000000  0.4836410000000 1.0
C      1  0.4389250000000  0.5147190000000  0.4172690000000 1.0
C      1  0.5171950000000  0.4397310000000  0.4172580000000 1.0
C      1  0.5430020000000  0.5450100000000  0.4172400000000 1.0
C      1  0.4861860000000  0.3980680000000  0.5224380000000 1.0
C      1  0.5946370000000  0.5389830000000  0.5223950000000 1.0
C      1  0.4183760000000  0.5624460000000  0.5224360000000 1.0
C      1  0.5064400000000  0.4287440000000  0.5106020000000 1.0
C      1  0.5579380000000  0.5411850000000  0.5105760000000 1.0
C      1  0.4348120000000  0.5295640000000  0.5106080000000 1.0
C      1  0.4095750000000  0.4794480000000  0.5003100000000 1.0
C      1  0.5624550000000  0.4319460000000  0.5002780000000 1.0
C      1  0.5271530000000  0.5880950000000  0.5002680000000 1.0
C      1  0.4626590000000  0.4109270000000  0.5308790000000 1.0
C      1  0.5952670000000  0.5121780000000  0.5308350000000 1.0
C      1  0.4412780000000  0.5763950000000  0.5308650000000 1.0
C      1  0.5163840000000  0.4681650000000  0.5050370000000 1.0
C      1  0.5188240000000  0.5300870000000  0.5050290000000 1.0
C      1  0.4639780000000  0.5012390000000  0.5050460000000 1.0
C      1  0.4455920000000  0.4674280000000  0.4247340000000 1.0
C      1  0.5548200000000  0.4691510000000  0.4247070000000 1.0
C      1  0.4987140000000  0.5628840000000  0.4247100000000 1.0
C      1  0.4635190000000  0.5298510000000  0.5047900000000 1.0
C      1  0.4918350000000  0.4534610000000  0.5047920000000 1.0
C      1  0.5438320000000  0.5161790000000  0.5047720000000 1.0
C      1  0.4162760000000  0.5572080000000  0.4945080000000 1.0
C      1  0.4917600000000  0.3988700000000  0.4945070000000 1.0
C      1  0.5911420000000  0.5434090000000  0.4944660000000 1.0
C      1  0.5709650000000  0.4744740000000  0.5296040000000 1.0
C      1  0.4860810000000  0.5742000000000  0.5296130000000 1.0
C      1  0.4421580000000  0.4508250000000  0.5296380000000 1.0
C      1  0.4276340000000  0.4954370000000  0.4561620000000 1.0
C      1  0.5395580000000  0.4395930000000  0.4561410000000 1.0
C      1  0.5319580000000  0.5644440000000  0.4561280000000 1.0
C      1  0.4765800000000  0.4822980000000  0.5869220000000 1.0
C      1  0.5265250000000  0.4885460000000  0.5869090000000 1.0
C      1  0.4961420000000  0.5286750000000  0.5869120000000 1.0
C      1  0.5214440000000  0.4176240000000  0.4637450000000 1.0
C      1  0.5600440000000  0.5597410000000  0.4637190000000 1.0
C      1  0.4176680000000  0.5221110000000  0.4637580000000 1.0
C      1  0.4625630000000  0.5813840000000  0.5129440000000 1.0
C      1  0.4476870000000  0.4268670000000  0.5129660000000 1.0
C      1  0.5889410000000  0.4912420000000  0.5129240000000 1.0
C      1  0.4997360000000  0.4998340000000  0.5348050000000 1.0
C      1  0.4997220000000  0.4998270000000  0.4763570000000 1.0
END
