TITL C-67868-7133-3 0.0733108942222429 125000 -783.638734961107 0 0 112 (Cs) n - 1
REM
REM in /rds/project/t2_vol4/rds-t2-cs072/BORA/CARBON/from-Arr/AIRSS/Generating-Clusters/GAP-ML-2020/Higher-Symm/SD-CG/HFTN-CG
REM
REM
REM
REM
REM
REM ./C.cell (b20cbc046b6831c77cfcea5457e17084)
REM AIRSS Version 0.9.1 bugfix July 2018 build 013d7b7c2542+ Fri, 06 Jul 2018 19:26:36 +0100
REM compiler GCC version 9.3.0
REM options -cpp -mtune=generic -march=x86-64 -g -O0
REM seed 87904868 157502807 -555528647 339834733 -1594865347 -1774824985 -549895897 -1994020437 935137655 -223967536 1195365569 -2109612965 680857963 -1499798624 -621291083 1614519140 1495827909 -107397493 -1379296816 -781787053 -1942942522 -690068683 2101391922 -1652661986 1490553094 402279181 -63177258 1256393164 645404376 -820033952 1653028238 1916695658 1108158115
REM
CELL 1.54180   50.00000   50.00000   50.00000   90.00000   90.00000   90.00000
LATT -1
SFAC C  
C      1  0.5394060000000  0.4929970000000  0.5506270000000 1.0
C      1  0.5398900000000  0.4927120000000  0.4497940000000 1.0
C      1  0.5343830000000  0.4228940000000  0.4859540000000 1.0
C      1  0.5342440000000  0.4229750000000  0.5148110000000 1.0
C      1  0.4678420000000  0.5906990000000  0.5271000000000 1.0
C      1  0.4681070000000  0.5905440000000  0.4720800000000 1.0
C      1  0.4999460000000  0.4813610000000  0.4284100000000 1.0
C      1  0.4992570000000  0.4817660000000  0.5716910000000 1.0
C      1  0.5274630000000  0.5515880000000  0.5633670000000 1.0
C      1  0.5280720000000  0.5512300000000  0.4366090000000 1.0
C      1  0.4153150000000  0.5038240000000  0.4852230000000 1.0
C      1  0.4151770000000  0.5039050000000  0.5139410000000 1.0
C      1  0.5167140000000  0.5287310000000  0.5152100000000 1.0
C      1  0.5168600000000  0.5286450000000  0.4847900000000 1.0
C      1  0.4994920000000  0.4608300000000  0.5511250000000 1.0
C      1  0.4999830000000  0.4605420000000  0.4490950000000 1.0
C      1  0.5152780000000  0.4768510000000  0.4851920000000 1.0
C      1  0.5151340000000  0.4769360000000  0.5150840000000 1.0
C      1  0.5834380000000  0.5087750000000  0.4626070000000 1.0
C      1  0.5830750000000  0.5089880000000  0.5381440000000 1.0
C      1  0.4850500000000  0.5662520000000  0.4362520000000 1.0
C      1  0.4844390000000  0.5666100000000  0.5632270000000 1.0
C      1  0.4711320000000  0.4893820000000  0.4243250000000 1.0
C      1  0.4704060000000  0.4898090000000  0.5754530000000 1.0
C      1  0.4266450000000  0.5254510000000  0.4687890000000 1.0
C      1  0.4263490000000  0.5256250000000  0.5303600000000 1.0
C      1  0.4363890000000  0.5138220000000  0.5549610000000 1.0
C      1  0.4369210000000  0.5135100000000  0.4443520000000 1.0
C      1  0.5561950000000  0.4989130000000  0.4250190000000 1.0
C      1  0.5554710000000  0.4993380000000  0.5755230000000 1.0
C      1  0.4820890000000  0.4378400000000  0.5619990000000 1.0
C      1  0.4826840000000  0.4374900000000  0.4381840000000 1.0
C      1  0.5125960000000  0.5040180000000  0.5557900000000 1.0
C      1  0.5131320000000  0.5037030000000  0.4443120000000 1.0
C      1  0.5289640000000  0.4375890000000  0.4257120000000 1.0
C      1  0.5282470000000  0.4380100000000  0.5749140000000 1.0
C      1  0.4437070000000  0.5451640000000  0.5158050000000 1.0
C      1  0.4438620000000  0.5450720000000  0.4834000000000 1.0
C      1  0.4938800000000  0.5481300000000  0.4850470000000 1.0
C      1  0.4937380000000  0.5482130000000  0.5146210000000 1.0
C      1  0.4905690000000  0.4637120000000  0.5228500000000 1.0
C      1  0.4907880000000  0.4635840000000  0.4772660000000 1.0
C      1  0.4477380000000  0.5757780000000  0.5132850000000 1.0
C      1  0.4478700000000  0.5757010000000  0.4857850000000 1.0
C      1  0.5435860000000  0.4827200000000  0.5929690000000 1.0
C      1  0.5444780000000  0.4821970000000  0.4075530000000 1.0
C      1  0.5112020000000  0.4165670000000  0.4700920000000 1.0
C      1  0.5109120000000  0.4167370000000  0.5304850000000 1.0
C      1  0.5072560000000  0.4250740000000  0.4414800000000 1.0
C      1  0.5066910000000  0.4254060000000  0.5590090000000 1.0
C      1  0.5534740000000  0.4397130000000  0.5285830000000 1.0
C      1  0.5537440000000  0.4395540000000  0.4722740000000 1.0
C      1  0.5552820000000  0.5459060000000  0.4446980000000 1.0
C      1  0.5547490000000  0.5462190000000  0.5555710000000 1.0
C      1  0.5400760000000  0.5778170000000  0.5145380000000 1.0
C      1  0.5402160000000  0.5777350000000  0.4854080000000 1.0
C      1  0.5712070000000  0.4582560000000  0.4863990000000 1.0
C      1  0.5710720000000  0.4583360000000  0.5145200000000 1.0
C      1  0.4625330000000  0.5165640000000  0.4285450000000 1.0
C      1  0.4618480000000  0.5169660000000  0.5709970000000 1.0
C      1  0.4433140000000  0.4366060000000  0.4698000000000 1.0
C      1  0.4430240000000  0.4367760000000  0.5300110000000 1.0
C      1  0.4781260000000  0.5067010000000  0.5156270000000 1.0
C      1  0.4782770000000  0.5066130000000  0.4841260000000 1.0
C      1  0.5307270000000  0.4659150000000  0.4585790000000 1.0
C      1  0.5303260000000  0.4661500000000  0.5419060000000 1.0
C      1  0.4827930000000  0.5379650000000  0.4270020000000 1.0
C      1  0.4820930000000  0.5383760000000  0.5726130000000 1.0
C      1  0.4672350000000  0.5845290000000  0.5535830000000 1.0
C      1  0.4677530000000  0.5842240000000  0.4456290000000 1.0
C      1  0.4878770000000  0.4112940000000  0.4858520000000 1.0
C      1  0.4877390000000  0.4113750000000  0.5145310000000 1.0
C      1  0.4705470000000  0.5341980000000  0.5229500000000 1.0
C      1  0.4707700000000  0.5340670000000  0.4765750000000 1.0
C      1  0.5088610000000  0.5304320000000  0.5693020000000 1.0
C      1  0.5095270000000  0.5300410000000  0.4306160000000 1.0
C      1  0.4187610000000  0.4786400000000  0.4717130000000 1.0
C      1  0.4184920000000  0.4787980000000  0.5276240000000 1.0
C      1  0.5774740000000  0.4880080000000  0.4852090000000 1.0
C      1  0.5773280000000  0.4880940000000  0.5156030000000 1.0
C      1  0.4302560000000  0.4860350000000  0.5530520000000 1.0
C      1  0.4307680000000  0.4857330000000  0.4463590000000 1.0
C      1  0.5167290000000  0.5876910000000  0.5288410000000 1.0
C      1  0.5170080000000  0.5875270000000  0.4708260000000 1.0
C      1  0.5540040000000  0.5558460000000  0.5279870000000 1.0
C      1  0.5542720000000  0.5556880000000  0.4722190000000 1.0
C      1  0.4561820000000  0.4444150000000  0.4443720000000 1.0
C      1  0.4556470000000  0.4447290000000  0.5555170000000 1.0
C      1  0.4511020000000  0.4705780000000  0.4343430000000 1.0
C      1  0.4504720000000  0.4709480000000  0.5653490000000 1.0
C      1  0.5061110000000  0.5041190000000  0.5261030000000 1.0
C      1  0.5063620000000  0.5039710000000  0.4739340000000 1.0
C      1  0.5117470000000  0.5730170000000  0.5538860000000 1.0
C      1  0.5122660000000  0.5727120000000  0.4458180000000 1.0
C      1  0.5473010000000  0.5310930000000  0.4854610000000 1.0
C      1  0.5471600000000  0.5311750000000  0.5148170000000 1.0
C      1  0.5237740000000  0.4652840000000  0.4125190000000 1.0
C      1  0.5229310000000  0.4657790000000  0.5879000000000 1.0
C      1  0.4592770000000  0.4191430000000  0.4855960000000 1.0
C      1  0.4591380000000  0.4192250000000  0.5144680000000 1.0
C      1  0.5558800000000  0.5059560000000  0.5281930000000 1.0
C      1  0.5561480000000  0.5057980000000  0.4723120000000 1.0
C      1  0.5469380000000  0.4444930000000  0.5551350000000 1.0
C      1  0.5474640000000  0.4441840000000  0.4456340000000 1.0
C      1  0.4935310000000  0.5968930000000  0.5139430000000 1.0
C      1  0.4936680000000  0.5968130000000  0.4854480000000 1.0
C      1  0.4683330000000  0.4787590000000  0.4852310000000 1.0
C      1  0.4681920000000  0.4788420000000  0.5145840000000 1.0
C      1  0.4250830000000  0.4538590000000  0.4849760000000 1.0
C      1  0.4249410000000  0.4539430000000  0.5145630000000 1.0
C      1  0.5697180000000  0.5210050000000  0.5605280000000 1.0
C      1  0.5702970000000  0.5206650000000  0.4400280000000 1.0
END
