TITL C-67886-7083-10 25.1674025716631 125000 -361.608611344414 0 0 54 (C1) n - 1
REM
REM in /rds/project/t2_vol4/rds-t2-cs072/BORA/CARBON/from-Arr/AIRSS/Generating-Clusters/GAP-ML-2020/Higher-Symm/SD-CG/HFTN-CG
REM
REM
REM
REM
REM
REM ./C.cell (b20cbc046b6831c77cfcea5457e17084)
REM AIRSS Version 0.9.1 bugfix July 2018 build 013d7b7c2542+ Fri, 06 Jul 2018 19:26:36 +0100
REM compiler GCC version 9.3.0
REM options -cpp -mtune=generic -march=x86-64 -g -O0
REM seed -1230752433 455510429 396584816 1110797044 9698156 -547809705 -1928118688 428839416 -1927738889 348303539 -1931995927 -1477371374 -795391786 -1004990322 1868495173 -957964515 -185677784 -967636216 -1889938898 993283184 1239222483 1499066854 1955065134 1471098431 -2119548358 1210894887 178696870 -1235647226 643787937 -420546328 -218509775 -1069365657 1781281662
REM
CELL 1.54180   50.00000   50.00000   50.00000   90.00000   90.00000   90.00000
LATT -1
SFAC C  
C      1  0.5142820000000  0.4433670000000  0.4650770000000 1.0
C      1  0.5518030000000  0.4682980000000  0.4779030000000 1.0
C      1  0.5525790000000  0.5336020000000  0.4579460000000 1.0
C      1  0.5053240000000  0.5594820000000  0.4702720000000 1.0
C      1  0.4648800000000  0.5485000000000  0.4798230000000 1.0
C      1  0.4334760000000  0.5033770000000  0.4695080000000 1.0
C      1  0.4708490000000  0.4479430000000  0.4541370000000 1.0
C      1  0.5555510000000  0.5432020000000  0.4811390000000 1.0
C      1  0.4860330000000  0.5658400000000  0.4883330000000 1.0
C      1  0.4457460000000  0.5410180000000  0.4997640000000 1.0
C      1  0.4366740000000  0.5121830000000  0.4957360000000 1.0
C      1  0.4881250000000  0.4313940000000  0.4706780000000 1.0
C      1  0.5361090000000  0.4438790000000  0.4828040000000 1.0
C      1  0.5735980000000  0.4697340000000  0.4946870000000 1.0
C      1  0.4820070000000  0.5536580000000  0.5356270000000 1.0
C      1  0.4499260000000  0.5145450000000  0.5408200000000 1.0
C      1  0.4518160000000  0.4728200000000  0.5247540000000 1.0
C      1  0.4995800000000  0.4401920000000  0.5158200000000 1.0
C      1  0.5396790000000  0.4622450000000  0.5268980000000 1.0
C      1  0.5498630000000  0.5096580000000  0.5189660000000 1.0
C      1  0.5233070000000  0.5480300000000  0.5157810000000 1.0
C      1  0.4600710000000  0.5378610000000  0.5253920000000 1.0
C      1  0.4371420000000  0.4979590000000  0.5228230000000 1.0
C      1  0.4846740000000  0.4249850000000  0.4968590000000 1.0
C      1  0.5295150000000  0.4410730000000  0.5107790000000 1.0
C      1  0.5601770000000  0.4802180000000  0.5158680000000 1.0
C      1  0.5509280000000  0.5392330000000  0.5070620000000 1.0
C      1  0.4973710000000  0.5652200000000  0.5143390000000 1.0
C      1  0.4625610000000  0.5004830000000  0.4614920000000 1.0
C      1  0.4776150000000  0.4740590000000  0.4557900000000 1.0
C      1  0.5053880000000  0.4707200000000  0.4711190000000 1.0
C      1  0.5299190000000  0.4896160000000  0.4733770000000 1.0
C      1  0.5285800000000  0.5144140000000  0.4523100000000 1.0
C      1  0.5052100000000  0.5312720000000  0.4670880000000 1.0
C      1  0.4760300000000  0.5272890000000  0.4628780000000 1.0
C      1  0.4819460000000  0.5197620000000  0.5092140000000 1.0
C      1  0.4666750000000  0.5012840000000  0.4917470000000 1.0
C      1  0.4668270000000  0.4734200000000  0.5007990000000 1.0
C      1  0.4947160000000  0.4668520000000  0.5003950000000 1.0
C      1  0.5091860000000  0.4853560000000  0.5174600000000 1.0
C      1  0.5249270000000  0.5030220000000  0.5003680000000 1.0
C      1  0.5086380000000  0.5266640000000  0.4974090000000 1.0
C      1  0.5248770000000  0.5393740000000  0.5434190000000 1.0
C      1  0.4989610000000  0.5395690000000  0.5544990000000 1.0
C      1  0.4714760000000  0.4983620000000  0.5542930000000 1.0
C      1  0.4711850000000  0.4706000000000  0.5458230000000 1.0
C      1  0.4945360000000  0.4548350000000  0.5427260000000 1.0
C      1  0.5193550000000  0.4712810000000  0.5442220000000 1.0
C      1  0.5390570000000  0.5145080000000  0.5455290000000 1.0
C      1  0.4968110000000  0.5115850000000  0.5614470000000 1.0
C      1  0.4908470000000  0.5031020000000  0.5303830000000 1.0
C      1  0.5259650000000  0.5068260000000  0.3981770000000 1.0
C      1  0.5269760000000  0.5101760000000  0.4235270000000 1.0
C      1  0.5223740000000  0.4962630000000  0.5595970000000 1.0
END
