TITL C-67870-8207-10 0.0095725297593266 125000 -761.325594455688 0 0 110 (C1) n - 1
REM
REM in /rds/project/t2_vol4/rds-t2-cs072/BORA/CARBON/from-Arr/AIRSS/Generating-Clusters/GAP-ML-2020/Higher-Symm/SD-CG/HFTN-CG
REM
REM
REM
REM
REM
REM ./C.cell (b20cbc046b6831c77cfcea5457e17084)
REM AIRSS Version 0.9.1 bugfix July 2018 build 013d7b7c2542+ Fri, 06 Jul 2018 19:26:36 +0100
REM compiler GCC version 9.3.0
REM options -cpp -mtune=generic -march=x86-64 -g -O0
REM seed 1264558925 1633442077 -1815859221 1419187122 -1321063112 1139388821 -332908702 276190343 1741900373 -1352592210 -1819108342 420139019 -347205431 -1348595563 276482886 -310736147 -877264388 -412328861 1093521382 1680592584 -1566305753 1889855145 -635406902 -1353323852 1253292043 -230933426 -1145334475 469354262 584236924 1581991286 75845073 443531941 -1316842495
REM
CELL 1.54180   50.00000   50.00000   50.00000   90.00000   90.00000   90.00000
LATT -1
SFAC C  
C      1  0.4633360000000  0.4695120000000  0.5273870000000 1.0
C      1  0.4898670000000  0.4702900000000  0.5429820000000 1.0
C      1  0.5133910000000  0.4556550000000  0.5336130000000 1.0
C      1  0.5349410000000  0.4711020000000  0.5214460000000 1.0
C      1  0.5368790000000  0.4562150000000  0.4970230000000 1.0
C      1  0.5340850000000  0.4714950000000  0.4714880000000 1.0
C      1  0.5160630000000  0.4570260000000  0.4521740000000 1.0
C      1  0.4909650000000  0.4502170000000  0.4644280000000 1.0
C      1  0.4787600000000  0.4688350000000  0.4820750000000 1.0
C      1  0.4642680000000  0.4557050000000  0.5022570000000 1.0
C      1  0.5318990000000  0.4340950000000  0.4363600000000 1.0
C      1  0.4731820000000  0.4302680000000  0.4544500000000 1.0
C      1  0.4483040000000  0.4256210000000  0.4699100000000 1.0
C      1  0.4470960000000  0.4334410000000  0.4966690000000 1.0
C      1  0.4465540000000  0.4223440000000  0.5611900000000 1.0
C      1  0.4692020000000  0.4254340000000  0.5739460000000 1.0
C      1  0.5254750000000  0.4322910000000  0.5451060000000 1.0
C      1  0.5482940000000  0.4244410000000  0.5299360000000 1.0
C      1  0.5505080000000  0.4315610000000  0.5023790000000 1.0
C      1  0.5547050000000  0.4213560000000  0.4445800000000 1.0
C      1  0.5356140000000  0.5249340000000  0.5822250000000 1.0
C      1  0.5863330000000  0.5274500000000  0.5296060000000 1.0
C      1  0.5924120000000  0.5339040000000  0.4790790000000 1.0
C      1  0.5734030000000  0.5233830000000  0.4428590000000 1.0
C      1  0.5038830000000  0.5326900000000  0.4164020000000 1.0
C      1  0.4619680000000  0.5244850000000  0.4172450000000 1.0
C      1  0.4104170000000  0.5251120000000  0.4723270000000 1.0
C      1  0.4109260000000  0.5338080000000  0.5231510000000 1.0
C      1  0.4304600000000  0.5233040000000  0.5572710000000 1.0
C      1  0.4956900000000  0.5337010000000  0.5847540000000 1.0
C      1  0.5121560000000  0.5137280000000  0.5302630000000 1.0
C      1  0.5313380000000  0.4994450000000  0.5171450000000 1.0
C      1  0.5458380000000  0.5124300000000  0.4981050000000 1.0
C      1  0.5308550000000  0.5011450000000  0.4784750000000 1.0
C      1  0.5136430000000  0.5219000000000  0.4698030000000 1.0
C      1  0.4884810000000  0.5155170000000  0.4633020000000 1.0
C      1  0.4749230000000  0.4968820000000  0.4785030000000 1.0
C      1  0.4610550000000  0.5112570000000  0.4976400000000 1.0
C      1  0.4663250000000  0.4998300000000  0.5217150000000 1.0
C      1  0.4904190000000  0.4991190000000  0.5355880000000 1.0
C      1  0.4668050000000  0.5814440000000  0.5188360000000 1.0
C      1  0.4872920000000  0.5798940000000  0.5394320000000 1.0
C      1  0.5124830000000  0.5899820000000  0.5419130000000 1.0
C      1  0.5361350000000  0.5812380000000  0.5292820000000 1.0
C      1  0.5439880000000  0.5920610000000  0.5048190000000 1.0
C      1  0.5387630000000  0.5819210000000  0.4801070000000 1.0
C      1  0.5147940000000  0.5758030000000  0.4650460000000 1.0
C      1  0.4885150000000  0.5848120000000  0.4699830000000 1.0
C      1  0.4610690000000  0.5766420000000  0.4681670000000 1.0
C      1  0.4703010000000  0.5887080000000  0.4914650000000 1.0
C      1  0.5186660000000  0.5445880000000  0.5703510000000 1.0
C      1  0.5633820000000  0.5322000000000  0.5461750000000 1.0
C      1  0.5824300000000  0.5410430000000  0.5045840000000 1.0
C      1  0.5747750000000  0.5469580000000  0.4601120000000 1.0
C      1  0.5281090000000  0.5352340000000  0.4292580000000 1.0
C      1  0.4789330000000  0.5456680000000  0.4256330000000 1.0
C      1  0.4301680000000  0.5326460000000  0.4528590000000 1.0
C      1  0.4184510000000  0.5379300000000  0.4968700000000 1.0
C      1  0.4316970000000  0.5461490000000  0.5397070000000 1.0
C      1  0.4734560000000  0.5343750000000  0.5689620000000 1.0
C      1  0.4859000000000  0.5107000000000  0.4089150000000 1.0
C      1  0.4395470000000  0.5149150000000  0.4315570000000 1.0
C      1  0.3993190000000  0.5006230000000  0.4757580000000 1.0
C      1  0.4117010000000  0.5090690000000  0.5394440000000 1.0
C      1  0.4526730000000  0.5129220000000  0.5704890000000 1.0
C      1  0.5123240000000  0.5113700000000  0.5931590000000 1.0
C      1  0.5549130000000  0.5129100000000  0.5665920000000 1.0
C      1  0.5961100000000  0.5024090000000  0.5256490000000 1.0
C      1  0.5904890000000  0.5093010000000  0.4630250000000 1.0
C      1  0.5499990000000  0.5147140000000  0.4294110000000 1.0
C      1  0.5415630000000  0.5506320000000  0.5296960000000 1.0
C      1  0.5523740000000  0.5412510000000  0.5016320000000 1.0
C      1  0.5502920000000  0.5546770000000  0.4739430000000 1.0
C      1  0.5251730000000  0.5477320000000  0.4573630000000 1.0
C      1  0.4751440000000  0.5390810000000  0.4528010000000 1.0
C      1  0.4517600000000  0.5486230000000  0.4665660000000 1.0
C      1  0.4488720000000  0.5386050000000  0.4961130000000 1.0
C      1  0.4559960000000  0.5537360000000  0.5231930000000 1.0
C      1  0.4813490000000  0.5496840000000  0.5426340000000 1.0
C      1  0.5131390000000  0.5408000000000  0.5390550000000 1.0
C      1  0.4353860000000  0.4423810000000  0.4500570000000 1.0
C      1  0.4256820000000  0.4395180000000  0.5156300000000 1.0
C      1  0.4345780000000  0.4402140000000  0.5436240000000 1.0
C      1  0.4897930000000  0.4429980000000  0.5773870000000 1.0
C      1  0.5193380000000  0.4426980000000  0.5708580000000 1.0
C      1  0.5648930000000  0.4405500000000  0.5441700000000 1.0
C      1  0.5725690000000  0.4414070000000  0.4869130000000 1.0
C      1  0.5663770000000  0.4412350000000  0.4589830000000 1.0
C      1  0.5223010000000  0.4452620000000  0.4135810000000 1.0
C      1  0.4594250000000  0.4446340000000  0.4334650000000 1.0
C      1  0.5826680000000  0.4830360000000  0.4691860000000 1.0
C      1  0.5442760000000  0.4869450000000  0.4307050000000 1.0
C      1  0.4885760000000  0.4835440000000  0.4158650000000 1.0
C      1  0.4403540000000  0.4861520000000  0.4354810000000 1.0
C      1  0.4104880000000  0.4757690000000  0.4802200000000 1.0
C      1  0.4169520000000  0.4821060000000  0.5331160000000 1.0
C      1  0.4555680000000  0.4843190000000  0.5711490000000 1.0
C      1  0.5078070000000  0.4848010000000  0.5864560000000 1.0
C      1  0.5525580000000  0.4835830000000  0.5646570000000 1.0
C      1  0.5858350000000  0.4777450000000  0.5212790000000 1.0
C      1  0.4634970000000  0.4715530000000  0.4249650000000 1.0
C      1  0.4261740000000  0.4689270000000  0.4551960000000 1.0
C      1  0.4140120000000  0.4657430000000  0.5093400000000 1.0
C      1  0.4402780000000  0.4692850000000  0.5481670000000 1.0
C      1  0.4828940000000  0.4719160000000  0.5746650000000 1.0
C      1  0.5300960000000  0.4698920000000  0.5771860000000 1.0
C      1  0.5633510000000  0.4684980000000  0.5406710000000 1.0
C      1  0.5847150000000  0.4673770000000  0.4933750000000 1.0
C      1  0.5602230000000  0.4708630000000  0.4531670000000 1.0
C      1  0.5165750000000  0.4730640000000  0.4250730000000 1.0
END
