TITL C-67872-7032-5 59.1978512164164 125000 -684.905847487014 0 0 99 (C1) n - 1
REM
REM in /rds/project/t2_vol4/rds-t2-cs072/BORA/CARBON/from-Arr/AIRSS/Generating-Clusters/GAP-ML-2020/Higher-Symm/SD-CG/HFTN-CG
REM
REM
REM
REM
REM
REM ./C.cell (b20cbc046b6831c77cfcea5457e17084)
REM AIRSS Version 0.9.1 bugfix July 2018 build 013d7b7c2542+ Fri, 06 Jul 2018 19:26:36 +0100
REM compiler GCC version 9.3.0
REM options -cpp -mtune=generic -march=x86-64 -g -O0
REM seed -1423229861 1652111108 1710983634 1692746709 107147808 -458533783 1832355263 1350248235 1702028897 1967987213 -1610751863 1036458720 1832128456 796415364 10467646 882951363 169209157 26820069 705416548 20776841 -435092701 403221629 -904764367 826448950 -199382557 -689036530 747240874 2001061663 -1776049330 1347941753 -978769853 1882041144 -566102473
REM
CELL 1.54180   50.00000   50.00000   50.00000   90.00000   90.00000   90.00000
LATT -1
SFAC C  
C      1  0.4138990000000  0.5304260000000  0.5344170000000 1.0
C      1  0.4042220000000  0.5058190000000  0.5341250000000 1.0
C      1  0.4204390000000  0.4845170000000  0.5432190000000 1.0
C      1  0.4192490000000  0.4617050000000  0.5261910000000 1.0
C      1  0.4062140000000  0.4611340000000  0.5008860000000 1.0
C      1  0.4172990000000  0.4525320000000  0.4759650000000 1.0
C      1  0.4029660000000  0.4762250000000  0.4782760000000 1.0
C      1  0.4120600000000  0.5016620000000  0.4694040000000 1.0
C      1  0.4006950000000  0.5247420000000  0.4784690000000 1.0
C      1  0.4173890000000  0.5452100000000  0.4869290000000 1.0
C      1  0.4182350000000  0.5513590000000  0.5144460000000 1.0
C      1  0.5441420000000  0.5550400000000  0.5264260000000 1.0
C      1  0.5426680000000  0.5249300000000  0.5331890000000 1.0
C      1  0.5407180000000  0.4639780000000  0.5505840000000 1.0
C      1  0.5371140000000  0.4675900000000  0.5216560000000 1.0
C      1  0.5408670000000  0.4409690000000  0.5089660000000 1.0
C      1  0.5432300000000  0.4376720000000  0.4816710000000 1.0
C      1  0.5412390000000  0.4580200000000  0.4592480000000 1.0
C      1  0.5327410000000  0.4850980000000  0.4577150000000 1.0
C      1  0.5547530000000  0.5358330000000  0.4546110000000 1.0
C      1  0.5434560000000  0.5568910000000  0.4693490000000 1.0
C      1  0.5340420000000  0.5604070000000  0.4986270000000 1.0
C      1  0.5000490000000  0.5731410000000  0.4481000000000 1.0
C      1  0.4963740000000  0.5954230000000  0.4903200000000 1.0
C      1  0.5058900000000  0.5864360000000  0.5349280000000 1.0
C      1  0.5249690000000  0.5306680000000  0.5767620000000 1.0
C      1  0.5081190000000  0.4861690000000  0.5795230000000 1.0
C      1  0.5010790000000  0.4398920000000  0.5645210000000 1.0
C      1  0.4989590000000  0.4146350000000  0.5237500000000 1.0
C      1  0.5028440000000  0.4096780000000  0.4712760000000 1.0
C      1  0.5012820000000  0.4393560000000  0.4324480000000 1.0
C      1  0.5161110000000  0.4849860000000  0.4140200000000 1.0
C      1  0.5159060000000  0.5331620000000  0.4202500000000 1.0
C      1  0.4766640000000  0.5072400000000  0.4197550000000 1.0
C      1  0.4733090000000  0.5292650000000  0.4384850000000 1.0
C      1  0.4641630000000  0.5622900000000  0.4833640000000 1.0
C      1  0.4618780000000  0.5731560000000  0.5125700000000 1.0
C      1  0.4894020000000  0.5494130000000  0.5571370000000 1.0
C      1  0.4782500000000  0.5269330000000  0.5723120000000 1.0
C      1  0.4623330000000  0.4659880000000  0.5646000000000 1.0
C      1  0.4592580000000  0.4428200000000  0.5471980000000 1.0
C      1  0.4641940000000  0.4177210000000  0.4904840000000 1.0
C      1  0.4604740000000  0.4263340000000  0.4632820000000 1.0
C      1  0.4715880000000  0.4802550000000  0.4279140000000 1.0
C      1  0.5061510000000  0.4979230000000  0.4665870000000 1.0
C      1  0.4943480000000  0.5233980000000  0.4641520000000 1.0
C      1  0.4868480000000  0.5399130000000  0.4850550000000 1.0
C      1  0.5070960000000  0.5445200000000  0.5041400000000 1.0
C      1  0.4940380000000  0.5390330000000  0.5290360000000 1.0
C      1  0.5135870000000  0.5187940000000  0.5232840000000 1.0
C      1  0.4972390000000  0.4967150000000  0.5215290000000 1.0
C      1  0.5031270000000  0.4711700000000  0.5206690000000 1.0
C      1  0.4856320000000  0.4580590000000  0.5030850000000 1.0
C      1  0.4960250000000  0.4569670000000  0.4783740000000 1.0
C      1  0.4841740000000  0.4804880000000  0.4698920000000 1.0
C      1  0.4850000000000  0.4220430000000  0.4501420000000 1.0
C      1  0.4955220000000  0.4647060000000  0.4214640000000 1.0
C      1  0.5027010000000  0.5097250000000  0.4093790000000 1.0
C      1  0.4953850000000  0.5499620000000  0.4321270000000 1.0
C      1  0.4818420000000  0.5823980000000  0.4689640000000 1.0
C      1  0.4856100000000  0.5898190000000  0.5173420000000 1.0
C      1  0.5162480000000  0.5556760000000  0.5666160000000 1.0
C      1  0.5013390000000  0.5139190000000  0.5825680000000 1.0
C      1  0.4897610000000  0.4645200000000  0.5747180000000 1.0
C      1  0.4832980000000  0.4270760000000  0.5455800000000 1.0
C      1  0.4896450000000  0.4072030000000  0.4969830000000 1.0
C      1  0.5862570000000  0.5378550000000  0.4912790000000 1.0
C      1  0.5972880000000  0.5439710000000  0.5128300000000 1.0
C      1  0.6071200000000  0.5430930000000  0.5377410000000 1.0
C      1  0.6146680000000  0.5228520000000  0.5516900000000 1.0
C      1  0.6200430000000  0.4975550000000  0.5570100000000 1.0
C      1  0.6202040000000  0.4740840000000  0.5453230000000 1.0
C      1  0.6166590000000  0.4625850000000  0.5220230000000 1.0
C      1  0.6105350000000  0.4656550000000  0.4971270000000 1.0
C      1  0.5995060000000  0.4791960000000  0.4779200000000 1.0
C      1  0.5858460000000  0.4967270000000  0.4656430000000 1.0
C      1  0.5763170000000  0.5228740000000  0.4693180000000 1.0
C      1  0.5258560000000  0.5775600000000  0.4599570000000 1.0
C      1  0.5229550000000  0.5878810000000  0.4875010000000 1.0
C      1  0.5266900000000  0.5712640000000  0.5447060000000 1.0
C      1  0.5428260000000  0.5137540000000  0.5616010000000 1.0
C      1  0.5346020000000  0.4860700000000  0.5667830000000 1.0
C      1  0.5269330000000  0.4388300000000  0.5535970000000 1.0
C      1  0.5255750000000  0.4249850000000  0.5282530000000 1.0
C      1  0.5283090000000  0.4191070000000  0.4656370000000 1.0
C      1  0.5273460000000  0.4379590000000  0.4434120000000 1.0
C      1  0.5383460000000  0.4949210000000  0.4307640000000 1.0
C      1  0.5410720000000  0.5243020000000  0.4314120000000 1.0
C      1  0.4431410000000  0.5595720000000  0.5279550000000 1.0
C      1  0.4393190000000  0.5372210000000  0.5476530000000 1.0
C      1  0.4531000000000  0.5174640000000  0.5629440000000 1.0
C      1  0.4445760000000  0.4889710000000  0.5596090000000 1.0
C      1  0.4420690000000  0.4458980000000  0.5250870000000 1.0
C      1  0.4579660000000  0.4453380000000  0.5011930000000 1.0
C      1  0.4461160000000  0.4522440000000  0.4700330000000 1.0
C      1  0.4569670000000  0.4786710000000  0.4557600000000 1.0
C      1  0.4378280000000  0.5024390000000  0.4562280000000 1.0
C      1  0.4477550000000  0.5289360000000  0.4519310000000 1.0
C      1  0.4408620000000  0.5494170000000  0.4710250000000 1.0
END
