TITL C-67886-7083-1 0.0635744397413602 125000 -889.063580883646 0 0 131 (C1) n - 1
REM
REM in /rds/project/t2_vol4/rds-t2-cs072/BORA/CARBON/from-Arr/AIRSS/Generating-Clusters/GAP-ML-2020/Higher-Symm/SD-CG/HFTN-CG
REM
REM
REM
REM
REM
REM ./C.cell (b20cbc046b6831c77cfcea5457e17084)
REM AIRSS Version 0.9.1 bugfix July 2018 build 013d7b7c2542+ Fri, 06 Jul 2018 19:26:36 +0100
REM compiler GCC version 9.3.0
REM options -cpp -mtune=generic -march=x86-64 -g -O0
REM seed 932148944 69306293 -752838985 -1291760555 1342125413 -642129667 1612940047 -795081644 -1642033545 1412544749 -961878717 -1259348954 820276736 -3731249 -1423953066 -1029492404 390458297 -1222587391 947989845 -1434931143 -481167180 -321370753 -1939908973 1394581506 1431572132 188236191 306004930 351752875 -26529850 -413566540 2041885259 769314144 644599545
REM
CELL 1.54180   50.00000   50.00000   50.00000   90.00000   90.00000   90.00000
LATT -1
SFAC C  
C      1  0.4496810000000  0.5733660000000  0.5174240000000 1.0
C      1  0.4873580000000  0.5843740000000  0.4821990000000 1.0
C      1  0.5529770000000  0.5553470000000  0.5094270000000 1.0
C      1  0.5762330000000  0.5245840000000  0.4852530000000 1.0
C      1  0.5916350000000  0.4844410000000  0.5072270000000 1.0
C      1  0.5704430000000  0.4380550000000  0.4931890000000 1.0
C      1  0.5014930000000  0.4127220000000  0.4988150000000 1.0
C      1  0.4523060000000  0.4360060000000  0.4818060000000 1.0
C      1  0.4168600000000  0.4695200000000  0.5114600000000 1.0
C      1  0.4025790000000  0.5085830000000  0.4961990000000 1.0
C      1  0.4128540000000  0.5417030000000  0.5309510000000 1.0
C      1  0.4614320000000  0.5932470000000  0.4696500000000 1.0
C      1  0.5177260000000  0.5922650000000  0.5249970000000 1.0
C      1  0.5832780000000  0.5525450000000  0.4717070000000 1.0
C      1  0.5999090000000  0.5030370000000  0.5279140000000 1.0
C      1  0.5868180000000  0.4514280000000  0.4733760000000 1.0
C      1  0.5475920000000  0.4156330000000  0.5312730000000 1.0
C      1  0.5021340000000  0.3994790000000  0.4475590000000 1.0
C      1  0.4330840000000  0.4270330000000  0.5704940000000 1.0
C      1  0.3981430000000  0.4826220000000  0.4605630000000 1.0
C      1  0.4997520000000  0.4735260000000  0.4731790000000 1.0
C      1  0.4801870000000  0.4769570000000  0.5278980000000 1.0
C      1  0.4734990000000  0.4874680000000  0.4738990000000 1.0
C      1  0.4728720000000  0.5053210000000  0.5170650000000 1.0
C      1  0.4927670000000  0.5313190000000  0.4765570000000 1.0
C      1  0.4952620000000  0.5236070000000  0.5256890000000 1.0
C      1  0.5244390000000  0.5380090000000  0.4749970000000 1.0
C      1  0.5200920000000  0.5046200000000  0.5244060000000 1.0
C      1  0.5251330000000  0.4895160000000  0.4759280000000 1.0
C      1  0.5106400000000  0.4758860000000  0.5245440000000 1.0
C      1  0.4374600000000  0.5442740000000  0.5135350000000 1.0
C      1  0.4802330000000  0.5543970000000  0.4880650000000 1.0
C      1  0.5251940000000  0.5681030000000  0.5076880000000 1.0
C      1  0.5475510000000  0.5295230000000  0.4925570000000 1.0
C      1  0.5615960000000  0.4839050000000  0.5109680000000 1.0
C      1  0.5433180000000  0.4492930000000  0.4864250000000 1.0
C      1  0.5194280000000  0.4238750000000  0.5194720000000 1.0
C      1  0.4796250000000  0.4334880000000  0.4948160000000 1.0
C      1  0.4412810000000  0.4557270000000  0.5021010000000 1.0
C      1  0.4319020000000  0.5071010000000  0.4853520000000 1.0
C      1  0.4858740000000  0.5079420000000  0.5975940000000 1.0
C      1  0.4872450000000  0.5225890000000  0.4053140000000 1.0
C      1  0.5067100000000  0.5273380000000  0.5972120000000 1.0
C      1  0.5165040000000  0.5245680000000  0.4054310000000 1.0
C      1  0.5288300000000  0.5090850000000  0.5946350000000 1.0
C      1  0.5277010000000  0.4979230000000  0.4048120000000 1.0
C      1  0.5194620000000  0.4803960000000  0.5960710000000 1.0
C      1  0.5055050000000  0.4800460000000  0.4029440000000 1.0
C      1  0.4917870000000  0.4803390000000  0.6013810000000 1.0
C      1  0.4806620000000  0.4949830000000  0.4031070000000 1.0
C      1  0.5758110000000  0.4518310000000  0.4480920000000 1.0
C      1  0.5261350000000  0.4198290000000  0.5481760000000 1.0
C      1  0.4894900000000  0.4114880000000  0.4283900000000 1.0
C      1  0.4251310000000  0.4485730000000  0.5825130000000 1.0
C      1  0.4114380000000  0.4911560000000  0.4402240000000 1.0
C      1  0.4201230000000  0.5514470000000  0.5559040000000 1.0
C      1  0.4621620000000  0.5869110000000  0.4423870000000 1.0
C      1  0.5262320000000  0.5867060000000  0.5507860000000 1.0
C      1  0.5784490000000  0.5524300000000  0.4446100000000 1.0
C      1  0.5917840000000  0.4976480000000  0.5539080000000 1.0
C      1  0.5538310000000  0.4678510000000  0.5585460000000 1.0
C      1  0.5303920000000  0.4461940000000  0.4371230000000 1.0
C      1  0.4851370000000  0.4397730000000  0.5675570000000 1.0
C      1  0.4603610000000  0.4548780000000  0.4329680000000 1.0
C      1  0.4335680000000  0.4935350000000  0.5596180000000 1.0
C      1  0.4447800000000  0.5270190000000  0.4385530000000 1.0
C      1  0.4733660000000  0.5597560000000  0.5586750000000 1.0
C      1  0.5069580000000  0.5688550000000  0.4358920000000 1.0
C      1  0.5495490000000  0.5414710000000  0.5584880000000 1.0
C      1  0.5654260000000  0.5080690000000  0.4401940000000 1.0
C      1  0.5036750000000  0.4792660000000  0.4429360000000 1.0
C      1  0.4825180000000  0.4809490000000  0.5581800000000 1.0
C      1  0.4793710000000  0.4950270000000  0.4452850000000 1.0
C      1  0.4760630000000  0.5084990000000  0.5693380000000 1.0
C      1  0.4885200000000  0.5234890000000  0.4471960000000 1.0
C      1  0.4970010000000  0.5249940000000  0.5558110000000 1.0
C      1  0.5188360000000  0.5255770000000  0.4472380000000 1.0
C      1  0.5212970000000  0.5070760000000  0.5547660000000 1.0
C      1  0.5267130000000  0.4976420000000  0.4470260000000 1.0
C      1  0.5122500000000  0.4798660000000  0.5558480000000 1.0
C      1  0.5548470000000  0.4601420000000  0.4331790000000 1.0
C      1  0.5138010000000  0.4366660000000  0.5677920000000 1.0
C      1  0.4832210000000  0.4391630000000  0.4246930000000 1.0
C      1  0.4419480000000  0.4699860000000  0.5759400000000 1.0
C      1  0.4360260000000  0.5007650000000  0.4299650000000 1.0
C      1  0.4475690000000  0.5450100000000  0.5627810000000 1.0
C      1  0.4785210000000  0.5670180000000  0.4303200000000 1.0
C      1  0.5278390000000  0.5614790000000  0.5628520000000 1.0
C      1  0.5597090000000  0.5358150000000  0.4335590000000 1.0
C      1  0.5666220000000  0.4931960000000  0.5638410000000 1.0
C      1  0.5285080000000  0.4528740000000  0.5142900000000 1.0
C      1  0.4991640000000  0.4461200000000  0.4761620000000 1.0
C      1  0.4670940000000  0.4501660000000  0.5195010000000 1.0
C      1  0.4463930000000  0.4768930000000  0.4787780000000 1.0
C      1  0.4441380000000  0.5129450000000  0.5136750000000 1.0
C      1  0.4472210000000  0.5511220000000  0.4849700000000 1.0
C      1  0.4953580000000  0.5517750000000  0.5142120000000 1.0
C      1  0.5260740000000  0.5672320000000  0.4786480000000 1.0
C      1  0.5474210000000  0.5107530000000  0.5163010000000 1.0
C      1  0.5505100000000  0.4791530000000  0.4832490000000 1.0
C      1  0.4733810000000  0.4637620000000  0.5804460000000 1.0
C      1  0.4604520000000  0.4848270000000  0.4236810000000 1.0
C      1  0.4491060000000  0.5165770000000  0.5669340000000 1.0
C      1  0.4712220000000  0.5379500000000  0.4267710000000 1.0
C      1  0.5014180000000  0.5487030000000  0.5726220000000 1.0
C      1  0.5281400000000  0.5431820000000  0.4258210000000 1.0
C      1  0.5460870000000  0.5145990000000  0.5711480000000 1.0
C      1  0.5480950000000  0.4896940000000  0.4266240000000 1.0
C      1  0.5285600000000  0.4623560000000  0.5737040000000 1.0
C      1  0.5066080000000  0.4571890000000  0.4227770000000 1.0
C      1  0.5550560000000  0.4600210000000  0.5297150000000 1.0
C      1  0.5254880000000  0.4356380000000  0.4655940000000 1.0
C      1  0.4670580000000  0.4323780000000  0.5449040000000 1.0
C      1  0.4484490000000  0.4527530000000  0.4585890000000 1.0
C      1  0.4227790000000  0.4940460000000  0.5314520000000 1.0
C      1  0.4385560000000  0.5297220000000  0.4665930000000 1.0
C      1  0.4756590000000  0.5725750000000  0.5305040000000 1.0
C      1  0.5095730000000  0.5809720000000  0.4614180000000 1.0
C      1  0.5617380000000  0.5366800000000  0.5313370000000 1.0
C      1  0.5752990000000  0.4992870000000  0.4677720000000 1.0
C      1  0.5860150000000  0.5260170000000  0.5171200000000 1.0
C      1  0.5947400000000  0.4792970000000  0.4792200000000 1.0
C      1  0.5680720000000  0.4331430000000  0.5208930000000 1.0
C      1  0.5144100000000  0.4072530000000  0.4713020000000 1.0
C      1  0.4469960000000  0.4143720000000  0.5526270000000 1.0
C      1  0.3985120000000  0.4816970000000  0.4899530000000 1.0
C      1  0.4027480000000  0.5150570000000  0.5239880000000 1.0
C      1  0.4449270000000  0.5807490000000  0.4897580000000 1.0
C      1  0.4912140000000  0.5933450000000  0.5143500000000 1.0
C      1  0.5759000000000  0.5672200000000  0.4937340000000 1.0
C      1  0.4802350000000  0.5090680000000  0.4899010000000 1.0
END
