TITL C-67863-7010-2 0.283089644044101 125000 -843.688151528771 0 0 117 (C1) n - 1
REM
REM in /rds/project/t2_vol4/rds-t2-cs072/BORA/CARBON/from-Arr/AIRSS/Generating-Clusters/GAP-ML-2020/Higher-Symm/SD-CG/HFTN-CG
REM
REM
REM
REM
REM
REM ./C.cell (b20cbc046b6831c77cfcea5457e17084)
REM AIRSS Version 0.9.1 bugfix July 2018 build 013d7b7c2542+ Fri, 06 Jul 2018 19:26:36 +0100
REM compiler GCC version 9.3.0
REM options -cpp -mtune=generic -march=x86-64 -g -O0
REM seed -1160424375 -744111365 1670997931 -796643048 -429805967 1823514503 1520928682 1197992831 -1106179853 20531017 -863625068 1580621965 751819911 48673532 1298168362 -2071778737 854980479 149713652 1927162707 1014332414 1820485941 563084465 -1977555094 -503990711 -2050925669 -526027378 2066896952 1595864941 577666763 345757464 -129338408 2030389497 325916795
REM
CELL 1.54180   50.00000   50.00000   50.00000   90.00000   90.00000   90.00000
LATT -1
SFAC C  
C      1  0.5404680000000  0.5541610000000  0.5505000000000 1.0
C      1  0.5619130000000  0.5537830000000  0.4762850000000 1.0
C      1  0.4984190000000  0.5564130000000  0.4330290000000 1.0
C      1  0.4488480000000  0.5446500000000  0.4871850000000 1.0
C      1  0.4639570000000  0.5562910000000  0.5584240000000 1.0
C      1  0.4886520000000  0.3961160000000  0.5225270000000 1.0
C      1  0.5174980000000  0.4000070000000  0.5210200000000 1.0
C      1  0.5249080000000  0.3997060000000  0.4930940000000 1.0
C      1  0.4996400000000  0.3965980000000  0.4777520000000 1.0
C      1  0.4771440000000  0.3992410000000  0.4955890000000 1.0
C      1  0.5660180000000  0.4347270000000  0.4874710000000 1.0
C      1  0.5053590000000  0.4391400000000  0.4256330000000 1.0
C      1  0.4451300000000  0.4340940000000  0.4678100000000 1.0
C      1  0.4541680000000  0.4390560000000  0.5583320000000 1.0
C      1  0.5268530000000  0.4348100000000  0.5621400000000 1.0
C      1  0.5452360000000  0.4638780000000  0.4318160000000 1.0
C      1  0.4528080000000  0.4618490000000  0.4309490000000 1.0
C      1  0.4262010000000  0.4638110000000  0.5286420000000 1.0
C      1  0.4983900000000  0.4629520000000  0.5858680000000 1.0
C      1  0.5774800000000  0.4629830000000  0.5246530000000 1.0
C      1  0.5391430000000  0.5282010000000  0.4276080000000 1.0
C      1  0.4463470000000  0.5273270000000  0.4411730000000 1.0
C      1  0.4278480000000  0.5268590000000  0.5376770000000 1.0
C      1  0.5101860000000  0.5282550000000  0.5813490000000 1.0
C      1  0.5788450000000  0.5263890000000  0.5142170000000 1.0
C      1  0.4839430000000  0.4238720000000  0.4371860000000 1.0
C      1  0.4580420000000  0.4396940000000  0.5088360000000 1.0
C      1  0.4777820000000  0.4236440000000  0.5626940000000 1.0
C      1  0.5392190000000  0.4403690000000  0.5239320000000 1.0
C      1  0.5304550000000  0.4379850000000  0.4675000000000 1.0
C      1  0.5214150000000  0.4652270000000  0.4835830000000 1.0
C      1  0.4926840000000  0.4685200000000  0.4767410000000 1.0
C      1  0.4747840000000  0.4683090000000  0.5009110000000 1.0
C      1  0.4940560000000  0.4687740000000  0.5232700000000 1.0
C      1  0.5221300000000  0.4666380000000  0.5147960000000 1.0
C      1  0.5755650000000  0.5356010000000  0.4606390000000 1.0
C      1  0.4869600000000  0.5389700000000  0.4150770000000 1.0
C      1  0.4218820000000  0.5334040000000  0.4891330000000 1.0
C      1  0.4618610000000  0.5389860000000  0.5797560000000 1.0
C      1  0.5595550000000  0.5359990000000  0.5588700000000 1.0
C      1  0.4711690000000  0.6003810000000  0.4896750000000 1.0
C      1  0.4648980000000  0.6004830000000  0.5355390000000 1.0
C      1  0.5103730000000  0.6010900000000  0.5203410000000 1.0
C      1  0.5485580000000  0.6014220000000  0.4919870000000 1.0
C      1  0.5073920000000  0.6023720000000  0.4705700000000 1.0
C      1  0.5883360000000  0.5117850000000  0.4696120000000 1.0
C      1  0.4990860000000  0.5153460000000  0.4045050000000 1.0
C      1  0.4148510000000  0.5113530000000  0.4727240000000 1.0
C      1  0.4455020000000  0.5153040000000  0.5803770000000 1.0
C      1  0.5542710000000  0.5127880000000  0.5748240000000 1.0
C      1  0.4187540000000  0.4697680000000  0.4996230000000 1.0
C      1  0.4712050000000  0.4740920000000  0.5881900000000 1.0
C      1  0.5667240000000  0.4705870000000  0.5518390000000 1.0
C      1  0.5683880000000  0.4709040000000  0.4490810000000 1.0
C      1  0.4734000000000  0.4736250000000  0.4132190000000 1.0
C      1  0.4842460000000  0.5249210000000  0.5914590000000 1.0
C      1  0.5772940000000  0.5211400000000  0.5416770000000 1.0
C      1  0.5643210000000  0.5219510000000  0.4378920000000 1.0
C      1  0.4617740000000  0.5249160000000  0.4180470000000 1.0
C      1  0.4154300000000  0.5201270000000  0.5134900000000 1.0
C      1  0.5420020000000  0.4600090000000  0.5666220000000 1.0
C      1  0.5744400000000  0.4597910000000  0.4764010000000 1.0
C      1  0.5010300000000  0.4635540000000  0.4135090000000 1.0
C      1  0.4301760000000  0.4590150000000  0.4731020000000 1.0
C      1  0.4496460000000  0.4631470000000  0.5708590000000 1.0
C      1  0.4542350000000  0.5495550000000  0.4580370000000 1.0
C      1  0.4447480000000  0.5506470000000  0.5365700000000 1.0
C      1  0.5145680000000  0.5517620000000  0.5638370000000 1.0
C      1  0.5647350000000  0.5506710000000  0.5053960000000 1.0
C      1  0.5268590000000  0.5523650000000  0.4385820000000 1.0
C      1  0.4900890000000  0.4905460000000  0.4607510000000 1.0
C      1  0.4606250000000  0.4943370000000  0.4998080000000 1.0
C      1  0.4857890000000  0.4858540000000  0.5423160000000 1.0
C      1  0.5306530000000  0.4939720000000  0.5237850000000 1.0
C      1  0.5352550000000  0.4903970000000  0.4769250000000 1.0
C      1  0.5774450000000  0.4972360000000  0.4471220000000 1.0
C      1  0.4741690000000  0.5007420000000  0.4068320000000 1.0
C      1  0.4098810000000  0.4963240000000  0.4967440000000 1.0
C      1  0.4672280000000  0.5009230000000  0.5933110000000 1.0
C      1  0.5718250000000  0.4971930000000  0.5583780000000 1.0
C      1  0.5869780000000  0.5048950000000  0.4964630000000 1.0
C      1  0.5242160000000  0.5076560000000  0.4137830000000 1.0
C      1  0.4300790000000  0.5046480000000  0.4504910000000 1.0
C      1  0.4306880000000  0.5070050000000  0.5581350000000 1.0
C      1  0.5286910000000  0.5058470000000  0.5829810000000 1.0
C      1  0.4578050000000  0.4362410000000  0.4418180000000 1.0
C      1  0.4422810000000  0.4408950000000  0.5319540000000 1.0
C      1  0.5009670000000  0.4373150000000  0.5745920000000 1.0
C      1  0.5660610000000  0.4391510000000  0.5153990000000 1.0
C      1  0.5308290000000  0.4407760000000  0.4393940000000 1.0
C      1  0.4837710000000  0.5113000000000  0.5392730000000 1.0
C      1  0.5200890000000  0.5166110000000  0.5123040000000 1.0
C      1  0.5226760000000  0.5137390000000  0.4835880000000 1.0
C      1  0.4954890000000  0.5147360000000  0.4719310000000 1.0
C      1  0.4741260000000  0.5192150000000  0.4941090000000 1.0
C      1  0.5297370000000  0.4187600000000  0.5385840000000 1.0
C      1  0.5435720000000  0.4172670000000  0.4807330000000 1.0
C      1  0.4956380000000  0.4053030000000  0.4528800000000 1.0
C      1  0.4568280000000  0.4191750000000  0.4897980000000 1.0
C      1  0.4785890000000  0.4013550000000  0.5467680000000 1.0
C      1  0.4913540000000  0.5672270000000  0.5557960000000 1.0
C      1  0.5483670000000  0.5657320000000  0.5246570000000 1.0
C      1  0.5407210000000  0.5661290000000  0.4599920000000 1.0
C      1  0.4767560000000  0.5661110000000  0.4504130000000 1.0
C      1  0.4479220000000  0.5628370000000  0.5110670000000 1.0
C      1  0.5262260000000  0.4792910000000  0.4166480000000 1.0
C      1  0.4348330000000  0.4759190000000  0.4492500000000 1.0
C      1  0.4312220000000  0.4788410000000  0.5531250000000 1.0
C      1  0.5237900000000  0.4772020000000  0.5819580000000 1.0
C      1  0.5830590000000  0.4766090000000  0.5000400000000 1.0
C      1  0.5373960000000  0.5907200000000  0.5154550000000 1.0
C      1  0.5332150000000  0.5918850000000  0.4695780000000 1.0
C      1  0.4817090000000  0.5891890000000  0.4650570000000 1.0
C      1  0.4561080000000  0.5899830000000  0.5108140000000 1.0
C      1  0.4914400000000  0.5911570000000  0.5401300000000 1.0
C      1  0.4975100000000  0.6104690000000  0.4966890000000 1.0
C      1  0.4926380000000  0.5251950000000  0.5177850000000 1.0
END
