TITL C-67865-7005-3 -0.117535411660468 125000 -125.437297595553 0 0 20 (D3d) n - 1
REM
REM in /rds/project/t2_vol4/rds-t2-cs072/BORA/CARBON/from-Arr/AIRSS/Generating-Clusters/GAP-ML-2020/Higher-Symm/SD-CG/HFTN-CG
REM
REM
REM
REM
REM
REM ./C.cell (b20cbc046b6831c77cfcea5457e17084)
REM AIRSS Version 0.9.1 bugfix July 2018 build 013d7b7c2542+ Fri, 06 Jul 2018 19:26:36 +0100
REM compiler GCC version 9.3.0
REM options -cpp -mtune=generic -march=x86-64 -g -O0
REM seed 62898163 -167608162 1061131354 1519608229 1867941240 -433423595 -1194626878 1493581032 -2086488041 797640222 115608813 -642574269 -560051671 -1495596220 -1518776008 -1039041812 137665158 -1344679699 1542448629 -1361212199 -593244728 238294308 1323084101 829633787 -84496315 -624143478 -1897935038 -1449201729 264571700 -2134722513 -382330730 636981418 810716
REM
CELL 1.54180   50.00000   50.00000   50.00000   90.00000   90.00000   90.00000
LATT -1
SFAC C  
C      1  0.5247520000000  0.4676360000000  0.4886430000000 1.0
C      1  0.5430040000000  0.5062730000000  0.5110130000000 1.0
C      1  0.5184990000000  0.5412760000000  0.4886390000000 1.0
C      1  0.4761050000000  0.5376780000000  0.5113570000000 1.0
C      1  0.4578530000000  0.4990410000000  0.4889870000000 1.0
C      1  0.4823580000000  0.4640380000000  0.5113610000000 1.0
C      1  0.4694980000000  0.4731950000000  0.4889380000000 1.0
C      1  0.5105630000000  0.4612000000000  0.5112110000000 1.0
C      1  0.5413120000000  0.4906440000000  0.4885420000000 1.0
C      1  0.5313590000000  0.5321180000000  0.5110620000000 1.0
C      1  0.4902940000000  0.5441140000000  0.4887890000000 1.0
C      1  0.4595450000000  0.5146700000000  0.5114580000000 1.0
C      1  0.5029650000000  0.5294990000000  0.4692420000000 1.0
C      1  0.4786860000000  0.5184420000000  0.5308400000000 1.0
C      1  0.4756530000000  0.4915520000000  0.4694090000000 1.0
C      1  0.4978920000000  0.4758150000000  0.5307580000000 1.0
C      1  0.5221710000000  0.4868710000000  0.4691600000000 1.0
C      1  0.5252050000000  0.5137620000000  0.5305910000000 1.0
C      1  0.5006460000000  0.5026780000000  0.5403610000000 1.0
C      1  0.5002110000000  0.5026360000000  0.4596390000000 1.0
END
