TITL C-67867-7195-6 -0.0923219839401701 125000 -967.398956372277 0 0 134 (Cs) n - 1
REM
REM in /rds/project/t2_vol4/rds-t2-cs072/BORA/CARBON/from-Arr/AIRSS/Generating-Clusters/GAP-ML-2020/Higher-Symm/SD-CG/HFTN-CG
REM
REM
REM
REM
REM
REM ./C.cell (b20cbc046b6831c77cfcea5457e17084)
REM AIRSS Version 0.9.1 bugfix July 2018 build 013d7b7c2542+ Fri, 06 Jul 2018 19:26:36 +0100
REM compiler GCC version 9.3.0
REM options -cpp -mtune=generic -march=x86-64 -g -O0
REM seed -1817672744 -1127201419 1912696804 -327197875 358653886 -1784067070 1867625636 -973412847 21950024 2066855127 -1089063983 -1942369736 1379266608 -19352177 -910379788 -1930132012 -1181762417 -1796041029 -1885326166 -371636385 -963482296 -918543661 -41824593 792345669 1529486893 -714950976 -468815281 2024767519 808559260 970222406 1047171938 -1649365619 1899758172
REM
CELL 1.54180   50.00000   50.00000   50.00000   90.00000   90.00000   90.00000
LATT -1
SFAC C  
C      1  0.5122780000000  0.4129110000000  0.4813840000000 1.0
C      1  0.4390160000000  0.4355890000000  0.4813400000000 1.0
C      1  0.4113940000000  0.5071870000000  0.4812130000000 1.0
C      1  0.4501620000000  0.5733880000000  0.4812780000000 1.0
C      1  0.5260900000000  0.5843430000000  0.4814150000000 1.0
C      1  0.5818300000000  0.5316860000000  0.4812620000000 1.0
C      1  0.5754020000000  0.4555680000000  0.4809630000000 1.0
C      1  0.4275940000000  0.4573540000000  0.4981070000000 1.0
C      1  0.4212310000000  0.5296810000000  0.4979760000000 1.0
C      1  0.4738500000000  0.5797120000000  0.4981100000000 1.0
C      1  0.5457730000000  0.5697780000000  0.4982410000000 1.0
C      1  0.5823720000000  0.5071720000000  0.4979740000000 1.0
C      1  0.5569640000000  0.4399620000000  0.4979720000000 1.0
C      1  0.4881030000000  0.4172240000000  0.4982380000000 1.0
C      1  0.4735850000000  0.4136120000000  0.4551240000000 1.0
C      1  0.4155520000000  0.4663980000000  0.4549750000000 1.0
C      1  0.4207860000000  0.5448160000000  0.4549040000000 1.0
C      1  0.4854700000000  0.5894750000000  0.4550120000000 1.0
C      1  0.5604520000000  0.5664360000000  0.4551270000000 1.0
C      1  0.5898340000000  0.4939440000000  0.4546320000000 1.0
C      1  0.5509320000000  0.4258820000000  0.4548940000000 1.0
C      1  0.5038360000000  0.5319550000000  0.4678270000000 1.0
C      1  0.5270650000000  0.5153630000000  0.4679060000000 1.0
C      1  0.5275440000000  0.4894920000000  0.4599840000000 1.0
C      1  0.5100700000000  0.4704070000000  0.4679050000000 1.0
C      1  0.4816740000000  0.4733320000000  0.4678260000000 1.0
C      1  0.4674000000000  0.4973600000000  0.4681780000000 1.0
C      1  0.4772360000000  0.5233780000000  0.4681790000000 1.0
C      1  0.5232310000000  0.4752030000000  0.5990370000000 1.0
C      1  0.4947330000000  0.4660420000000  0.5989330000000 1.0
C      1  0.4697390000000  0.4825210000000  0.5987690000000 1.0
C      1  0.4670720000000  0.5123500000000  0.5987850000000 1.0
C      1  0.4888040000000  0.5329550000000  0.5987700000000 1.0
C      1  0.5184490000000  0.5287780000000  0.5989340000000 1.0
C      1  0.5337600000000  0.5030560000000  0.5990380000000 1.0
C      1  0.5386980000000  0.5587710000000  0.5248910000000 1.0
C      1  0.5699700000000  0.5059890000000  0.5251390000000 1.0
C      1  0.5484460000000  0.4490530000000  0.5251380000000 1.0
C      1  0.4900780000000  0.4301570000000  0.5248880000000 1.0
C      1  0.4390100000000  0.4640700000000  0.5247300000000 1.0
C      1  0.4334980000000  0.5250430000000  0.5246110000000 1.0
C      1  0.4779670000000  0.5671220000000  0.5247320000000 1.0
C      1  0.5508620000000  0.4806760000000  0.5255370000000 1.0
C      1  0.5160910000000  0.4488920000000  0.5235090000000 1.0
C      1  0.4702950000000  0.4556100000000  0.5234640000000 1.0
C      1  0.4461540000000  0.4953450000000  0.5232620000000 1.0
C      1  0.4626350000000  0.5389430000000  0.5232630000000 1.0
C      1  0.5070250000000  0.5527700000000  0.5234660000000 1.0
C      1  0.5458130000000  0.5275140000000  0.5235110000000 1.0
C      1  0.5871630000000  0.5217240000000  0.4548960000000 1.0
C      1  0.5713110000000  0.4449470000000  0.4546310000000 1.0
C      1  0.5013220000000  0.4100210000000  0.4551230000000 1.0
C      1  0.4298510000000  0.4423470000000  0.4550090000000 1.0
C      1  0.4108860000000  0.5186270000000  0.4549030000000 1.0
C      1  0.4588370000000  0.5808970000000  0.4549780000000 1.0
C      1  0.5372760000000  0.5820920000000  0.4551280000000 1.0
C      1  0.5776310000000  0.4850650000000  0.4298120000000 1.0
C      1  0.5364710000000  0.4300220000000  0.4301530000000 1.0
C      1  0.4677650000000  0.4276390000000  0.4305390000000 1.0
C      1  0.4231800000000  0.4797720000000  0.4305340000000 1.0
C      1  0.4361020000000  0.5471760000000  0.4305300000000 1.0
C      1  0.4968390000000  0.5791860000000  0.4305120000000 1.0
C      1  0.5595180000000  0.5512940000000  0.4306010000000 1.0
C      1  0.5233830000000  0.5736800000000  0.5726710000000 1.0
C      1  0.5716160000000  0.5268240000000  0.5726850000000 1.0
C      1  0.5665500000000  0.4600790000000  0.5734350000000 1.0
C      1  0.5098700000000  0.4236100000000  0.5727240000000 1.0
C      1  0.4457690000000  0.4441450000000  0.5725810000000 1.0
C      1  0.4221570000000  0.5071470000000  0.5724210000000 1.0
C      1  0.4567140000000  0.5648890000000  0.5725100000000 1.0
C      1  0.5347380000000  0.4867710000000  0.5501180000000 1.0
C      1  0.5091300000000  0.4683120000000  0.5449980000000 1.0
C      1  0.4814690000000  0.4735200000000  0.5436410000000 1.0
C      1  0.4667860000000  0.4974760000000  0.5432810000000 1.0
C      1  0.4766980000000  0.5236940000000  0.5432810000000 1.0
C      1  0.5035560000000  0.5319460000000  0.5436430000000 1.0
C      1  0.5277450000000  0.5175540000000  0.5449990000000 1.0
C      1  0.4891330000000  0.5326960000000  0.4085280000000 1.0
C      1  0.5187030000000  0.5286110000000  0.4081320000000 1.0
C      1  0.5340810000000  0.5029910000000  0.4076580000000 1.0
C      1  0.5235170000000  0.4750470000000  0.4076580000000 1.0
C      1  0.4950360000000  0.4660070000000  0.4081310000000 1.0
C      1  0.4701590000000  0.4825050000000  0.4085260000000 1.0
C      1  0.4675790000000  0.5121620000000  0.4086700000000 1.0
C      1  0.4458930000000  0.4680980000000  0.4175970000000 1.0
C      1  0.4411940000000  0.5221360000000  0.4176630000000 1.0
C      1  0.4804650000000  0.5595520000000  0.4175990000000 1.0
C      1  0.5341090000000  0.5520810000000  0.4176560000000 1.0
C      1  0.5621920000000  0.5054770000000  0.4168510000000 1.0
C      1  0.5429540000000  0.4545860000000  0.4168500000000 1.0
C      1  0.4910630000000  0.4382140000000  0.4176530000000 1.0
C      1  0.4368320000000  0.5459650000000  0.5724220000000 1.0
C      1  0.4962170000000  0.5775910000000  0.5725830000000 1.0
C      1  0.5578720000000  0.5505860000000  0.5727270000000 1.0
C      1  0.5762520000000  0.4857410000000  0.5734350000000 1.0
C      1  0.5358970000000  0.4323370000000  0.5726830000000 1.0
C      1  0.4687290000000  0.4291060000000  0.5726680000000 1.0
C      1  0.4245490000000  0.4798020000000  0.5725080000000 1.0
C      1  0.4222440000000  0.5292970000000  0.5527110000000 1.0
C      1  0.4741460000000  0.5786020000000  0.5528150000000 1.0
C      1  0.5448930000000  0.5683560000000  0.5530170000000 1.0
C      1  0.5815510000000  0.5069760000000  0.5534680000000 1.0
C      1  0.5564770000000  0.4406500000000  0.5534670000000 1.0
C      1  0.4883820000000  0.4188700000000  0.5530140000000 1.0
C      1  0.4285500000000  0.4579870000000  0.5528120000000 1.0
C      1  0.5680340000000  0.4596800000000  0.4298120000000 1.0
C      1  0.5106380000000  0.4219950000000  0.4305980000000 1.0
C      1  0.4451840000000  0.4425420000000  0.4305100000000 1.0
C      1  0.4208100000000  0.5067260000000  0.4305290000000 1.0
C      1  0.4557090000000  0.5658220000000  0.4305350000000 1.0
C      1  0.5236330000000  0.5754240000000  0.4305420000000 1.0
C      1  0.5735800000000  0.5281850000000  0.4301550000000 1.0
C      1  0.5105610000000  0.4680390000000  0.4990670000000 1.0
C      1  0.4812470000000  0.4720540000000  0.5009180000000 1.0
C      1  0.4667410000000  0.4970680000000  0.5017980000000 1.0
C      1  0.4769350000000  0.5240320000000  0.5017980000000 1.0
C      1  0.5043600000000  0.5331950000000  0.5009190000000 1.0
C      1  0.5290000000000  0.5168140000000  0.4990690000000 1.0
C      1  0.5272960000000  0.4895850000000  0.5079970000000 1.0
C      1  0.4909720000000  0.4389550000000  0.5899510000000 1.0
C      1  0.4461800000000  0.4685800000000  0.5897170000000 1.0
C      1  0.4415240000000  0.5220080000000  0.5895920000000 1.0
C      1  0.4803600000000  0.5589950000000  0.5897190000000 1.0
C      1  0.5335480000000  0.5515790000000  0.5899530000000 1.0
C      1  0.5610250000000  0.5051980000000  0.5900250000000 1.0
C      1  0.5422610000000  0.4555610000000  0.5900240000000 1.0
C      1  0.5667560000000  0.5570200000000  0.4813870000000 1.0
C      1  0.5858750000000  0.4832730000000  0.4809640000000 1.0
C      1  0.5403420000000  0.4219380000000  0.4812600000000 1.0
C      1  0.4637070000000  0.4193220000000  0.4814110000000 1.0
C      1  0.4140140000000  0.4777670000000  0.4812760000000 1.0
C      1  0.4287350000000  0.5530580000000  0.4812140000000 1.0
C      1  0.4968130000000  0.5884780000000  0.4813440000000 1.0
C      1  0.5130620000000  0.4949650000000  0.5329220000000 1.0
END
