TITL C-67865-7005-2 0.134815499916257 125000 -975.584103565529 0 0 139 (C1) n - 1
REM
REM in /rds/project/t2_vol4/rds-t2-cs072/BORA/CARBON/from-Arr/AIRSS/Generating-Clusters/GAP-ML-2020/Higher-Symm/SD-CG/HFTN-CG
REM
REM
REM
REM
REM
REM ./C.cell (b20cbc046b6831c77cfcea5457e17084)
REM AIRSS Version 0.9.1 bugfix July 2018 build 013d7b7c2542+ Fri, 06 Jul 2018 19:26:36 +0100
REM compiler GCC version 9.3.0
REM options -cpp -mtune=generic -march=x86-64 -g -O0
REM seed 1888559471 27159948 -2003961798 -1426490646 908298991 989183982 -1164123527 291607869 1779355548 -1384814358 -896467567 1432415235 -127439042 -866194185 1250581200 -63175184 1860879272 -249343234 1167207413 -1436574140 -787398046 -1633747843 1664594795 1420525530 1782387676 -1601563026 1845030145 958583362 -15501063 -1299267152 1121916532 253619385 1674077000
REM
CELL 1.54180   50.00000   50.00000   50.00000   90.00000   90.00000   90.00000
LATT -1
SFAC C  
C      1  0.4652360000000  0.5652490000000  0.4319440000000 1.0
C      1  0.5347630000000  0.4352910000000  0.5686910000000 1.0
C      1  0.5851870000000  0.4823520000000  0.5334050000000 1.0
C      1  0.4150710000000  0.5179710000000  0.4675630000000 1.0
C      1  0.4618450000000  0.5113780000000  0.5118530000000 1.0
C      1  0.5423840000000  0.4861280000000  0.4886490000000 1.0
C      1  0.5223990000000  0.5140600000000  0.4501130000000 1.0
C      1  0.4755280000000  0.4832490000000  0.5521250000000 1.0
C      1  0.5339860000000  0.4181630000000  0.5463680000000 1.0
C      1  0.4660200000000  0.5821510000000  0.4543850000000 1.0
C      1  0.5438570000000  0.4928920000000  0.4589450000000 1.0
C      1  0.4554050000000  0.5060340000000  0.5422390000000 1.0
C      1  0.5029350000000  0.5944720000000  0.5200150000000 1.0
C      1  0.4968910000000  0.4065260000000  0.4803030000000 1.0
C      1  0.4807910000000  0.5303640000000  0.4734000000000 1.0
C      1  0.5187140000000  0.4700370000000  0.5267730000000 1.0
C      1  0.5308510000000  0.5970130000000  0.5233020000000 1.0
C      1  0.4690150000000  0.4032930000000  0.4768610000000 1.0
C      1  0.5683970000000  0.4818760000000  0.4065590000000 1.0
C      1  0.4352240000000  0.5207390000000  0.5931470000000 1.0
C      1  0.4959950000000  0.4694040000000  0.3859880000000 1.0
C      1  0.5065330000000  0.5341720000000  0.6170400000000 1.0
C      1  0.4978490000000  0.4390420000000  0.4756360000000 1.0
C      1  0.5013710000000  0.5628680000000  0.5238670000000 1.0
C      1  0.4793980000000  0.5967280000000  0.5418850000000 1.0
C      1  0.5207420000000  0.4039170000000  0.4589120000000 1.0
C      1  0.5089250000000  0.5275260000000  0.4730140000000 1.0
C      1  0.4891890000000  0.4738410000000  0.5262050000000 1.0
C      1  0.5268490000000  0.5430460000000  0.4877710000000 1.0
C      1  0.4719380000000  0.4549640000000  0.5129990000000 1.0
C      1  0.5794100000000  0.4419990000000  0.4699880000000 1.0
C      1  0.4210340000000  0.5587840000000  0.5307740000000 1.0
C      1  0.5413150000000  0.5641110000000  0.4714800000000 1.0
C      1  0.4584580000000  0.4347510000000  0.5293540000000 1.0
C      1  0.5234270000000  0.4420220000000  0.4874330000000 1.0
C      1  0.4753380000000  0.5594460000000  0.5122530000000 1.0
C      1  0.5515210000000  0.5807460000000  0.5175750000000 1.0
C      1  0.4477090000000  0.4188620000000  0.4824250000000 1.0
C      1  0.4087720000000  0.5097350000000  0.5223300000000 1.0
C      1  0.5916550000000  0.4905200000000  0.4783360000000 1.0
C      1  0.5679430000000  0.5334780000000  0.5409220000000 1.0
C      1  0.4311330000000  0.4665600000000  0.4586310000000 1.0
C      1  0.5756290000000  0.4987490000000  0.4537450000000 1.0
C      1  0.4245430000000  0.5013850000000  0.5469310000000 1.0
C      1  0.4536970000000  0.5007660000000  0.4366220000000 1.0
C      1  0.5472940000000  0.4993300000000  0.5638150000000 1.0
C      1  0.4571910000000  0.5224750000000  0.4178850000000 1.0
C      1  0.5435300000000  0.4779720000000  0.5828200000000 1.0
C      1  0.5441750000000  0.4427410000000  0.4375210000000 1.0
C      1  0.4577890000000  0.5562100000000  0.5614970000000 1.0
C      1  0.4099390000000  0.4634250000000  0.5208550000000 1.0
C      1  0.5899010000000  0.5367640000000  0.4796690000000 1.0
C      1  0.4919160000000  0.5897850000000  0.4666480000000 1.0
C      1  0.5082120000000  0.4101740000000  0.5339800000000 1.0
C      1  0.4099350000000  0.5374280000000  0.5140450000000 1.0
C      1  0.5908520000000  0.4630010000000  0.4867820000000 1.0
C      1  0.4667910000000  0.5048110000000  0.4653750000000 1.0
C      1  0.5320820000000  0.4962110000000  0.5348760000000 1.0
C      1  0.5626880000000  0.5753960000000  0.4909560000000 1.0
C      1  0.4369800000000  0.4236850000000  0.5094740000000 1.0
C      1  0.5162080000000  0.5773500000000  0.4557620000000 1.0
C      1  0.4839250000000  0.4222700000000  0.5449500000000 1.0
C      1  0.5867370000000  0.5633590000000  0.4872130000000 1.0
C      1  0.4135290000000  0.4366790000000  0.5134530000000 1.0
C      1  0.5585140000000  0.5251640000000  0.5667610000000 1.0
C      1  0.4416360000000  0.4752580000000  0.4334130000000 1.0
C      1  0.4106330000000  0.5398520000000  0.4861990000000 1.0
C      1  0.5894520000000  0.4607460000000  0.5145650000000 1.0
C      1  0.4948920000000  0.4987330000000  0.5671350000000 1.0
C      1  0.5033820000000  0.4974540000000  0.4339450000000 1.0
C      1  0.5778640000000  0.4410680000000  0.5329620000000 1.0
C      1  0.4221490000000  0.5594140000000  0.4676610000000 1.0
C      1  0.5100130000000  0.5171840000000  0.5280470000000 1.0
C      1  0.4837400000000  0.4856800000000  0.4807920000000 1.0
C      1  0.5413180000000  0.4814390000000  0.4073030000000 1.0
C      1  0.4622760000000  0.5220070000000  0.5909870000000 1.0
C      1  0.5106160000000  0.4457320000000  0.5803770000000 1.0
C      1  0.4894990000000  0.5552850000000  0.4199550000000 1.0
C      1  0.5471310000000  0.5541220000000  0.5332400000000 1.0
C      1  0.4516720000000  0.4456520000000  0.4664240000000 1.0
C      1  0.4740120000000  0.4602980000000  0.3961610000000 1.0
C      1  0.5278060000000  0.5425350000000  0.6048440000000 1.0
C      1  0.4678310000000  0.5282180000000  0.5608540000000 1.0
C      1  0.5344380000000  0.4705690000000  0.4351490000000 1.0
C      1  0.4789100000000  0.5753270000000  0.5603190000000 1.0
C      1  0.5222200000000  0.4248010000000  0.4404430000000 1.0
C      1  0.5766730000000  0.5293030000000  0.4554460000000 1.0
C      1  0.4231160000000  0.4702420000000  0.5452050000000 1.0
C      1  0.4879050000000  0.6011560000000  0.4936020000000 1.0
C      1  0.5120930000000  0.3996500000000  0.5067470000000 1.0
C      1  0.5449640000000  0.4005330000000  0.4714770000000 1.0
C      1  0.4551970000000  0.6005520000000  0.5293910000000 1.0
C      1  0.5223140000000  0.5432790000000  0.5158610000000 1.0
C      1  0.4754080000000  0.4566530000000  0.4846230000000 1.0
C      1  0.4677120000000  0.4411290000000  0.4406740000000 1.0
C      1  0.5321340000000  0.5597690000000  0.5591040000000 1.0
C      1  0.4963700000000  0.5260510000000  0.5536950000000 1.0
C      1  0.5065280000000  0.4693620000000  0.4367380000000 1.0
C      1  0.4410180000000  0.5807600000000  0.4693190000000 1.0
C      1  0.5588430000000  0.4199120000000  0.5314230000000 1.0
C      1  0.4655390000000  0.4588370000000  0.5668890000000 1.0
C      1  0.5335390000000  0.5391240000000  0.4342150000000 1.0
C      1  0.5027620000000  0.5084730000000  0.4072000000000 1.0
C      1  0.4980910000000  0.4926230000000  0.5944480000000 1.0
C      1  0.4839130000000  0.5294300000000  0.4085000000000 1.0
C      1  0.5167490000000  0.4713900000000  0.5922910000000 1.0
C      1  0.5032540000000  0.5582370000000  0.5543340000000 1.0
C      1  0.4971560000000  0.4426070000000  0.4451820000000 1.0
C      1  0.5925420000000  0.5129930000000  0.4959280000000 1.0
C      1  0.4073210000000  0.4873170000000  0.5046040000000 1.0
C      1  0.4304410000000  0.5499390000000  0.5558800000000 1.0
C      1  0.5710200000000  0.4501810000000  0.4444160000000 1.0
C      1  0.5294900000000  0.4638690000000  0.5005660000000 1.0
C      1  0.4687780000000  0.5376110000000  0.4989380000000 1.0
C      1  0.4213910000000  0.4893870000000  0.4775990000000 1.0
C      1  0.5778620000000  0.5106920000000  0.5224770000000 1.0
C      1  0.4620040000000  0.6079120000000  0.5016850000000 1.0
C      1  0.5380590000000  0.3929400000000  0.4988880000000 1.0
C      1  0.4437080000000  0.4517230000000  0.5512240000000 1.0
C      1  0.5555520000000  0.5469140000000  0.4493610000000 1.0
C      1  0.5611030000000  0.4075410000000  0.5068860000000 1.0
C      1  0.4388210000000  0.5935880000000  0.4937420000000 1.0
C      1  0.5556860000000  0.4550830000000  0.5718860000000 1.0
C      1  0.4446120000000  0.5450960000000  0.4288750000000 1.0
C      1  0.4858620000000  0.4386790000000  0.5682670000000 1.0
C      1  0.5142500000000  0.5608220000000  0.4324490000000 1.0
C      1  0.4247560000000  0.5391420000000  0.4480660000000 1.0
C      1  0.5757380000000  0.4610730000000  0.5528530000000 1.0
C      1  0.5795530000000  0.4770400000000  0.4316310000000 1.0
C      1  0.4223520000000  0.5238350000000  0.5688660000000 1.0
C      1  0.5671880000000  0.4177110000000  0.4800250000000 1.0
C      1  0.4325520000000  0.5837180000000  0.5208050000000 1.0
C      1  0.5511040000000  0.5001550000000  0.5126200000000 1.0
C      1  0.4474190000000  0.5012310000000  0.4865110000000 1.0
C      1  0.4871050000000  0.5156430000000  0.6069690000000 1.0
C      1  0.5164100000000  0.4884600000000  0.3918510000000 1.0
C      1  0.4574260000000  0.4555750000000  0.4183540000000 1.0
C      1  0.5427380000000  0.5455320000000  0.5814620000000 1.0
C      1  0.4887690000000  0.4982020000000  0.5092530000000 1.0
END
