TITL C-67884-7055-6 0.791598446729143 125000 -134.992945186483 0 0 21 (C1) n - 1
REM
REM in /rds/project/t2_vol4/rds-t2-cs072/BORA/CARBON/from-Arr/AIRSS/Generating-Clusters/GAP-ML-2020/Higher-Symm/SD-CG/HFTN-CG
REM
REM
REM
REM
REM
REM ./C.cell (b20cbc046b6831c77cfcea5457e17084)
REM AIRSS Version 0.9.1 bugfix July 2018 build 013d7b7c2542+ Fri, 06 Jul 2018 19:26:36 +0100
REM compiler GCC version 9.3.0
REM options -cpp -mtune=generic -march=x86-64 -g -O0
REM seed -408675728 66637724 -399264751 -266548126 828631277 -941630595 1472853766 1237832947 893481062 1693167810 1672261357 -1697556159 -1596820310 1871555160 -835901190 946920983 745827617 -194887864 -2075495050 -843028551 -463651408 -327124314 -2137414644 225661979 1826081882 166826184 699898642 180049663 356214391 1704197978 -135755001 652742641 -2001281385
REM
CELL 1.54180   50.00000   50.00000   50.00000   90.00000   90.00000   90.00000
LATT -1
SFAC C  
C      1  0.5214620000000  0.4630090000000  0.4894950000000 1.0
C      1  0.4746510000000  0.5227710000000  0.5230330000000 1.0
C      1  0.4635830000000  0.5010970000000  0.4615350000000 1.0
C      1  0.4521230000000  0.5222730000000  0.5078260000000 1.0
C      1  0.4741320000000  0.4761750000000  0.4989540000000 1.0
C      1  0.5052800000000  0.4616400000000  0.4423750000000 1.0
C      1  0.4987030000000  0.4643750000000  0.5073900000000 1.0
C      1  0.5190530000000  0.5180890000000  0.5437090000000 1.0
C      1  0.5155020000000  0.4695060000000  0.5301990000000 1.0
C      1  0.4639240000000  0.4984070000000  0.5140180000000 1.0
C      1  0.4658030000000  0.4774710000000  0.4715880000000 1.0
C      1  0.5175410000000  0.5388990000000  0.5079660000000 1.0
C      1  0.4993380000000  0.5339280000000  0.5307170000000 1.0
C      1  0.5063020000000  0.5437750000000  0.4836980000000 1.0
C      1  0.5471710000000  0.4956940000000  0.5217410000000 1.0
C      1  0.5202130000000  0.4624950000000  0.4628960000000 1.0
C      1  0.4655920000000  0.5266120000000  0.4571600000000 1.0
C      1  0.4858750000000  0.5385290000000  0.4697720000000 1.0
C      1  0.5386630000000  0.5230720000000  0.5208220000000 1.0
C      1  0.5394780000000  0.4709850000000  0.5105600000000 1.0
C      1  0.5256090000000  0.4911980000000  0.5445460000000 1.0
END
