TITL C-67868-7133-8 -0.0289636428709064 125000 -197.953174826769 0 0 30 (C1) n - 1
REM
REM in /rds/project/t2_vol4/rds-t2-cs072/BORA/CARBON/from-Arr/AIRSS/Generating-Clusters/GAP-ML-2020/Higher-Symm/SD-CG/HFTN-CG
REM
REM
REM
REM
REM
REM ./C.cell (b20cbc046b6831c77cfcea5457e17084)
REM AIRSS Version 0.9.1 bugfix July 2018 build 013d7b7c2542+ Fri, 06 Jul 2018 19:26:36 +0100
REM compiler GCC version 9.3.0
REM options -cpp -mtune=generic -march=x86-64 -g -O0
REM seed 1161890673 342529056 -471195494 -978650762 -1556255690 -1777894282 -1349965456 82462148 1193670442 -1895558239 775294588 -1562336343 -1174784503 -1130466660 497536271 -810198332 1565521243 607522432 -1407016128 -524146768 -1153159723 -89796645 -1534553990 1542152404 -484061452 759151614 1220459243 730494073 753072675 1380690849 1937326461 803980791 -890278875
REM
CELL 1.54180   50.00000   50.00000   50.00000   90.00000   90.00000   90.00000
LATT -1
SFAC C  
C      1  0.4778660000000  0.5194680000000  0.5330380000000 1.0
C      1  0.4691180000000  0.4914300000000  0.5356640000000 1.0
C      1  0.4840950000000  0.4677640000000  0.5323950000000 1.0
C      1  0.5122870000000  0.4667270000000  0.5301110000000 1.0
C      1  0.5316430000000  0.4880990000000  0.5325080000000 1.0
C      1  0.5277910000000  0.5165850000000  0.5349810000000 1.0
C      1  0.5029670000000  0.5311020000000  0.5335380000000 1.0
C      1  0.4807830000000  0.4429680000000  0.4882260000000 1.0
C      1  0.5353790000000  0.4505910000000  0.4886710000000 1.0
C      1  0.5642750000000  0.4965130000000  0.4953720000000 1.0
C      1  0.5461240000000  0.5474250000000  0.5005160000000 1.0
C      1  0.4944510000000  0.5593150000000  0.4935400000000 1.0
C      1  0.4569700000000  0.5304050000000  0.4872170000000 1.0
C      1  0.4463680000000  0.4851930000000  0.4920120000000 1.0
C      1  0.5542520000000  0.4699940000000  0.4921420000000 1.0
C      1  0.5610440000000  0.5234700000000  0.4992500000000 1.0
C      1  0.5225770000000  0.5612070000000  0.4992090000000 1.0
C      1  0.4743000000000  0.5501910000000  0.4793340000000 1.0
C      1  0.4507450000000  0.5061060000000  0.4724550000000 1.0
C      1  0.4575170000000  0.4586560000000  0.4925690000000 1.0
C      1  0.5081770000000  0.4402710000000  0.4878070000000 1.0
C      1  0.4556980000000  0.5244720000000  0.5149330000000 1.0
C      1  0.4471790000000  0.4971370000000  0.5176440000000 1.0
C      1  0.4695960000000  0.4485630000000  0.5152360000000 1.0
C      1  0.5207970000000  0.4451190000000  0.5126070000000 1.0
C      1  0.5563050000000  0.4812630000000  0.5183240000000 1.0
C      1  0.5506570000000  0.5321340000000  0.5247300000000 1.0
C      1  0.5037610000000  0.5573700000000  0.5204780000000 1.0
C      1  0.4613250000000  0.4928620000000  0.4234030000000 1.0
C      1  0.4553010000000  0.5018490000000  0.4462060000000 1.0
END
