TITL C-67870-8207-9 4.95642197781614 125000 -583.934964746444 0 0 86 (C1) n - 1
REM
REM in /rds/project/t2_vol4/rds-t2-cs072/BORA/CARBON/from-Arr/AIRSS/Generating-Clusters/GAP-ML-2020/Higher-Symm/SD-CG/HFTN-CG
REM
REM
REM
REM
REM
REM ./C.cell (b20cbc046b6831c77cfcea5457e17084)
REM AIRSS Version 0.9.1 bugfix July 2018 build 013d7b7c2542+ Fri, 06 Jul 2018 19:26:36 +0100
REM compiler GCC version 9.3.0
REM options -cpp -mtune=generic -march=x86-64 -g -O0
REM seed -199945181 761918395 1264758198 1479967175 1966651441 -678686295 859246318 229111153 -911828988 -1074608818 -1674523972 -339992947 877289518 -808156827 -692509424 -1338676934 1823247370 -1130040524 -689882907 -180516700 1695376349 645442433 -503500261 181997678 399623751 870457726 -213320970 679668986 -949686463 -611709125 -2011774099 1416754772 1839326929
REM
CELL 1.54180   50.00000   50.00000   50.00000   90.00000   90.00000   90.00000
LATT -1
SFAC C  
C      1  0.4322170000000  0.4712980000000  0.5299500000000 1.0
C      1  0.4904050000000  0.4656820000000  0.5654910000000 1.0
C      1  0.5579350000000  0.4763890000000  0.5489850000000 1.0
C      1  0.5789930000000  0.4789750000000  0.4911790000000 1.0
C      1  0.5449960000000  0.4798390000000  0.4377820000000 1.0
C      1  0.4630620000000  0.4780270000000  0.4276490000000 1.0
C      1  0.4263080000000  0.4810910000000  0.4750500000000 1.0
C      1  0.5239320000000  0.5567420000000  0.4469520000000 1.0
C      1  0.4771980000000  0.5553850000000  0.4501960000000 1.0
C      1  0.4534000000000  0.5577520000000  0.4907650000000 1.0
C      1  0.4598520000000  0.5486750000000  0.5368590000000 1.0
C      1  0.5005580000000  0.5516430000000  0.5594330000000 1.0
C      1  0.5441880000000  0.5551800000000  0.5364930000000 1.0
C      1  0.5540040000000  0.5582200000000  0.4879430000000 1.0
C      1  0.5172870000000  0.5029650000000  0.4752020000000 1.0
C      1  0.4935750000000  0.4844520000000  0.4667430000000 1.0
C      1  0.4740640000000  0.5011080000000  0.4847050000000 1.0
C      1  0.4713140000000  0.4957190000000  0.5131570000000 1.0
C      1  0.4931880000000  0.4976130000000  0.5302440000000 1.0
C      1  0.5200520000000  0.4996730000000  0.5244990000000 1.0
C      1  0.5319250000000  0.4999300000000  0.4996970000000 1.0
C      1  0.5398540000000  0.4434900000000  0.5135230000000 1.0
C      1  0.5415460000000  0.4444140000000  0.4843960000000 1.0
C      1  0.5202350000000  0.4446360000000  0.4652450000000 1.0
C      1  0.4677480000000  0.4444480000000  0.4680380000000 1.0
C      1  0.4535240000000  0.4413580000000  0.4929730000000 1.0
C      1  0.4657230000000  0.4373430000000  0.5191450000000 1.0
C      1  0.5164630000000  0.4394870000000  0.5309960000000 1.0
C      1  0.5000370000000  0.5457930000000  0.4373030000000 1.0
C      1  0.4531370000000  0.5505260000000  0.4626120000000 1.0
C      1  0.4435310000000  0.5450330000000  0.5151780000000 1.0
C      1  0.4750710000000  0.5410260000000  0.5579130000000 1.0
C      1  0.5270500000000  0.5459490000000  0.5558540000000 1.0
C      1  0.5580330000000  0.5491500000000  0.5136670000000 1.0
C      1  0.5463810000000  0.5514610000000  0.4624120000000 1.0
C      1  0.5648760000000  0.4567740000000  0.4749580000000 1.0
C      1  0.5255510000000  0.4568430000000  0.4407400000000 1.0
C      1  0.4539530000000  0.4570660000000  0.4460690000000 1.0
C      1  0.4295880000000  0.4555480000000  0.4925010000000 1.0
C      1  0.4515620000000  0.4509600000000  0.5399350000000 1.0
C      1  0.5152010000000  0.4525340000000  0.5569570000000 1.0
C      1  0.5610030000000  0.4557720000000  0.5272110000000 1.0
C      1  0.5911370000000  0.5125200000000  0.5348970000000 1.0
C      1  0.5839520000000  0.5152550000000  0.4542760000000 1.0
C      1  0.5217490000000  0.5110100000000  0.4051110000000 1.0
C      1  0.4280730000000  0.5165620000000  0.4305790000000 1.0
C      1  0.4014930000000  0.5124180000000  0.5077010000000 1.0
C      1  0.4528870000000  0.5004370000000  0.5868200000000 1.0
C      1  0.5353510000000  0.5076990000000  0.5928860000000 1.0
C      1  0.4628130000000  0.4569660000000  0.5657110000000 1.0
C      1  0.5373890000000  0.4665300000000  0.5688820000000 1.0
C      1  0.5856540000000  0.4678680000000  0.5173870000000 1.0
C      1  0.5696300000000  0.4705360000000  0.4502660000000 1.0
C      1  0.5092820000000  0.4696410000000  0.4213630000000 1.0
C      1  0.4283590000000  0.4703890000000  0.4478010000000 1.0
C      1  0.4109360000000  0.4647610000000  0.5120240000000 1.0
C      1  0.4367450000000  0.4909540000000  0.4277070000000 1.0
C      1  0.4023580000000  0.4879930000000  0.4961570000000 1.0
C      1  0.4494290000000  0.4754590000000  0.5820150000000 1.0
C      1  0.5336070000000  0.4819370000000  0.5919280000000 1.0
C      1  0.5872810000000  0.4863040000000  0.5402520000000 1.0
C      1  0.5879710000000  0.4899270000000  0.4627180000000 1.0
C      1  0.5310000000000  0.4855460000000  0.4099240000000 1.0
C      1  0.4439200000000  0.4967070000000  0.5232900000000 1.0
C      1  0.4885710000000  0.4937170000000  0.5586700000000 1.0
C      1  0.5392940000000  0.5001410000000  0.5463690000000 1.0
C      1  0.5605740000000  0.5008180000000  0.5015360000000 1.0
C      1  0.5364760000000  0.5059110000000  0.4519060000000 1.0
C      1  0.4896890000000  0.4893030000000  0.4349620000000 1.0
C      1  0.4453790000000  0.5045270000000  0.4736340000000 1.0
C      1  0.4715750000000  0.5129430000000  0.5705350000000 1.0
C      1  0.5360110000000  0.5190780000000  0.5667580000000 1.0
C      1  0.5737210000000  0.5224290000000  0.5150580000000 1.0
C      1  0.5578400000000  0.5251770000000  0.4524890000000 1.0
C      1  0.5013000000000  0.5181400000000  0.4230350000000 1.0
C      1  0.4385470000000  0.5259110000000  0.4548670000000 1.0
C      1  0.4271160000000  0.5198240000000  0.5166110000000 1.0
C      1  0.4970440000000  0.5462300000000  0.4984860000000 1.0
C      1  0.4892600000000  0.5935420000000  0.5004550000000 1.0
C      1  0.4952440000000  0.3984640000000  0.5126370000000 1.0
C      1  0.4925050000000  0.4248430000000  0.5214440000000 1.0
C      1  0.4956190000000  0.5233730000000  0.4855600000000 1.0
C      1  0.4972360000000  0.3739580000000  0.5065640000000 1.0
C      1  0.5024090000000  0.6143690000000  0.5045310000000 1.0
C      1  0.4803490000000  0.5683830000000  0.4970040000000 1.0
C      1  0.4940790000000  0.4539180000000  0.4699090000000 1.0
END
