TITL C-67880-7085-6 -0.10362756506735 125000 -479.20333804052 0 0 70 (C1) n - 1
REM
REM in /rds/project/t2_vol4/rds-t2-cs072/BORA/CARBON/from-Arr/AIRSS/Generating-Clusters/GAP-ML-2020/Higher-Symm/SD-CG/HFTN-CG
REM
REM
REM
REM
REM
REM ./C.cell (b20cbc046b6831c77cfcea5457e17084)
REM AIRSS Version 0.9.1 bugfix July 2018 build 013d7b7c2542+ Fri, 06 Jul 2018 19:26:36 +0100
REM compiler GCC version 9.3.0
REM options -cpp -mtune=generic -march=x86-64 -g -O0
REM seed 27856200 1725955922 -2055235156 -671470287 430590850 -225616711 -771772641 1688943596 -2116420467 -412899726 965390812 1248839358 2003923331 -845196937 -958202170 -1629641759 1541755477 1208650670 -980447312 837607328 -1891345444 532058237 -337815168 722257244 539914332 -1370631015 1112212013 -1973724567 -1941899041 -25978566 -1247837235 -577025449 1172097920
REM
CELL 1.54180   50.00000   50.00000   50.00000   90.00000   90.00000   90.00000
LATT -1
SFAC C  
C      1  0.5270830000000  0.4839090000000  0.5139740000000 1.0
C      1  0.4771390000000  0.4835900000000  0.5138760000000 1.0
C      1  0.4986960000000  0.4859260000000  0.4739690000000 1.0
C      1  0.5289650000000  0.5123300000000  0.5146850000000 1.0
C      1  0.4610930000000  0.5333910000000  0.5263680000000 1.0
C      1  0.4960470000000  0.5123700000000  0.4846290000000 1.0
C      1  0.4916570000000  0.5532170000000  0.4520410000000 1.0
C      1  0.5447940000000  0.5521770000000  0.5133620000000 1.0
C      1  0.4740550000000  0.5587520000000  0.5155990000000 1.0
C      1  0.4955230000000  0.4463410000000  0.4543540000000 1.0
C      1  0.5431250000000  0.4427900000000  0.5150870000000 1.0
C      1  0.4667120000000  0.4425620000000  0.5237170000000 1.0
C      1  0.4955760000000  0.4447760000000  0.5314840000000 1.0
C      1  0.4758820000000  0.4457860000000  0.4756230000000 1.0
C      1  0.5348660000000  0.4464640000000  0.4867850000000 1.0
C      1  0.5030670000000  0.5539680000000  0.5172930000000 1.0
C      1  0.4660710000000  0.5553200000000  0.4648350000000 1.0
C      1  0.5218250000000  0.5526730000000  0.4934350000000 1.0
C      1  0.5469790000000  0.5238160000000  0.5627310000000 1.0
C      1  0.4314670000000  0.5284290000000  0.5187850000000 1.0
C      1  0.5352110000000  0.5279190000000  0.4305350000000 1.0
C      1  0.5407850000000  0.4772200000000  0.5623170000000 1.0
C      1  0.4249710000000  0.4806690000000  0.5044980000000 1.0
C      1  0.5377830000000  0.4815660000000  0.4346200000000 1.0
C      1  0.4360760000000  0.4610860000000  0.4872280000000 1.0
C      1  0.5439200000000  0.4586630000000  0.4487890000000 1.0
C      1  0.5248840000000  0.4543300000000  0.5597600000000 1.0
C      1  0.4327370000000  0.5491760000000  0.4966670000000 1.0
C      1  0.5399240000000  0.5446950000000  0.4523240000000 1.0
C      1  0.5263330000000  0.5422350000000  0.5588750000000 1.0
C      1  0.4569990000000  0.4403620000000  0.4965920000000 1.0
C      1  0.5228210000000  0.4411350000000  0.4599630000000 1.0
C      1  0.5246650000000  0.4371910000000  0.5351880000000 1.0
C      1  0.4581240000000  0.5631420000000  0.4920000000000 1.0
C      1  0.5179840000000  0.5584540000000  0.4641230000000 1.0
C      1  0.5260140000000  0.5574910000000  0.5353320000000 1.0
C      1  0.4584260000000  0.4691020000000  0.5362290000000 1.0
C      1  0.4910400000000  0.4744090000000  0.4419410000000 1.0
C      1  0.5558780000000  0.4705860000000  0.5184380000000 1.0
C      1  0.4566290000000  0.5200520000000  0.5527890000000 1.0
C      1  0.4876130000000  0.5299510000000  0.4337820000000 1.0
C      1  0.5579210000000  0.5245060000000  0.5161160000000 1.0
C      1  0.4965730000000  0.4592610000000  0.5578950000000 1.0
C      1  0.4519360000000  0.4734790000000  0.4656550000000 1.0
C      1  0.5567910000000  0.4629360000000  0.4742380000000 1.0
C      1  0.5048400000000  0.5166960000000  0.5587920000000 1.0
C      1  0.4289120000000  0.5284920000000  0.4767960000000 1.0
C      1  0.5498780000000  0.5193940000000  0.4696730000000 1.0
C      1  0.5209140000000  0.4737970000000  0.4885440000000 1.0
C      1  0.5021970000000  0.4729950000000  0.5223740000000 1.0
C      1  0.4747530000000  0.4741300000000  0.4851940000000 1.0
C      1  0.5229940000000  0.5231920000000  0.4866910000000 1.0
C      1  0.5056220000000  0.5232340000000  0.5286830000000 1.0
C      1  0.4491010000000  0.5325070000000  0.4566100000000 1.0
C      1  0.5111740000000  0.4876580000000  0.4262260000000 1.0
C      1  0.5614980000000  0.4840360000000  0.5434590000000 1.0
C      1  0.4329500000000  0.4819810000000  0.5326950000000 1.0
C      1  0.5100200000000  0.5165690000000  0.4237430000000 1.0
C      1  0.5634230000000  0.5132440000000  0.5422120000000 1.0
C      1  0.4322380000000  0.5091350000000  0.5427810000000 1.0
C      1  0.4634820000000  0.5144220000000  0.4394530000000 1.0
C      1  0.5669230000000  0.5100870000000  0.4914210000000 1.0
C      1  0.4773230000000  0.5053430000000  0.5646370000000 1.0
C      1  0.4638020000000  0.4855630000000  0.4417360000000 1.0
C      1  0.5674870000000  0.4813550000000  0.4931390000000 1.0
C      1  0.4749550000000  0.4770300000000  0.5603030000000 1.0
C      1  0.4223880000000  0.5085650000000  0.4976890000000 1.0
C      1  0.5286010000000  0.5019830000000  0.5693260000000 1.0
C      1  0.5497700000000  0.5060310000000  0.4428280000000 1.0
C      1  0.4826120000000  0.5123010000000  0.5117770000000 1.0
END
