TITL C-67863-7010-7 -0.0298359445224464 125000 -75.750563454824 0 0 12 (D5h) n - 1
REM
REM in /rds/project/t2_vol4/rds-t2-cs072/BORA/CARBON/from-Arr/AIRSS/Generating-Clusters/GAP-ML-2020/Higher-Symm/SD-CG/HFTN-CG
REM
REM
REM
REM
REM
REM ./C.cell (b20cbc046b6831c77cfcea5457e17084)
REM AIRSS Version 0.9.1 bugfix July 2018 build 013d7b7c2542+ Fri, 06 Jul 2018 19:26:36 +0100
REM compiler GCC version 9.3.0
REM options -cpp -mtune=generic -march=x86-64 -g -O0
REM seed 1090706846 -1255052758 113259458 -401277348 -1203390155 -2123090827 -876011980 1287477369 1476997013 109308957 -1475776657 1763324236 -581655490 -1772759153 -643745772 -1939452467 1481433643 -1878117382 -1376959648 860373653 -1100577150 308648303 798214067 -1026571684 571107613 601132164 -441467585 -383304425 1323482240 713701087 -72499773 -1973682014 2060309766
REM
CELL 1.54180   50.00000   50.00000   50.00000   90.00000   90.00000   90.00000
LATT -1
SFAC C  
C      1  0.5162870000000  0.4837360000000  0.4805560000000 1.0
C      1  0.5201700000000  0.4837410000000  0.5108950000000 1.0
C      1  0.4925170000000  0.4837430000000  0.5239630000000 1.0
C      1  0.4715430000000  0.4837390000000  0.5017010000000 1.0
C      1  0.4862340000000  0.4837350000000  0.4748740000000 1.0
C      1  0.4862330000000  0.5134980000000  0.4748690000000 1.0
C      1  0.5162870000000  0.5134990000000  0.4805510000000 1.0
C      1  0.5201700000000  0.5135040000000  0.5108900000000 1.0
C      1  0.4925160000000  0.5135060000000  0.5239580000000 1.0
C      1  0.4715420000000  0.5135020000000  0.5016960000000 1.0
C      1  0.4973500000000  0.4691560000000  0.4984000000000 1.0
C      1  0.4973500000000  0.5280850000000  0.4983900000000 1.0
END
