TITL C-67865-7005-6 159.472879005092 125000 -675.092373396576 0 0 102 (C1) n - 1
REM
REM in /rds/project/t2_vol4/rds-t2-cs072/BORA/CARBON/from-Arr/AIRSS/Generating-Clusters/GAP-ML-2020/Higher-Symm/SD-CG/HFTN-CG
REM
REM
REM
REM
REM
REM ./C.cell (b20cbc046b6831c77cfcea5457e17084)
REM AIRSS Version 0.9.1 bugfix July 2018 build 013d7b7c2542+ Fri, 06 Jul 2018 19:26:36 +0100
REM compiler GCC version 9.3.0
REM options -cpp -mtune=generic -march=x86-64 -g -O0
REM seed -1657293264 554460223 386036544 -2029699491 1192069539 1578147100 -1316329017 832551361 -291401138 -299416280 1649721897 -398161590 492585553 -1700138977 890076574 193600220 -1406402869 837024318 -1520809600 2113519871 -435102956 1326896303 -10023844 -1066996471 -2029245194 -552869107 587856661 -1643776660 -68697749 1342101101 697967962 -711955435 -877020845
REM
CELL 1.54180   50.00000   50.00000   50.00000   90.00000   90.00000   90.00000
LATT -1
SFAC C  
C      1  0.4482760000000  0.5689430000000  0.5461220000000 1.0
C      1  0.4502660000000  0.5576530000000  0.4604900000000 1.0
C      1  0.4541560000000  0.5305730000000  0.4204270000000 1.0
C      1  0.4484720000000  0.4471100000000  0.4515550000000 1.0
C      1  0.4492090000000  0.4308070000000  0.5066370000000 1.0
C      1  0.4500040000000  0.4600140000000  0.5556820000000 1.0
C      1  0.4535120000000  0.5014720000000  0.5837500000000 1.0
C      1  0.4410570000000  0.4545790000000  0.5284370000000 1.0
C      1  0.4429230000000  0.4908820000000  0.5574910000000 1.0
C      1  0.4353020000000  0.5466790000000  0.5359670000000 1.0
C      1  0.4380240000000  0.5501590000000  0.4847040000000 1.0
C      1  0.4437030000000  0.5300070000000  0.4490010000000 1.0
C      1  0.4370920000000  0.4728900000000  0.4511230000000 1.0
C      1  0.4394590000000  0.4468090000000  0.4833320000000 1.0
C      1  0.5104610000000  0.5866770000000  0.5128290000000 1.0
C      1  0.5147390000000  0.5599600000000  0.4436810000000 1.0
C      1  0.5142250000000  0.4916480000000  0.4158710000000 1.0
C      1  0.5124790000000  0.4272320000000  0.4535610000000 1.0
C      1  0.5115740000000  0.4205460000000  0.5257470000000 1.0
C      1  0.5136950000000  0.4706360000000  0.5747520000000 1.0
C      1  0.5133640000000  0.5419250000000  0.5733940000000 1.0
C      1  0.5479050000000  0.4457760000000  0.5411310000000 1.0
C      1  0.5476760000000  0.4994780000000  0.5650450000000 1.0
C      1  0.5491150000000  0.5549720000000  0.5440960000000 1.0
C      1  0.5487740000000  0.5705110000000  0.4860110000000 1.0
C      1  0.5476380000000  0.5291260000000  0.4412590000000 1.0
C      1  0.5481460000000  0.4673800000000  0.4381890000000 1.0
C      1  0.5484410000000  0.4312310000000  0.4843130000000 1.0
C      1  0.5262810000000  0.4958160000000  0.5835580000000 1.0
C      1  0.5248260000000  0.5646230000000  0.5569470000000 1.0
C      1  0.5223550000000  0.5843160000000  0.4847970000000 1.0
C      1  0.5266780000000  0.5395260000000  0.4256260000000 1.0
C      1  0.5242100000000  0.4642480000000  0.4219740000000 1.0
C      1  0.5232600000000  0.4168100000000  0.4786420000000 1.0
C      1  0.5233380000000  0.4319680000000  0.5496780000000 1.0
C      1  0.4177740000000  0.4861080000000  0.4674960000000 1.0
C      1  0.4193440000000  0.4679160000000  0.4899070000000 1.0
C      1  0.4209560000000  0.4730010000000  0.5184850000000 1.0
C      1  0.4228670000000  0.4980160000000  0.5335160000000 1.0
C      1  0.4202080000000  0.5254210000000  0.5216030000000 1.0
C      1  0.4183610000000  0.5310900000000  0.4916090000000 1.0
C      1  0.4196270000000  0.5150650000000  0.4679500000000 1.0
C      1  0.4856050000000  0.4465210000000  0.4899570000000 1.0
C      1  0.4866120000000  0.4618150000000  0.5334480000000 1.0
C      1  0.4872180000000  0.5040980000000  0.5538600000000 1.0
C      1  0.4843500000000  0.5473150000000  0.5342060000000 1.0
C      1  0.4848790000000  0.5521710000000  0.4866250000000 1.0
C      1  0.4894490000000  0.5198080000000  0.4477180000000 1.0
C      1  0.4857220000000  0.4721930000000  0.4508560000000 1.0
C      1  0.5015820000000  0.5587770000000  0.5100800000000 1.0
C      1  0.5045300000000  0.5407090000000  0.4644590000000 1.0
C      1  0.5047070000000  0.4938730000000  0.4436060000000 1.0
C      1  0.5035080000000  0.4520620000000  0.4676790000000 1.0
C      1  0.5032560000000  0.4471890000000  0.5141050000000 1.0
C      1  0.5042150000000  0.4804370000000  0.5481280000000 1.0
C      1  0.5027360000000  0.5299630000000  0.5489290000000 1.0
C      1  0.5729630000000  0.5146380000000  0.5283790000000 1.0
C      1  0.5732630000000  0.5340370000000  0.5078010000000 1.0
C      1  0.5740630000000  0.5263200000000  0.4804980000000 1.0
C      1  0.5739750000000  0.4998120000000  0.4679060000000 1.0
C      1  0.5736050000000  0.4731300000000  0.4787140000000 1.0
C      1  0.5736620000000  0.4668190000000  0.5059970000000 1.0
C      1  0.5739780000000  0.4856060000000  0.5276000000000 1.0
C      1  0.5042530000000  0.5797850000000  0.4602980000000 1.0
C      1  0.5083100000000  0.5198970000000  0.4112670000000 1.0
C      1  0.5034700000000  0.4411530000000  0.4304700000000 1.0
C      1  0.5031820000000  0.4095790000000  0.5012740000000 1.0
C      1  0.5045660000000  0.4446000000000  0.5692590000000 1.0
C      1  0.5079020000000  0.5181270000000  0.5887180000000 1.0
C      1  0.5055220000000  0.5823930000000  0.5416490000000 1.0
C      1  0.4637000000000  0.4673580000000  0.4902830000000 1.0
C      1  0.4639320000000  0.4753460000000  0.5192530000000 1.0
C      1  0.4616430000000  0.5016920000000  0.5362960000000 1.0
C      1  0.4594510000000  0.5316170000000  0.5263040000000 1.0
C      1  0.4614730000000  0.5388060000000  0.4979400000000 1.0
C      1  0.4651370000000  0.5120830000000  0.4612950000000 1.0
C      1  0.4622930000000  0.4835270000000  0.4642710000000 1.0
C      1  0.4754180000000  0.5730690000000  0.5460270000000 1.0
C      1  0.4753230000000  0.5705330000000  0.4663090000000 1.0
C      1  0.4805710000000  0.5261980000000  0.4190180000000 1.0
C      1  0.4739500000000  0.4495300000000  0.4363590000000 1.0
C      1  0.4746900000000  0.4205950000000  0.4982960000000 1.0
C      1  0.4767670000000  0.4497700000000  0.5578370000000 1.0
C      1  0.4799030000000  0.5074650000000  0.5831690000000 1.0
C      1  0.5541580000000  0.5433200000000  0.4677250000000 1.0
C      1  0.5534790000000  0.4994150000000  0.4475440000000 1.0
C      1  0.5545020000000  0.4549920000000  0.4655000000000 1.0
C      1  0.5544440000000  0.4451610000000  0.5109390000000 1.0
C      1  0.5538560000000  0.4763630000000  0.5460880000000 1.0
C      1  0.5523820000000  0.5235490000000  0.5470450000000 1.0
C      1  0.5553070000000  0.5570680000000  0.5137230000000 1.0
C      1  0.5250870000000  0.5244470000000  0.5302360000000 1.0
C      1  0.5276190000000  0.5445920000000  0.5091850000000 1.0
C      1  0.5278060000000  0.5351450000000  0.4810310000000 1.0
C      1  0.5272440000000  0.4919040000000  0.4626060000000 1.0
C      1  0.5278690000000  0.4662010000000  0.4768450000000 1.0
C      1  0.5281140000000  0.4610710000000  0.5066350000000 1.0
C      1  0.5261330000000  0.4803210000000  0.5282250000000 1.0
C      1  0.5170120000000  0.5026040000000  0.5142820000000 1.0
C      1  0.4717450000000  0.5148060000000  0.4886660000000 1.0
C      1  0.5208400000000  0.5083390000000  0.4843160000000 1.0
C      1  0.4955070000000  0.5023310000000  0.4952960000000 1.0
END
