TITL C-67873-7097-2 -0.0807268332340738 125000 -761.589418045283 0 0 111 (C1) n - 1
REM
REM in /rds/project/t2_vol4/rds-t2-cs072/BORA/CARBON/from-Arr/AIRSS/Generating-Clusters/GAP-ML-2020/Higher-Symm/SD-CG/HFTN-CG
REM
REM
REM
REM
REM
REM ./C.cell (b20cbc046b6831c77cfcea5457e17084)
REM AIRSS Version 0.9.1 bugfix July 2018 build 013d7b7c2542+ Fri, 06 Jul 2018 19:26:36 +0100
REM compiler GCC version 9.3.0
REM options -cpp -mtune=generic -march=x86-64 -g -O0
REM seed 600310783 -1964411524 412938060 -800296411 -1296122333 567927506 1183416586 957857467 -965653157 -1023579916 1986090483 -664504097 1642092411 1986893164 973391509 -1685988995 -1724904043 1857348127 1959967704 350985498 -552322446 -332032465 -1625292328 -265563809 -2124707104 1946483014 1923787313 332755582 -1745501340 -980016072 799200262 270268206 -302985991
REM
CELL 1.54180   50.00000   50.00000   50.00000   90.00000   90.00000   90.00000
LATT -1
SFAC C  
C      1  0.5532830000000  0.5454200000000  0.5207950000000 1.0
C      1  0.5380650000000  0.5205020000000  0.5114020000000 1.0
C      1  0.4848280000000  0.5723800000000  0.5638370000000 1.0
C      1  0.5984540000000  0.4830010000000  0.5116930000000 1.0
C      1  0.4682570000000  0.4323350000000  0.4531900000000 1.0
C      1  0.5025960000000  0.4560850000000  0.4289810000000 1.0
C      1  0.5315190000000  0.5510750000000  0.5400750000000 1.0
C      1  0.5755130000000  0.5305960000000  0.5346020000000 1.0
C      1  0.5339270000000  0.4734920000000  0.4547680000000 1.0
C      1  0.5196480000000  0.4203380000000  0.4817850000000 1.0
C      1  0.5577560000000  0.4974520000000  0.5040700000000 1.0
C      1  0.4668160000000  0.4677730000000  0.4898330000000 1.0
C      1  0.4974500000000  0.5050510000000  0.4153750000000 1.0
C      1  0.4134090000000  0.4465280000000  0.5115970000000 1.0
C      1  0.4196630000000  0.4469270000000  0.5381960000000 1.0
C      1  0.4165870000000  0.4673860000000  0.4928910000000 1.0
C      1  0.5043590000000  0.4689690000000  0.4564460000000 1.0
C      1  0.5455380000000  0.4671510000000  0.5081570000000 1.0
C      1  0.5365070000000  0.5308890000000  0.5631780000000 1.0
C      1  0.5381530000000  0.4279370000000  0.4616870000000 1.0
C      1  0.5341700000000  0.5267040000000  0.4415060000000 1.0
C      1  0.5147080000000  0.5889570000000  0.5267520000000 1.0
C      1  0.4780860000000  0.5229770000000  0.4595530000000 1.0
C      1  0.5117450000000  0.5660740000000  0.4568420000000 1.0
C      1  0.4788500000000  0.4941180000000  0.4910940000000 1.0
C      1  0.4488480000000  0.4218990000000  0.4945080000000 1.0
C      1  0.5635010000000  0.4386720000000  0.4711300000000 1.0
C      1  0.5277840000000  0.5786090000000  0.5497210000000 1.0
C      1  0.5672050000000  0.4962960000000  0.4281550000000 1.0
C      1  0.5166960000000  0.5038820000000  0.4800700000000 1.0
C      1  0.4937760000000  0.4537450000000  0.4800510000000 1.0
C      1  0.5095060000000  0.5861770000000  0.4775110000000 1.0
C      1  0.4913920000000  0.4194170000000  0.5177450000000 1.0
C      1  0.5229840000000  0.4677190000000  0.5729910000000 1.0
C      1  0.4612790000000  0.5764430000000  0.5157470000000 1.0
C      1  0.5118910000000  0.5717430000000  0.5719830000000 1.0
C      1  0.5697040000000  0.4959630000000  0.5546320000000 1.0
C      1  0.4408740000000  0.4379420000000  0.5175980000000 1.0
C      1  0.5654540000000  0.4485780000000  0.4977060000000 1.0
C      1  0.5284120000000  0.5837620000000  0.5009180000000 1.0
C      1  0.5269060000000  0.4371290000000  0.4345290000000 1.0
C      1  0.4202100000000  0.5253550000000  0.4694470000000 1.0
C      1  0.4734450000000  0.5494110000000  0.5785770000000 1.0
C      1  0.4850610000000  0.5046310000000  0.5898610000000 1.0
C      1  0.5627870000000  0.5240260000000  0.4338370000000 1.0
C      1  0.4385890000000  0.4811150000000  0.4487710000000 1.0
C      1  0.5837430000000  0.4604080000000  0.4657290000000 1.0
C      1  0.4227390000000  0.5162570000000  0.4963800000000 1.0
C      1  0.4862790000000  0.5763280000000  0.5332490000000 1.0
C      1  0.4906280000000  0.5220150000000  0.5333030000000 1.0
C      1  0.5001440000000  0.5481590000000  0.5285190000000 1.0
C      1  0.5459150000000  0.4787540000000  0.5571890000000 1.0
C      1  0.5726310000000  0.5325250000000  0.4614230000000 1.0
C      1  0.4696360000000  0.5013480000000  0.4208370000000 1.0
C      1  0.4897150000000  0.4449470000000  0.5549980000000 1.0
C      1  0.4725300000000  0.5248610000000  0.4895320000000 1.0
C      1  0.4772270000000  0.4638790000000  0.5721850000000 1.0
C      1  0.4244940000000  0.4685030000000  0.5550900000000 1.0
C      1  0.5269260000000  0.5021570000000  0.5541550000000 1.0
C      1  0.4452200000000  0.4347200000000  0.4689850000000 1.0
C      1  0.5899040000000  0.4641100000000  0.4945710000000 1.0
C      1  0.5790440000000  0.4856630000000  0.4538000000000 1.0
C      1  0.5453170000000  0.4571530000000  0.4292900000000 1.0
C      1  0.5437200000000  0.4811580000000  0.4151780000000 1.0
C      1  0.4535690000000  0.4856780000000  0.5351040000000 1.0
C      1  0.4620420000000  0.5827050000000  0.4868050000000 1.0
C      1  0.4235770000000  0.4880380000000  0.5342460000000 1.0
C      1  0.5170070000000  0.4426560000000  0.5595610000000 1.0
C      1  0.5522860000000  0.5664080000000  0.4986490000000 1.0
C      1  0.5799510000000  0.5006510000000  0.5255580000000 1.0
C      1  0.4378620000000  0.4635550000000  0.4726300000000 1.0
C      1  0.4942350000000  0.5327500000000  0.5900820000000 1.0
C      1  0.5659350000000  0.5049530000000  0.4737420000000 1.0
C      1  0.4518380000000  0.5324580000000  0.5720540000000 1.0
C      1  0.4922910000000  0.5487010000000  0.4430180000000 1.0
C      1  0.5052300000000  0.4893530000000  0.5057630000000 1.0
C      1  0.4613700000000  0.4603530000000  0.5180700000000 1.0
C      1  0.5103110000000  0.4616710000000  0.5052670000000 1.0
C      1  0.4902780000000  0.4240290000000  0.4741310000000 1.0
C      1  0.5145330000000  0.4821020000000  0.4142140000000 1.0
C      1  0.5192000000000  0.4196710000000  0.5127020000000 1.0
C      1  0.5588030000000  0.5547620000000  0.4727410000000 1.0
C      1  0.4588240000000  0.4759160000000  0.4295620000000 1.0
C      1  0.4587210000000  0.5047420000000  0.5795980000000 1.0
C      1  0.4254360000000  0.5527620000000  0.4682730000000 1.0
C      1  0.4953970000000  0.5400290000000  0.5008770000000 1.0
C      1  0.4740010000000  0.4512720000000  0.4323850000000 1.0
C      1  0.5189080000000  0.5452080000000  0.5830220000000 1.0
C      1  0.4610700000000  0.5144020000000  0.5305740000000 1.0
C      1  0.5657920000000  0.5238020000000  0.5603400000000 1.0
C      1  0.4750910000000  0.4128090000000  0.4961080000000 1.0
C      1  0.4478390000000  0.5285000000000  0.5061780000000 1.0
C      1  0.5202460000000  0.5308310000000  0.4889930000000 1.0
C      1  0.5385110000000  0.5003800000000  0.4618280000000 1.0
C      1  0.4486510000000  0.5660620000000  0.4641870000000 1.0
C      1  0.4460040000000  0.5363050000000  0.5455300000000 1.0
C      1  0.4564170000000  0.5219940000000  0.4376510000000 1.0
C      1  0.4975560000000  0.4789660000000  0.5839630000000 1.0
C      1  0.5142680000000  0.5057710000000  0.5282240000000 1.0
C      1  0.4146470000000  0.4915950000000  0.5074620000000 1.0
C      1  0.4531010000000  0.4791830000000  0.5655950000000 1.0
C      1  0.5324210000000  0.4335940000000  0.5372950000000 1.0
C      1  0.4626720000000  0.5523370000000  0.4412740000000 1.0
C      1  0.4459570000000  0.5541360000000  0.5229210000000 1.0
C      1  0.5082590000000  0.5290040000000  0.4271870000000 1.0
C      1  0.4325840000000  0.5092580000000  0.4486230000000 1.0
C      1  0.4846720000000  0.5970030000000  0.4802400000000 1.0
C      1  0.5484120000000  0.4568460000000  0.5350900000000 1.0
C      1  0.4930050000000  0.4967290000000  0.4643960000000 1.0
C      1  0.5323500000000  0.5471600000000  0.4634040000000 1.0
C      1  0.4868680000000  0.4473330000000  0.5266830000000 1.0
END
