TITL C-67870-8207-7 0.0313020916445643 125000 -122.551695869092 0 0 19 (C1) n - 1
REM
REM in /rds/project/t2_vol4/rds-t2-cs072/BORA/CARBON/from-Arr/AIRSS/Generating-Clusters/GAP-ML-2020/Higher-Symm/SD-CG/HFTN-CG
REM
REM
REM
REM
REM
REM ./C.cell (b20cbc046b6831c77cfcea5457e17084)
REM AIRSS Version 0.9.1 bugfix July 2018 build 013d7b7c2542+ Fri, 06 Jul 2018 19:26:36 +0100
REM compiler GCC version 9.3.0
REM options -cpp -mtune=generic -march=x86-64 -g -O0
REM seed 1743127318 866734909 -1626296684 166754013 144597335 -1962702635 -315274936 67189492 -1698191147 517945589 -824591474 562915459 36983613 1381883068 -569529322 -881410356 476909605 -482804999 -580253507 1137051179 1149292094 158571364 187961047 1138174986 -434376481 688692462 9949891 -1306102343 -957256175 -411623986 2093330930 -233710384 -1636692854
REM
CELL 1.54180   50.00000   50.00000   50.00000   90.00000   90.00000   90.00000
LATT -1
SFAC C  
C      1  0.4913120000000  0.5572340000000  0.4910270000000 1.0
C      1  0.5045930000000  0.4371090000000  0.4845010000000 1.0
C      1  0.5122310000000  0.5604370000000  0.5065120000000 1.0
C      1  0.4858890000000  0.4384270000000  0.5030710000000 1.0
C      1  0.4781640000000  0.5398710000000  0.4782690000000 1.0
C      1  0.5181570000000  0.4562220000000  0.4746200000000 1.0
C      1  0.5311540000000  0.5510940000000  0.5211530000000 1.0
C      1  0.4690480000000  0.4508980000000  0.5178050000000 1.0
C      1  0.5429550000000  0.4952160000000  0.4874540000000 1.0
C      1  0.4490170000000  0.5004790000000  0.4791600000000 1.0
C      1  0.4445550000000  0.4897420000000  0.5020030000000 1.0
C      1  0.5528070000000  0.5088050000000  0.5065770000000 1.0
C      1  0.4668960000000  0.4783750000000  0.5152020000000 1.0
C      1  0.5317950000000  0.5226280000000  0.5213100000000 1.0
C      1  0.5204580000000  0.4838330000000  0.4756520000000 1.0
C      1  0.4744340000000  0.5130060000000  0.4739950000000 1.0
C      1  0.4961940000000  0.4968410000000  0.4832980000000 1.0
C      1  0.5081720000000  0.5097030000000  0.5279670000000 1.0
C      1  0.4920090000000  0.4952870000000  0.5133150000000 1.0
END
