TITL C-67886-7083-5 0.0442989577375498 125000 -113.345228364781 0 0 18 (C3v) n - 1
REM
REM in /rds/project/t2_vol4/rds-t2-cs072/BORA/CARBON/from-Arr/AIRSS/Generating-Clusters/GAP-ML-2020/Higher-Symm/SD-CG/HFTN-CG
REM
REM
REM
REM
REM
REM ./C.cell (b20cbc046b6831c77cfcea5457e17084)
REM AIRSS Version 0.9.1 bugfix July 2018 build 013d7b7c2542+ Fri, 06 Jul 2018 19:26:36 +0100
REM compiler GCC version 9.3.0
REM options -cpp -mtune=generic -march=x86-64 -g -O0
REM seed 900165516 -368889945 -1473588156 -1447440024 1770110107 -871393222 72952975 -1545279287 -515953371 -662134682 673334377 -657161328 12231086 1719233181 -482444744 1608074142 -1438390757 903520168 1170922786 -985187141 -2086127621 2082634200 -1857866022 -1146350396 -1340810156 326990306 1011870442 763391396 1062854401 808247048 1548132575 -58207929 -1442714393
REM
CELL 1.54180   50.00000   50.00000   50.00000   90.00000   90.00000   90.00000
LATT -1
SFAC C  
C      1  0.5322710000000  0.5400770000000  0.5047150000000 1.0
C      1  0.5322850000000  0.4840540000000  0.4629430000000 1.0
C      1  0.5322840000000  0.4758900000000  0.5323470000000 1.0
C      1  0.5092080000000  0.4794210000000  0.4521910000000 1.0
C      1  0.5092070000000  0.4688890000000  0.5417290000000 1.0
C      1  0.5091900000000  0.5516970000000  0.5060810000000 1.0
C      1  0.4637120000000  0.5229810000000  0.5167390000000 1.0
C      1  0.4637190000000  0.5029950000000  0.4717190000000 1.0
C      1  0.4637240000000  0.4739990000000  0.5115380000000 1.0
C      1  0.4637240000000  0.4773860000000  0.4827430000000 1.0
C      1  0.4637180000000  0.4963510000000  0.5282030000000 1.0
C      1  0.4637130000000  0.5262380000000  0.4890490000000 1.0
C      1  0.5478300000000  0.5176830000000  0.5020810000000 1.0
C      1  0.5478360000000  0.4929750000000  0.4836580000000 1.0
C      1  0.5478360000000  0.4893740000000  0.5142680000000 1.0
C      1  0.4832520000000  0.4743620000000  0.5343790000000 1.0
C      1  0.4832370000000  0.5425870000000  0.5050090000000 1.0
C      1  0.4832530000000  0.4830390000000  0.4606090000000 1.0
END
