TITL C-68128-9901-4 0.0402901814632638 125000 -259.659338867006 0 0 39 (C3) n - 1
REM
REM in /rds/project/t2_vol4/rds-t2-cs072/BORA/CARBON/from-Arr/AIRSS/Generating-Clusters/GAP-ML-2020/Higher-Symm/SD-CG/HFTN-CG
REM
REM
REM
REM
REM
REM ./C.cell (b20cbc046b6831c77cfcea5457e17084)
REM AIRSS Version 0.9.1 bugfix July 2018 build 013d7b7c2542+ Fri, 06 Jul 2018 19:26:36 +0100
REM compiler GCC version 9.3.0
REM options -cpp -mtune=generic -march=x86-64 -g -O0
REM seed 1582702271 534345828 -125939962 305753759 -903535989 1270812070 821154046 -1633601290 24935163 -1948803959 -966741395 476214890 -301399287 296845362 -1787640455 1009702295 -1113965216 1675646779 380327370 -996746666 1642092514 -2078613794 469775222 1325575541 -2073947552 -182612918 982039385 114560934 60251724 -2047388457 419580207 -1633354351 -837273527
REM
CELL 1.54180   50.00000   50.00000   50.00000   90.00000   90.00000   90.00000
LATT -1
SFAC C  
C      1  0.4750660000000  0.4946610000000  0.5159510000000 1.0
C      1  0.5262900000000  0.4947000000000  0.5136160000000 1.0
C      1  0.4986560000000  0.4947060000000  0.4704230000000 1.0
C      1  0.4341710000000  0.5104140000000  0.4950770000000 1.0
C      1  0.5286350000000  0.5104450000000  0.5594740000000 1.0
C      1  0.5371720000000  0.5105200000000  0.4454670000000 1.0
C      1  0.5268940000000  0.4811040000000  0.5606500000000 1.0
C      1  0.5391090000000  0.4811810000000  0.4463790000000 1.0
C      1  0.4340400000000  0.4810760000000  0.4929360000000 1.0
C      1  0.5017740000000  0.5410690000000  0.5279430000000 1.0
C      1  0.5232450000000  0.5411110000000  0.4845030000000 1.0
C      1  0.4748900000000  0.5410740000000  0.4876280000000 1.0
C      1  0.4770780000000  0.5414260000000  0.5157340000000 1.0
C      1  0.5250200000000  0.5414640000000  0.5119950000000 1.0
C      1  0.4978110000000  0.5414670000000  0.4723450000000 1.0
C      1  0.5506910000000  0.5215280000000  0.5479010000000 1.0
C      1  0.5161030000000  0.5215720000000  0.4321560000000 1.0
C      1  0.4331590000000  0.5214580000000  0.5199820000000 1.0
C      1  0.4611460000000  0.4707190000000  0.5291810000000 1.0
C      1  0.5447460000000  0.4707860000000  0.5190510000000 1.0
C      1  0.4941730000000  0.4707890000000  0.4517160000000 1.0
C      1  0.4747490000000  0.4953370000000  0.4862810000000 1.0
C      1  0.5007520000000  0.4953310000000  0.5287270000000 1.0
C      1  0.5245100000000  0.4953740000000  0.4849840000000 1.0
C      1  0.4975520000000  0.5209380000000  0.4517830000000 1.0
C      1  0.4594330000000  0.5208650000000  0.5262340000000 1.0
C      1  0.5429690000000  0.5209290000000  0.5220210000000 1.0
C      1  0.5040750000000  0.5195430000000  0.5476690000000 1.0
C      1  0.5392130000000  0.5196140000000  0.4726420000000 1.0
C      1  0.4566690000000  0.5195490000000  0.4797250000000 1.0
C      1  0.4370000000000  0.4668360000000  0.5167450000000 1.0
C      1  0.5460560000000  0.4668980000000  0.5461780000000 1.0
C      1  0.5170170000000  0.4669420000000  0.4370170000000 1.0
C      1  0.4674820000000  0.4623380000000  0.4548480000000 1.0
C      1  0.4772180000000  0.4622880000000  0.5507270000000 1.0
C      1  0.5553830000000  0.4623790000000  0.4943570000000 1.0
C      1  0.5009700000000  0.4738260000000  0.5510920000000 1.0
C      1  0.5438050000000  0.4739040000000  0.4736070000000 1.0
C      1  0.4552830000000  0.4738380000000  0.4752530000000 1.0
END
