TITL C-68127-9916-4 -0.132144947962284 125000 -631.56766165716 0 0 89 (C3) n - 1
REM
REM in /rds/project/t2_vol4/rds-t2-cs072/BORA/CARBON/from-Arr/AIRSS/Generating-Clusters/GAP-ML-2020/Higher-Symm/SD-CG/HFTN-CG
REM
REM
REM
REM
REM
REM ./C.cell (b20cbc046b6831c77cfcea5457e17084)
REM AIRSS Version 0.9.1 bugfix July 2018 build 013d7b7c2542+ Fri, 06 Jul 2018 19:26:36 +0100
REM compiler GCC version 9.3.0
REM options -cpp -mtune=generic -march=x86-64 -g -O0
REM seed -1724382188 1234007648 98289854 -1261932161 -2017221324 -909462144 -861894401 -584997151 -1063036266 896927381 -116018670 831636749 -74537509 1551678767 -1959386645 455723105 -573783444 1556882930 -1966746386 643817679 -1610982366 1999536547 -1625039588 406734758 2105743988 591459572 179466132 1443888649 1581275054 1441858919 1293486526 -2114271893 1241544514
REM
CELL 1.54180   50.00000   50.00000   50.00000   90.00000   90.00000   90.00000
LATT -1
SFAC C  
C      1  0.5303460000000  0.4743700000000  0.5044140000000 1.0
C      1  0.5293300000000  0.5075170000000  0.4735160000000 1.0
C      1  0.5299890000000  0.5177110000000  0.5176760000000 1.0
C      1  0.4996570000000  0.4607550000000  0.4272750000000 1.0
C      1  0.4993450000000  0.5809840000000  0.5014650000000 1.0
C      1  0.5022720000000  0.4566410000000  0.5684680000000 1.0
C      1  0.5516400000000  0.5393230000000  0.5254570000000 1.0
C      1  0.5526470000000  0.4569370000000  0.5183840000000 1.0
C      1  0.5507670000000  0.5042380000000  0.4505800000000 1.0
C      1  0.4566400000000  0.4488520000000  0.4542060000000 1.0
C      1  0.4555190000000  0.5633910000000  0.4793930000000 1.0
C      1  0.4581770000000  0.4843320000000  0.5659810000000 1.0
C      1  0.4926770000000  0.4160610000000  0.5126520000000 1.0
C      1  0.4894450000000  0.5293320000000  0.4204120000000 1.0
C      1  0.4917380000000  0.5526090000000  0.5646410000000 1.0
C      1  0.4485510000000  0.5194360000000  0.5194130000000 1.0
C      1  0.4490070000000  0.4715980000000  0.5082230000000 1.0
C      1  0.4478950000000  0.5051990000000  0.4723950000000 1.0
C      1  0.4694130000000  0.5591570000000  0.4539660000000 1.0
C      1  0.4722940000000  0.5085410000000  0.5744740000000 1.0
C      1  0.4714970000000  0.4294680000000  0.4703630000000 1.0
C      1  0.4891560000000  0.5246370000000  0.4926820000000 1.0
C      1  0.4901770000000  0.4923550000000  0.5244890000000 1.0
C      1  0.4895400000000  0.4809410000000  0.4806240000000 1.0
C      1  0.4654130000000  0.5655660000000  0.5286420000000 1.0
C      1  0.4673930000000  0.4406370000000  0.5428760000000 1.0
C      1  0.4646130000000  0.4907460000000  0.4275720000000 1.0
C      1  0.4713170000000  0.4636460000000  0.4334730000000 1.0
C      1  0.4710380000000  0.5740300000000  0.5019790000000 1.0
C      1  0.4737260000000  0.4595300000000  0.5632990000000 1.0
C      1  0.5315070000000  0.5068810000000  0.4267120000000 1.0
C      1  0.5328550000000  0.5585800000000  0.5404190000000 1.0
C      1  0.5343490000000  0.4342620000000  0.5283100000000 1.0
C      1  0.4380360000000  0.4873610000000  0.5479790000000 1.0
C      1  0.4369000000000  0.4628320000000  0.4666070000000 1.0
C      1  0.4361130000000  0.5455660000000  0.4860690000000 1.0
C      1  0.4588380000000  0.4787510000000  0.4807710000000 1.0
C      1  0.4583960000000  0.5254510000000  0.4919130000000 1.0
C      1  0.4594820000000  0.4924620000000  0.5267810000000 1.0
C      1  0.4189950000000  0.5035710000000  0.4781450000000 1.0
C      1  0.4195260000000  0.5151250000000  0.5162620000000 1.0
C      1  0.4198970000000  0.4763380000000  0.5072010000000 1.0
C      1  0.5350060000000  0.5666460000000  0.4637970000000 1.0
C      1  0.5379590000000  0.4966100000000  0.5734800000000 1.0
C      1  0.5366920000000  0.4366180000000  0.4579660000000 1.0
C      1  0.4881680000000  0.5717340000000  0.5442430000000 1.0
C      1  0.4901160000000  0.4241550000000  0.5395320000000 1.0
C      1  0.4867710000000  0.5019920000000  0.4140900000000 1.0
C      1  0.5671200000000  0.4793520000000  0.4571410000000 1.0
C      1  0.5669760000000  0.5461560000000  0.5000040000000 1.0
C      1  0.5686070000000  0.4756460000000  0.5364130000000 1.0
C      1  0.5135150000000  0.4363850000000  0.5495230000000 1.0
C      1  0.5104440000000  0.4873430000000  0.4187680000000 1.0
C      1  0.5112190000000  0.5751200000000  0.5283020000000 1.0
C      1  0.5008820000000  0.5068980000000  0.4737260000000 1.0
C      1  0.5015380000000  0.5176970000000  0.5181480000000 1.0
C      1  0.5019100000000  0.4738270000000  0.5052780000000 1.0
C      1  0.4974420000000  0.4242090000000  0.4614630000000 1.0
C      1  0.4952820000000  0.5696220000000  0.4528460000000 1.0
C      1  0.4985400000000  0.5044110000000  0.5830800000000 1.0
C      1  0.5197390000000  0.5461380000000  0.5643960000000 1.0
C      1  0.5204250000000  0.4196460000000  0.5060800000000 1.0
C      1  0.5174020000000  0.5333710000000  0.4257120000000 1.0
C      1  0.5581020000000  0.5537280000000  0.4732850000000 1.0
C      1  0.5604220000000  0.4949620000000  0.5566590000000 1.0
C      1  0.5593350000000  0.4521230000000  0.4640640000000 1.0
C      1  0.4139820000000  0.4758450000000  0.4797510000000 1.0
C      1  0.4134850000000  0.5275640000000  0.4916610000000 1.0
C      1  0.4146870000000  0.4914010000000  0.5304900000000 1.0
C      1  0.5667020000000  0.5283640000000  0.4611390000000 1.0
C      1  0.5682790000000  0.5182000000000  0.5404390000000 1.0
C      1  0.5682770000000  0.4545990000000  0.4919700000000 1.0
C      1  0.4535290000000  0.5115310000000  0.4441970000000 1.0
C      1  0.4548400000000  0.5407230000000  0.5387580000000 1.0
C      1  0.4557700000000  0.4442360000000  0.5167370000000 1.0
C      1  0.4701260000000  0.4267650000000  0.4984050000000 1.0
C      1  0.4675180000000  0.5362120000000  0.4376730000000 1.0
C      1  0.4698140000000  0.5341110000000  0.5628290000000 1.0
C      1  0.5803310000000  0.4788180000000  0.4824660000000 1.0
C      1  0.5797720000000  0.5245540000000  0.4863750000000 1.0
C      1  0.5808160000000  0.4983100000000  0.5240250000000 1.0
C      1  0.5220210000000  0.5210460000000  0.5766770000000 1.0
C      1  0.5216060000000  0.4215590000000  0.4781410000000 1.0
C      1  0.5190770000000  0.5566210000000  0.4412770000000 1.0
C      1  0.5142210000000  0.4802040000000  0.5787650000000 1.0
C      1  0.5122960000000  0.4401210000000  0.4420570000000 1.0
C      1  0.5109990000000  0.5785540000000  0.4757300000000 1.0
C      1  0.5713300000000  0.5004370000000  0.4977840000000 1.0
C      1  0.5396690000000  0.5000010000000  0.4983580000000 1.0
END
