TITL C-68129-9868-10 4.04377680216946 125000 -398.531177016374 0 0 57 (C1) n - 1
REM
REM in /rds/project/t2_vol4/rds-t2-cs072/BORA/CARBON/from-Arr/AIRSS/Generating-Clusters/GAP-ML-2020/Higher-Symm/SD-CG/HFTN-CG
REM
REM
REM
REM
REM
REM ./C.cell (b20cbc046b6831c77cfcea5457e17084)
REM AIRSS Version 0.9.1 bugfix July 2018 build 013d7b7c2542+ Fri, 06 Jul 2018 19:26:36 +0100
REM compiler GCC version 9.3.0
REM options -cpp -mtune=generic -march=x86-64 -g -O0
REM seed -1707642774 1761806900 894009792 1401667638 837140529 -1216129731 1209530750 -1135260678 -1433010256 349339168 2022234591 860738501 -95781370 1875759364 777259385 2098469727 1344303743 -955045288 -1814763840 -2143101159 -990929114 -598626602 635402721 -1646591979 1828631134 830088207 -789543337 23293500 -151628362 -1673743594 -1794160835 -613537584 -1713080423
REM
CELL 1.54180   50.00000   50.00000   50.00000   90.00000   90.00000   90.00000
LATT -1
SFAC C  
C      1  0.5046860000000  0.5678490000000  0.5086230000000 1.0
C      1  0.5147490000000  0.5175730000000  0.4409560000000 1.0
C      1  0.5562530000000  0.4638070000000  0.4844280000000 1.0
C      1  0.5681620000000  0.5014410000000  0.5098510000000 1.0
C      1  0.5537520000000  0.5069410000000  0.4629270000000 1.0
C      1  0.4523090000000  0.4615860000000  0.4672790000000 1.0
C      1  0.4679030000000  0.5005360000000  0.4435060000000 1.0
C      1  0.5155400000000  0.4887060000000  0.4934570000000 1.0
C      1  0.4722900000000  0.4932240000000  0.5018620000000 1.0
C      1  0.4465870000000  0.4534700000000  0.4945290000000 1.0
C      1  0.5338210000000  0.5644500000000  0.5061870000000 1.0
C      1  0.4343430000000  0.5075570000000  0.5286210000000 1.0
C      1  0.5168700000000  0.4386120000000  0.4875080000000 1.0
C      1  0.4702120000000  0.4412480000000  0.5053280000000 1.0
C      1  0.4315480000000  0.4696030000000  0.5115210000000 1.0
C      1  0.4556230000000  0.5287590000000  0.5283630000000 1.0
C      1  0.4907530000000  0.4854960000000  0.4847300000000 1.0
C      1  0.5006460000000  0.5279060000000  0.5113970000000 1.0
C      1  0.5655260000000  0.4907330000000  0.4828430000000 1.0
C      1  0.5346770000000  0.5599730000000  0.5351710000000 1.0
C      1  0.4801830000000  0.5107980000000  0.5230390000000 1.0
C      1  0.4578260000000  0.5432450000000  0.4995700000000 1.0
C      1  0.5481930000000  0.5349580000000  0.4687080000000 1.0
C      1  0.4897410000000  0.4943750000000  0.5492770000000 1.0
C      1  0.4815090000000  0.4814820000000  0.4294120000000 1.0
C      1  0.4867240000000  0.5492550000000  0.4935020000000 1.0
C      1  0.4647300000000  0.5448900000000  0.5499360000000 1.0
C      1  0.5128030000000  0.4760720000000  0.5479010000000 1.0
C      1  0.5227250000000  0.5405410000000  0.4572990000000 1.0
C      1  0.5216070000000  0.5129070000000  0.5015360000000 1.0
C      1  0.5475390000000  0.5355470000000  0.5397710000000 1.0
C      1  0.5070470000000  0.5640930000000  0.5390730000000 1.0
C      1  0.5568440000000  0.4814860000000  0.5276470000000 1.0
C      1  0.4916450000000  0.5457880000000  0.5557920000000 1.0
C      1  0.4793600000000  0.4504870000000  0.5309440000000 1.0
C      1  0.5379450000000  0.4891060000000  0.5475700000000 1.0
C      1  0.5260940000000  0.4442970000000  0.5138470000000 1.0
C      1  0.4775070000000  0.4488370000000  0.4598320000000 1.0
C      1  0.4428920000000  0.5321680000000  0.4809470000000 1.0
C      1  0.5349850000000  0.4525240000000  0.4688800000000 1.0
C      1  0.4959050000000  0.4626730000000  0.4419880000000 1.0
C      1  0.4670720000000  0.4726890000000  0.5453720000000 1.0
C      1  0.4949940000000  0.5448140000000  0.4651890000000 1.0
C      1  0.5321110000000  0.5161320000000  0.5540330000000 1.0
C      1  0.5528670000000  0.5466660000000  0.4943690000000 1.0
C      1  0.4247240000000  0.4971200000000  0.5035150000000 1.0
C      1  0.5075750000000  0.4519420000000  0.5339130000000 1.0
C      1  0.5505500000000  0.4585950000000  0.5120580000000 1.0
C      1  0.5328110000000  0.4958340000000  0.4460400000000 1.0
C      1  0.4418020000000  0.4802380000000  0.5369290000000 1.0
C      1  0.4863840000000  0.5227830000000  0.4474050000000 1.0
C      1  0.4325240000000  0.5061870000000  0.4780180000000 1.0
C      1  0.5624220000000  0.5286120000000  0.5156320000000 1.0
C      1  0.5237210000000  0.4681430000000  0.4481480000000 1.0
C      1  0.5045490000000  0.5197770000000  0.5604130000000 1.0
C      1  0.4889520000000  0.4367730000000  0.4834570000000 1.0
C      1  0.4468850000000  0.4886940000000  0.4599540000000 1.0
END
