TITL C-68138-9906-3 -0.272373498491794 125000 -331.455322295834 0 0 49 (C1) n - 1
REM
REM in /rds/project/t2_vol4/rds-t2-cs072/BORA/CARBON/from-Arr/AIRSS/Generating-Clusters/GAP-ML-2020/Higher-Symm/SD-CG/HFTN-CG
REM
REM
REM
REM
REM
REM ./C.cell (b20cbc046b6831c77cfcea5457e17084)
REM AIRSS Version 0.9.1 bugfix July 2018 build 013d7b7c2542+ Fri, 06 Jul 2018 19:26:36 +0100
REM compiler GCC version 9.3.0
REM options -cpp -mtune=generic -march=x86-64 -g -O0
REM seed 780088780 -520429864 -910356068 -2014359499 1551613590 -1897434332 948377170 819236677 -947738916 -527380667 -243886057 669053737 -1140253792 422113540 1830289671 -1492477222 1934245031 26518155 -1828512438 -776217570 1022550104 -2032061839 11296420 303350309 364959620 441508061 581427394 478490846 1168668896 -742338342 -369909371 1677051448 678990986
REM
CELL 1.54180   50.00000   50.00000   50.00000   90.00000   90.00000   90.00000
LATT -1
SFAC C  
C      1  0.4531840000000  0.5379630000000  0.5084870000000 1.0
C      1  0.4899630000000  0.4424030000000  0.5079030000000 1.0
C      1  0.5556030000000  0.5209740000000  0.5085820000000 1.0
C      1  0.5163300000000  0.4869680000000  0.5011340000000 1.0
C      1  0.5021790000000  0.5287620000000  0.4941380000000 1.0
C      1  0.4709460000000  0.4909980000000  0.4943190000000 1.0
C      1  0.5276140000000  0.5380110000000  0.4767210000000 1.0
C      1  0.4498470000000  0.5063640000000  0.4758780000000 1.0
C      1  0.5196400000000  0.4520620000000  0.4730800000000 1.0
C      1  0.5269570000000  0.5483880000000  0.5358140000000 1.0
C      1  0.4433490000000  0.5000620000000  0.5359480000000 1.0
C      1  0.5271730000000  0.4527140000000  0.5359750000000 1.0
C      1  0.4459300000000  0.4569420000000  0.5146740000000 1.0
C      1  0.5624860000000  0.4770430000000  0.5137050000000 1.0
C      1  0.4880240000000  0.5684130000000  0.5147800000000 1.0
C      1  0.5062320000000  0.5388130000000  0.4560790000000 1.0
C      1  0.4617090000000  0.4875560000000  0.4560060000000 1.0
C      1  0.5297050000000  0.4747150000000  0.4574980000000 1.0
C      1  0.4834970000000  0.5725560000000  0.4871120000000 1.0
C      1  0.4448420000000  0.4509640000000  0.4869880000000 1.0
C      1  0.5697580000000  0.4776460000000  0.4866780000000 1.0
C      1  0.5494420000000  0.4535110000000  0.5174470000000 1.0
C      1  0.5152330000000  0.5679150000000  0.5177040000000 1.0
C      1  0.4318790000000  0.4802700000000  0.5178660000000 1.0
C      1  0.5516920000000  0.4900290000000  0.4703050000000 1.0
C      1  0.4833440000000  0.5476270000000  0.4737090000000 1.0
C      1  0.4662260000000  0.4637450000000  0.4736180000000 1.0
C      1  0.5118280000000  0.4889390000000  0.4413730000000 1.0
C      1  0.5028080000000  0.5161780000000  0.4404780000000 1.0
C      1  0.4835920000000  0.4954340000000  0.4410300000000 1.0
C      1  0.4734910000000  0.5462340000000  0.5264410000000 1.0
C      1  0.4723570000000  0.4550930000000  0.5265490000000 1.0
C      1  0.5530380000000  0.5000410000000  0.5276160000000 1.0
C      1  0.5340530000000  0.4415400000000  0.4957630000000 1.0
C      1  0.5334710000000  0.5596840000000  0.4962350000000 1.0
C      1  0.4289870000000  0.5001170000000  0.4962690000000 1.0
C      1  0.4582360000000  0.5343260000000  0.4803750000000 1.0
C      1  0.4911500000000  0.4494350000000  0.4798280000000 1.0
C      1  0.5482750000000  0.5170360000000  0.4805330000000 1.0
C      1  0.5146640000000  0.4359420000000  0.5170090000000 1.0
C      1  0.5482540000000  0.5457090000000  0.5171410000000 1.0
C      1  0.4350130000000  0.5196950000000  0.5173300000000 1.0
C      1  0.4705970000000  0.5004580000000  0.5454220000000 1.0
C      1  0.5134250000000  0.4754700000000  0.5460990000000 1.0
C      1  0.5138450000000  0.5249030000000  0.5456710000000 1.0
C      1  0.5283660000000  0.5002550000000  0.5436720000000 1.0
C      1  0.4851580000000  0.5253010000000  0.5430200000000 1.0
C      1  0.4845110000000  0.4753880000000  0.5435570000000 1.0
C      1  0.4967800000000  0.5015520000000  0.4900500000000 1.0
END
