TITL C-68150-9982-12 0.0677873424443346 125000 -450.971631783153 0 0 65 (C1) n - 1
REM
REM in /rds/project/t2_vol4/rds-t2-cs072/BORA/CARBON/from-Arr/AIRSS/Generating-Clusters/GAP-ML-2020/Higher-Symm/SD-CG/HFTN-CG
REM
REM
REM
REM
REM
REM ./C.cell (b20cbc046b6831c77cfcea5457e17084)
REM AIRSS Version 0.9.1 bugfix July 2018 build 013d7b7c2542+ Fri, 06 Jul 2018 19:26:36 +0100
REM compiler GCC version 9.3.0
REM options -cpp -mtune=generic -march=x86-64 -g -O0
REM seed 1949076660 218941518 1560321342 -290585913 -1545677980 -1726942607 727435543 1445118293 368643900 1423190218 402482999 -430746811 -560317955 -805034728 848594133 -2062990395 -2000298449 -1993899539 -2121803301 641802539 375266250 496698639 -690257435 -2020277432 -1252537961 -923120473 -1701814972 1444791705 -594399061 1325642898 614878293 194607523 -608486239
REM
CELL 1.54180   50.00000   50.00000   50.00000   90.00000   90.00000   90.00000
LATT -1
SFAC C  
C      1  0.5102000000000  0.4377580000000  0.5236460000000 1.0
C      1  0.5437200000000  0.5474480000000  0.4971210000000 1.0
C      1  0.4281040000000  0.4791700000000  0.5007130000000 1.0
C      1  0.5734940000000  0.5103070000000  0.5127590000000 1.0
C      1  0.4553320000000  0.4461100000000  0.4795400000000 1.0
C      1  0.4987700000000  0.5694950000000  0.4920500000000 1.0
C      1  0.4746480000000  0.5299170000000  0.5710230000000 1.0
C      1  0.4405030000000  0.4831330000000  0.4557070000000 1.0
C      1  0.5154550000000  0.5114020000000  0.5358130000000 1.0
C      1  0.5401780000000  0.4756880000000  0.5078290000000 1.0
C      1  0.5250360000000  0.5668530000000  0.5058240000000 1.0
C      1  0.5402970000000  0.4584740000000  0.4822960000000 1.0
C      1  0.4994450000000  0.4887560000000  0.4953060000000 1.0
C      1  0.5657370000000  0.5133940000000  0.4637500000000 1.0
C      1  0.4450470000000  0.5259050000000  0.5124250000000 1.0
C      1  0.4836380000000  0.5069200000000  0.4819600000000 1.0
C      1  0.4642690000000  0.4743410000000  0.4426050000000 1.0
C      1  0.5299880000000  0.5054670000000  0.4330970000000 1.0
C      1  0.4996400000000  0.5308550000000  0.4806730000000 1.0
C      1  0.4761950000000  0.5223370000000  0.4377570000000 1.0
C      1  0.4740960000000  0.4502430000000  0.4569780000000 1.0
C      1  0.5268480000000  0.5252320000000  0.4878370000000 1.0
C      1  0.4813440000000  0.4947880000000  0.4315850000000 1.0
C      1  0.4933120000000  0.5540980000000  0.5330920000000 1.0
C      1  0.4891110000000  0.5559110000000  0.4682040000000 1.0
C      1  0.5177300000000  0.4630200000000  0.4419730000000 1.0
C      1  0.4603850000000  0.5500010000000  0.4722700000000 1.0
C      1  0.5422580000000  0.4689960000000  0.4560000000000 1.0
C      1  0.5627550000000  0.4857140000000  0.5243340000000 1.0
C      1  0.5259510000000  0.5315940000000  0.4419200000000 1.0
C      1  0.5800030000000  0.5089280000000  0.4861890000000 1.0
C      1  0.4543680000000  0.5145840000000  0.5730370000000 1.0
C      1  0.4587270000000  0.4431380000000  0.5087330000000 1.0
C      1  0.5524970000000  0.4935370000000  0.4468020000000 1.0
C      1  0.4599100000000  0.4937160000000  0.5525920000000 1.0
C      1  0.5135710000000  0.4842850000000  0.5503810000000 1.0
C      1  0.4535510000000  0.5290970000000  0.4549730000000 1.0
C      1  0.4554220000000  0.5498590000000  0.5003230000000 1.0
C      1  0.4343670000000  0.4650950000000  0.4765850000000 1.0
C      1  0.5180960000000  0.4224080000000  0.5019030000000 1.0
C      1  0.4872000000000  0.4773100000000  0.5596080000000 1.0
C      1  0.4985000000000  0.5394350000000  0.4453460000000 1.0
C      1  0.5084500000000  0.4869120000000  0.4298330000000 1.0
C      1  0.4307160000000  0.5075910000000  0.4946700000000 1.0
C      1  0.5268850000000  0.4621410000000  0.5318160000000 1.0
C      1  0.5211340000000  0.5578830000000  0.5319000000000 1.0
C      1  0.4736880000000  0.4541890000000  0.5504880000000 1.0
C      1  0.4748420000000  0.4934290000000  0.5059900000000 1.0
C      1  0.4477410000000  0.4675790000000  0.5468630000000 1.0
C      1  0.4811820000000  0.4389710000000  0.5280980000000 1.0
C      1  0.4665420000000  0.5106250000000  0.5283390000000 1.0
C      1  0.4394940000000  0.4619880000000  0.5209500000000 1.0
C      1  0.5206870000000  0.4376830000000  0.4796950000000 1.0
C      1  0.5375690000000  0.5335100000000  0.5406240000000 1.0
C      1  0.5231890000000  0.5015120000000  0.5060100000000 1.0
C      1  0.5529860000000  0.4717650000000  0.5467890000000 1.0
C      1  0.5486130000000  0.5270860000000  0.5668910000000 1.0
C      1  0.5393010000000  0.4848890000000  0.5678560000000 1.0
C      1  0.5024340000000  0.4442210000000  0.4563390000000 1.0
C      1  0.4886500000000  0.5269600000000  0.5418290000000 1.0
C      1  0.4782670000000  0.5637130000000  0.5113180000000 1.0
C      1  0.4362340000000  0.5095150000000  0.4655350000000 1.0
C      1  0.5445740000000  0.5328650000000  0.4652280000000 1.0
C      1  0.5575660000000  0.5337490000000  0.5184380000000 1.0
C      1  0.5495600000000  0.5065000000000  0.5819430000000 1.0
END
