TITL C-68153-9866-9 -126.323439710695 125000 -1248.6808370607 0 0 178 (C1) n - 1
REM
REM in /rds/project/t2_vol4/rds-t2-cs072/BORA/CARBON/from-Arr/AIRSS/Generating-Clusters/GAP-ML-2020/Higher-Symm/SD-CG/HFTN-CG
REM
REM
REM
REM
REM
REM ./C.cell (b20cbc046b6831c77cfcea5457e17084)
REM AIRSS Version 0.9.1 bugfix July 2018 build 013d7b7c2542+ Fri, 06 Jul 2018 19:26:36 +0100
REM compiler GCC version 9.3.0
REM options -cpp -mtune=generic -march=x86-64 -g -O0
REM seed -1878011215 -862817576 1611701008 -1523914680 501231056 1808625914 -162772411 705685853 107533353 -1476029192 -1428637150 -912058195 -1974933091 1901325343 2123669915 -668014372 1821406204 -1301512948 -269914959 900885113 -1893145734 1950343191 -1101190834 -211914489 1049063026 -1530768855 1980917303 -1205547711 289113763 -752592387 -2048406427 -1600015737 1212726621
REM
CELL 1.54180   50.00000   50.00000   50.00000   90.00000   90.00000   90.00000
LATT -1
SFAC C  
C      1  0.4825800000000  0.5495400000000  0.5412220000000 1.0
C      1  0.5394570000000  0.5305290000000  0.5421690000000 1.0
C      1  0.5373230000000  0.4724060000000  0.5415010000000 1.0
C      1  0.4913090000000  0.4574940000000  0.5404930000000 1.0
C      1  0.4508480000000  0.5000580000000  0.5406250000000 1.0
C      1  0.5403380000000  0.5495300000000  0.4988760000000 1.0
C      1  0.5583710000000  0.4767190000000  0.4992190000000 1.0
C      1  0.4972590000000  0.4357010000000  0.4988180000000 1.0
C      1  0.4386150000000  0.4845070000000  0.4985030000000 1.0
C      1  0.4657770000000  0.5543850000000  0.4980270000000 1.0
C      1  0.4145620000000  0.5064500000000  0.4553210000000 1.0
C      1  0.4796690000000  0.5838470000000  0.4549440000000 1.0
C      1  0.5725850000000  0.5446660000000  0.4557530000000 1.0
C      1  0.5648720000000  0.4439230000000  0.4551120000000 1.0
C      1  0.4674080000000  0.4212280000000  0.4556060000000 1.0
C      1  0.4786540000000  0.5329040000000  0.4838360000000 1.0
C      1  0.5237090000000  0.5315520000000  0.4840120000000 1.0
C      1  0.5334740000000  0.4872690000000  0.4871350000000 1.0
C      1  0.4990620000000  0.4629720000000  0.4866890000000 1.0
C      1  0.4623890000000  0.4905580000000  0.4838560000000 1.0
C      1  0.5025710000000  0.5592770000000  0.5246080000000 1.0
C      1  0.5566540000000  0.5158760000000  0.5253870000000 1.0
C      1  0.5363780000000  0.4456060000000  0.5257210000000 1.0
C      1  0.4653200000000  0.4552200000000  0.5249540000000 1.0
C      1  0.4451500000000  0.5216740000000  0.5242460000000 1.0
C      1  0.5500990000000  0.5660260000000  0.4542620000000 1.0
C      1  0.5766090000000  0.4723960000000  0.4545340000000 1.0
C      1  0.4981720000000  0.4176420000000  0.4540360000000 1.0
C      1  0.4211720000000  0.4761290000000  0.4541620000000 1.0
C      1  0.4528880000000  0.5683530000000  0.4536210000000 1.0
C      1  0.5227490000000  0.5470270000000  0.3993460000000 1.0
C      1  0.5518670000000  0.4928480000000  0.3994870000000 1.0
C      1  0.5093410000000  0.4484760000000  0.3992510000000 1.0
C      1  0.4540140000000  0.4752720000000  0.3992750000000 1.0
C      1  0.4623190000000  0.5360670000000  0.3991910000000 1.0
C      1  0.5103110000000  0.5225880000000  0.3905760000000 1.0
C      1  0.5247970000000  0.4972020000000  0.3907730000000 1.0
C      1  0.5051320000000  0.4755930000000  0.3907160000000 1.0
C      1  0.4784960000000  0.4876170000000  0.3905510000000 1.0
C      1  0.4816870000000  0.5166520000000  0.3904550000000 1.0
C      1  0.5821980000000  0.4424470000000  0.5618300000000 1.0
C      1  0.4720460000000  0.4047850000000  0.5613020000000 1.0
C      1  0.4025900000000  0.4975830000000  0.5618270000000 1.0
C      1  0.4669120000000  0.5939110000000  0.5613120000000 1.0
C      1  0.5787290000000  0.5598810000000  0.5619860000000 1.0
C      1  0.3931690000000  0.4872390000000  0.5363890000000 1.0
C      1  0.4548250000000  0.6000460000000  0.5353520000000 1.0
C      1  0.5805370000000  0.5733740000000  0.5363050000000 1.0
C      1  0.5949740000000  0.4455130000000  0.5360330000000 1.0
C      1  0.4784670000000  0.3924620000000  0.5357160000000 1.0
C      1  0.4571260000000  0.5480350000000  0.5261160000000 1.0
C      1  0.5312120000000  0.5553380000000  0.5271270000000 1.0
C      1  0.5610290000000  0.4871620000000  0.5270790000000 1.0
C      1  0.5091370000000  0.4345170000000  0.5261800000000 1.0
C      1  0.4437740000000  0.4745910000000  0.5266040000000 1.0
C      1  0.5901440000000  0.5634900000000  0.4724860000000 1.0
C      1  0.5881050000000  0.4330530000000  0.4721220000000 1.0
C      1  0.4645200000000  0.3952820000000  0.4720110000000 1.0
C      1  0.3895910000000  0.5008690000000  0.4724540000000 1.0
C      1  0.4670930000000  0.6062680000000  0.4716670000000 1.0
C      1  0.5633520000000  0.4879090000000  0.5799710000000 1.0
C      1  0.5098860000000  0.4343300000000  0.5795480000000 1.0
C      1  0.4448070000000  0.4732110000000  0.5788950000000 1.0
C      1  0.4530820000000  0.5491520000000  0.5793390000000 1.0
C      1  0.5307680000000  0.5573370000000  0.5796050000000 1.0
C      1  0.5143950000000  0.3915450000000  0.4919450000000 1.0
C      1  0.4028430000000  0.4528960000000  0.4928940000000 1.0
C      1  0.4249560000000  0.5795870000000  0.4918610000000 1.0
C      1  0.5521480000000  0.5957860000000  0.4929350000000 1.0
C      1  0.6057570000000  0.4795160000000  0.4925520000000 1.0
C      1  0.5413510000000  0.4705620000000  0.5716360000000 1.0
C      1  0.4886630000000  0.4528890000000  0.5709980000000 1.0
C      1  0.4560240000000  0.5015800000000  0.5710400000000 1.0
C      1  0.4828580000000  0.5432860000000  0.5717920000000 1.0
C      1  0.5390530000000  0.5297000000000  0.5712580000000 1.0
C      1  0.4469150000000  0.5736300000000  0.5670630000000 1.0
C      1  0.5526720000000  0.5718560000000  0.5679780000000 1.0
C      1  0.5832870000000  0.4710410000000  0.5677640000000 1.0
C      1  0.4999090000000  0.4101930000000  0.5674560000000 1.0
C      1  0.4183620000000  0.4739560000000  0.5677580000000 1.0
C      1  0.4229540000000  0.3978490000000  0.5060830000000 1.0
C      1  0.3795650000000  0.5419300000000  0.5054930000000 1.0
C      1  0.5027810000000  0.6272390000000  0.5060720000000 1.0
C      1  0.6218920000000  0.5359460000000  0.5061250000000 1.0
C      1  0.5729140000000  0.3934810000000  0.5055840000000 1.0
C      1  0.6100780000000  0.4894430000000  0.5194340000000 1.0
C      1  0.5252140000000  0.3895840000000  0.5189130000000 1.0
C      1  0.4058880000000  0.4425690000000  0.5197510000000 1.0
C      1  0.4153190000000  0.5742710000000  0.5186900000000 1.0
C      1  0.5438240000000  0.6028340000000  0.5198640000000 1.0
C      1  0.4274700000000  0.4604470000000  0.4781470000000 1.0
C      1  0.4396750000000  0.5580100000000  0.4775630000000 1.0
C      1  0.5361230000000  0.5756920000000  0.4780330000000 1.0
C      1  0.5807370000000  0.4882770000000  0.4786420000000 1.0
C      1  0.5150030000000  0.4179710000000  0.4777540000000 1.0
C      1  0.5138920000000  0.5699470000000  0.4163230000000 1.0
C      1  0.5706500000000  0.5082620000000  0.4169280000000 1.0
C      1  0.5298950000000  0.4350380000000  0.4161610000000 1.0
C      1  0.4476990000000  0.4516110000000  0.4163310000000 1.0
C      1  0.4379210000000  0.5347670000000  0.4163310000000 1.0
C      1  0.5387730000000  0.4393350000000  0.4744970000000 1.0
C      1  0.4554990000000  0.4450970000000  0.4755420000000 1.0
C      1  0.4332360000000  0.5267580000000  0.4746750000000 1.0
C      1  0.5044240000000  0.5722130000000  0.4747400000000 1.0
C      1  0.5683290000000  0.5174710000000  0.4755430000000 1.0
C      1  0.5041770000000  0.5647150000000  0.5787050000000 1.0
C      1  0.5633750000000  0.5156430000000  0.5795860000000 1.0
C      1  0.5366340000000  0.4425110000000  0.5793570000000 1.0
C      1  0.4604810000000  0.4501810000000  0.5780710000000 1.0
C      1  0.4376130000000  0.5262100000000  0.5786670000000 1.0
C      1  0.5112670000000  0.6074390000000  0.5525540000000 1.0
C      1  0.6055500000000  0.5215100000000  0.5524500000000 1.0
C      1  0.5549890000000  0.4036690000000  0.5521890000000 1.0
C      1  0.4282370000000  0.4197780000000  0.5524480000000 1.0
C      1  0.4006880000000  0.5447610000000  0.5516530000000 1.0
C      1  0.4623200000000  0.5147770000000  0.4694300000000 1.0
C      1  0.5016870000000  0.5409980000000  0.4693870000000 1.0
C      1  0.5379580000000  0.5110010000000  0.4707550000000 1.0
C      1  0.5229050000000  0.4654960000000  0.4689110000000 1.0
C      1  0.4752890000000  0.4690010000000  0.4707360000000 1.0
C      1  0.4637640000000  0.4302790000000  0.4257200000000 1.0
C      1  0.4222540000000  0.5129640000000  0.4254170000000 1.0
C      1  0.4883010000000  0.5781620000000  0.4251410000000 1.0
C      1  0.5703270000000  0.5350610000000  0.4259340000000 1.0
C      1  0.5553170000000  0.4435160000000  0.4252140000000 1.0
C      1  0.4311580000000  0.5131140000000  0.5010790000000 1.0
C      1  0.4907570000000  0.5698470000000  0.5010440000000 1.0
C      1  0.5629780000000  0.5303460000000  0.5018980000000 1.0
C      1  0.5502290000000  0.4480900000000  0.5011930000000 1.0
C      1  0.4678740000000  0.4384260000000  0.5021980000000 1.0
C      1  0.4868380000000  0.3843940000000  0.4886190000000 1.0
C      1  0.3869030000000  0.4764840000000  0.4894110000000 1.0
C      1  0.4427230000000  0.6018240000000  0.4883430000000 1.0
C      1  0.5786320000000  0.5853020000000  0.4893360000000 1.0
C      1  0.6045160000000  0.4511200000000  0.4890050000000 1.0
C      1  0.3952190000000  0.5548170000000  0.5258830000000 1.0
C      1  0.5191550000000  0.6159530000000  0.5268280000000 1.0
C      1  0.6160610000000  0.5166820000000  0.5267310000000 1.0
C      1  0.5530050000000  0.3921720000000  0.5264300000000 1.0
C      1  0.4172330000000  0.4171760000000  0.5267140000000 1.0
C      1  0.3792020000000  0.5172390000000  0.4952130000000 1.0
C      1  0.4794480000000  0.6211890000000  0.4944650000000 1.0
C      1  0.6083650000000  0.5562560000000  0.4951110000000 1.0
C      1  0.5872410000000  0.4132800000000  0.4947110000000 1.0
C      1  0.4457250000000  0.3898300000000  0.4946110000000 1.0
C      1  0.4856480000000  0.4807630000000  0.4456550000000 1.0
C      1  0.4777220000000  0.5080970000000  0.4448830000000 1.0
C      1  0.5009950000000  0.5239860000000  0.4447900000000 1.0
C      1  0.5232370000000  0.5065230000000  0.4455960000000 1.0
C      1  0.5139780000000  0.4796550000000  0.4451070000000 1.0
C      1  0.4690120000000  0.5622590000000  0.4112160000000 1.0
C      1  0.5495210000000  0.5486700000000  0.4118030000000 1.0
C      1  0.5618090000000  0.4677740000000  0.4115370000000 1.0
C      1  0.4886000000000  0.4313500000000  0.4115890000000 1.0
C      1  0.4312590000000  0.4896960000000  0.4114780000000 1.0
C      1  0.3789300000000  0.4918660000000  0.5125290000000 1.0
C      1  0.4547940000000  0.6147160000000  0.5113560000000 1.0
C      1  0.5944610000000  0.5774810000000  0.5122680000000 1.0
C      1  0.6026750000000  0.4335490000000  0.5119400000000 1.0
C      1  0.4695570000000  0.3810720000000  0.5117080000000 1.0
C      1  0.4264880000000  0.4669940000000  0.4285380000000 1.0
C      1  0.4459040000000  0.5598660000000  0.4281890000000 1.0
C      1  0.5400080000000  0.5699020000000  0.4287170000000 1.0
C      1  0.5786500000000  0.4833330000000  0.4290650000000 1.0
C      1  0.5087670000000  0.4196790000000  0.4284490000000 1.0
C      1  0.4136270000000  0.4648070000000  0.5380230000000 1.0
C      1  0.4385050000000  0.5744580000000  0.5371860000000 1.0
C      1  0.5508230000000  0.5804470000000  0.5381950000000 1.0
C      1  0.5904360000000  0.4758510000000  0.5377790000000 1.0
C      1  0.5063780000000  0.4045140000000  0.5374170000000 1.0
C      1  0.4100380000000  0.5250890000000  0.5678670000000 1.0
C      1  0.4952860000000  0.5919230000000  0.5679320000000 1.0
C      1  0.5867490000000  0.5323010000000  0.5683350000000 1.0
C      1  0.5592320000000  0.4252260000000  0.5680650000000 1.0
C      1  0.4501840000000  0.4233290000000  0.5677370000000 1.0
C      1  0.5093740000000  0.4809080000000  0.5333510000000 1.0
C      1  0.4820740000000  0.5144160000000  0.5765010000000 1.0
C      1  0.5088100000000  0.4854930000000  0.5049420000000 1.0
END
