TITL C-68150-9982-7 118.912354522879 125000 -739.115325973374 0 0 108 (C1) n - 1
REM
REM in /rds/project/t2_vol4/rds-t2-cs072/BORA/CARBON/from-Arr/AIRSS/Generating-Clusters/GAP-ML-2020/Higher-Symm/SD-CG/HFTN-CG
REM
REM
REM
REM
REM
REM ./C.cell (b20cbc046b6831c77cfcea5457e17084)
REM AIRSS Version 0.9.1 bugfix July 2018 build 013d7b7c2542+ Fri, 06 Jul 2018 19:26:36 +0100
REM compiler GCC version 9.3.0
REM options -cpp -mtune=generic -march=x86-64 -g -O0
REM seed -1404808616 1251718051 2026895593 -931304935 1409617462 -1031716496 574620249 -703913399 -1620375879 -1381177756 610122538 145191202 -247094646 -1002204838 2000363355 -1824699733 1857234017 1487855972 386911269 2007685429 -1758278212 1357716337 -493197141 -1383583528 1076091033 799461280 197751834 1095112339 415842459 1375982791 -1558027031 -287403148 -807613756
REM
CELL 1.54180   50.00000   50.00000   50.00000   90.00000   90.00000   90.00000
LATT -1
SFAC C  
C      1  0.5555670000000  0.4652810000000  0.4489750000000 1.0
C      1  0.5535050000000  0.5482050000000  0.4496870000000 1.0
C      1  0.4978130000000  0.5741140000000  0.4507280000000 1.0
C      1  0.4352670000000  0.5333750000000  0.4508630000000 1.0
C      1  0.4511400000000  0.4520360000000  0.4503020000000 1.0
C      1  0.5125880000000  0.4274830000000  0.4532070000000 1.0
C      1  0.5634970000000  0.4661250000000  0.5507330000000 1.0
C      1  0.5542060000000  0.5446650000000  0.5474180000000 1.0
C      1  0.4980860000000  0.5705550000000  0.5504470000000 1.0
C      1  0.4346740000000  0.5244790000000  0.5478930000000 1.0
C      1  0.4420310000000  0.4602380000000  0.5475810000000 1.0
C      1  0.5155790000000  0.4286770000000  0.5536520000000 1.0
C      1  0.4746030000000  0.5736890000000  0.5307220000000 1.0
C      1  0.4166850000000  0.5110080000000  0.5283420000000 1.0
C      1  0.4496820000000  0.4366120000000  0.5309430000000 1.0
C      1  0.5357020000000  0.4154510000000  0.5377800000000 1.0
C      1  0.5732300000000  0.4855770000000  0.5282470000000 1.0
C      1  0.5558870000000  0.5703230000000  0.5349800000000 1.0
C      1  0.4744840000000  0.5756200000000  0.4715810000000 1.0
C      1  0.4184830000000  0.5159280000000  0.4667400000000 1.0
C      1  0.4527060000000  0.4311810000000  0.4714520000000 1.0
C      1  0.5347810000000  0.4160850000000  0.4678570000000 1.0
C      1  0.5693260000000  0.4849260000000  0.4693480000000 1.0
C      1  0.5560390000000  0.5724010000000  0.4652210000000 1.0
C      1  0.4780150000000  0.4439710000000  0.4868340000000 1.0
C      1  0.5258060000000  0.4603010000000  0.4940030000000 1.0
C      1  0.5509210000000  0.5064620000000  0.4844190000000 1.0
C      1  0.5179790000000  0.5485490000000  0.4838560000000 1.0
C      1  0.4637080000000  0.5488270000000  0.4858180000000 1.0
C      1  0.4356560000000  0.4916960000000  0.4820930000000 1.0
C      1  0.4780510000000  0.4459580000000  0.5170580000000 1.0
C      1  0.5260880000000  0.4626980000000  0.5197230000000 1.0
C      1  0.5524030000000  0.5067320000000  0.5151220000000 1.0
C      1  0.5151310000000  0.5498170000000  0.5104710000000 1.0
C      1  0.4640680000000  0.5479980000000  0.5159020000000 1.0
C      1  0.4355600000000  0.4917000000000  0.5120920000000 1.0
C      1  0.5706000000000  0.4431380000000  0.5345030000000 1.0
C      1  0.5712240000000  0.5308780000000  0.5267730000000 1.0
C      1  0.5139880000000  0.5900240000000  0.5361150000000 1.0
C      1  0.4350620000000  0.5495840000000  0.5313500000000 1.0
C      1  0.4215870000000  0.4684420000000  0.5278570000000 1.0
C      1  0.4933490000000  0.4224330000000  0.5328840000000 1.0
C      1  0.5647080000000  0.4428150000000  0.4643910000000 1.0
C      1  0.5679340000000  0.5310050000000  0.4702960000000 1.0
C      1  0.5141450000000  0.5920630000000  0.4668370000000 1.0
C      1  0.4351930000000  0.5548640000000  0.4717830000000 1.0
C      1  0.4285620000000  0.4650490000000  0.4655050000000 1.0
C      1  0.4930770000000  0.4192720000000  0.4747810000000 1.0
C      1  0.4973550000000  0.5313080000000  0.4189540000000 1.0
C      1  0.4747780000000  0.5143930000000  0.4232190000000 1.0
C      1  0.4804070000000  0.4857870000000  0.4206620000000 1.0
C      1  0.5007130000000  0.4827320000000  0.4017160000000 1.0
C      1  0.5249900000000  0.4900130000000  0.4154390000000 1.0
C      1  0.5237650000000  0.5190590000000  0.4180250000000 1.0
C      1  0.4995420000000  0.5276420000000  0.5819210000000 1.0
C      1  0.4772100000000  0.5108100000000  0.5780480000000 1.0
C      1  0.4790280000000  0.4822500000000  0.5790350000000 1.0
C      1  0.5045200000000  0.4707230000000  0.5834120000000 1.0
C      1  0.5287620000000  0.4875290000000  0.5838730000000 1.0
C      1  0.5260210000000  0.5150800000000  0.5813600000000 1.0
C      1  0.5247220000000  0.5083780000000  0.5295980000000 1.0
C      1  0.5039190000000  0.5235150000000  0.5157930000000 1.0
C      1  0.4758050000000  0.5215310000000  0.5254840000000 1.0
C      1  0.4664000000000  0.4957900000000  0.5121580000000 1.0
C      1  0.4818580000000  0.4747470000000  0.5278640000000 1.0
C      1  0.5107640000000  0.4825450000000  0.5309620000000 1.0
C      1  0.5227650000000  0.5028680000000  0.4748560000000 1.0
C      1  0.5045560000000  0.5234830000000  0.4799510000000 1.0
C      1  0.4756180000000  0.5237470000000  0.4722010000000 1.0
C      1  0.4672370000000  0.4958930000000  0.4818760000000 1.0
C      1  0.4838100000000  0.4716810000000  0.4727590000000 1.0
C      1  0.5115410000000  0.4778070000000  0.4792630000000 1.0
C      1  0.5206190000000  0.4487810000000  0.5719360000000 1.0
C      1  0.5443510000000  0.4661450000000  0.5711190000000 1.0
C      1  0.5311330000000  0.5302860000000  0.5552450000000 1.0
C      1  0.5075980000000  0.5485610000000  0.5633590000000 1.0
C      1  0.4605460000000  0.5117340000000  0.5527520000000 1.0
C      1  0.4633040000000  0.4791510000000  0.5532310000000 1.0
C      1  0.5090580000000  0.4495380000000  0.4373730000000 1.0
C      1  0.5326360000000  0.4666230000000  0.4318170000000 1.0
C      1  0.5340160000000  0.5433610000000  0.4310600000000 1.0
C      1  0.5074250000000  0.5554670000000  0.4323250000000 1.0
C      1  0.4620340000000  0.5269040000000  0.4448840000000 1.0
C      1  0.4792670000000  0.4640590000000  0.4419950000000 1.0
C      1  0.4934410000000  0.5936980000000  0.4877090000000 1.0
C      1  0.4145890000000  0.5386700000000  0.4863440000000 1.0
C      1  0.4283140000000  0.4420610000000  0.4848820000000 1.0
C      1  0.5168590000000  0.4079470000000  0.4897790000000 1.0
C      1  0.5773190000000  0.4600540000000  0.4847610000000 1.0
C      1  0.5710710000000  0.5575180000000  0.4857310000000 1.0
C      1  0.4929350000000  0.5933070000000  0.5155920000000 1.0
C      1  0.4140480000000  0.5374390000000  0.5139630000000 1.0
C      1  0.4265420000000  0.4427130000000  0.5127600000000 1.0
C      1  0.5162890000000  0.4082120000000  0.5173850000000 1.0
C      1  0.5802120000000  0.4599440000000  0.5125030000000 1.0
C      1  0.5724290000000  0.5578560000000  0.5133950000000 1.0
C      1  0.5629800000000  0.4174190000000  0.5401830000000 1.0
C      1  0.5888320000000  0.5094740000000  0.5326750000000 1.0
C      1  0.5409520000000  0.5927870000000  0.5396840000000 1.0
C      1  0.4464590000000  0.5742740000000  0.5389750000000 1.0
C      1  0.4007840000000  0.4874960000000  0.5339900000000 1.0
C      1  0.4659570000000  0.4151860000000  0.5397780000000 1.0
C      1  0.5613250000000  0.4155440000000  0.4607810000000 1.0
C      1  0.5845850000000  0.5087230000000  0.4632040000000 1.0
C      1  0.5410560000000  0.5952420000000  0.4625790000000 1.0
C      1  0.4461000000000  0.5801100000000  0.4652260000000 1.0
C      1  0.4131950000000  0.4886650000000  0.4606000000000 1.0
C      1  0.4672780000000  0.4074340000000  0.4668340000000 1.0
END
