TITL C-68140-9827-7 6.07370198621735 125000 -165.851673050747 0 0 25 (C5v) n - 1
REM
REM in /rds/project/t2_vol4/rds-t2-cs072/BORA/CARBON/from-Arr/AIRSS/Generating-Clusters/GAP-ML-2020/Higher-Symm/SD-CG/HFTN-CG
REM
REM
REM
REM
REM
REM ./C.cell (b20cbc046b6831c77cfcea5457e17084)
REM AIRSS Version 0.9.1 bugfix July 2018 build 013d7b7c2542+ Fri, 06 Jul 2018 19:26:36 +0100
REM compiler GCC version 9.3.0
REM options -cpp -mtune=generic -march=x86-64 -g -O0
REM seed -2135382792 -1363041661 -710054407 -370262938 1614230871 1198368964 683125892 1687354408 1228481873 373791473 -924689725 1589497455 218314183 950783289 -1066789944 326721643 -1468716762 363342718 -754305859 599135372 -1734090966 -55453696 2024901680 1554935268 -1019012105 514472129 -97869002 1869246057 -2140255504 1043081398 1139572032 -1826681978 158169533
REM
CELL 1.54180   50.00000   50.00000   50.00000   90.00000   90.00000   90.00000
LATT -1
SFAC C  
C      1  0.4599880000000  0.4961870000000  0.4701140000000 1.0
C      1  0.4840140000000  0.5368890000000  0.4701270000000 1.0
C      1  0.5301490000000  0.5266150000000  0.4701440000000 1.0
C      1  0.5346350000000  0.4795640000000  0.4701410000000 1.0
C      1  0.4912720000000  0.4607580000000  0.4701230000000 1.0
C      1  0.5528250000000  0.5298250000000  0.5212330000000 1.0
C      1  0.5446850000000  0.4589670000000  0.5212230000000 1.0
C      1  0.4747800000000  0.4448130000000  0.5211950000000 1.0
C      1  0.4397170000000  0.5069230000000  0.5211870000000 1.0
C      1  0.4879510000000  0.5594630000000  0.5212100000000 1.0
C      1  0.4648070000000  0.5494250000000  0.5212000000000 1.0
C      1  0.5361270000000  0.5487350000000  0.5212280000000 1.0
C      1  0.5575090000000  0.4806920000000  0.5212300000000 1.0
C      1  0.4994050000000  0.4393300000000  0.5212040000000 1.0
C      1  0.4421110000000  0.4818090000000  0.5211850000000 1.0
C      1  0.4580680000000  0.4629740000000  0.5073780000000 1.0
C      1  0.4518270000000  0.5284350000000  0.5073820000000 1.0
C      1  0.5121560000000  0.5545990000000  0.5074070000000 1.0
C      1  0.5556820000000  0.5053080000000  0.5074200000000 1.0
C      1  0.5222540000000  0.4486800000000  0.5074010000000 1.0
C      1  0.5094340000000  0.5423340000000  0.4800610000000 1.0
C      1  0.5431810000000  0.5041180000000  0.4800710000000 1.0
C      1  0.5172630000000  0.4602140000000  0.4800570000000 1.0
C      1  0.4674990000000  0.4712960000000  0.4800390000000 1.0
C      1  0.4626610000000  0.5220480000000  0.4800410000000 1.0
END
