TITL C-68153-9866-2 -0.213171276614556 125000 -977.945272072828 0 0 142 (D3) n - 1
REM
REM in /rds/project/t2_vol4/rds-t2-cs072/BORA/CARBON/from-Arr/AIRSS/Generating-Clusters/GAP-ML-2020/Higher-Symm/SD-CG/HFTN-CG
REM
REM
REM
REM
REM
REM ./C.cell (b20cbc046b6831c77cfcea5457e17084)
REM AIRSS Version 0.9.1 bugfix July 2018 build 013d7b7c2542+ Fri, 06 Jul 2018 19:26:36 +0100
REM compiler GCC version 9.3.0
REM options -cpp -mtune=generic -march=x86-64 -g -O0
REM seed -240710045 -992052052 -383595701 -424114062 -128251504 588493380 -1714090611 -1496147685 794517439 1207077230 2100502123 -68538389 -1981107062 -1461858504 -169656530 -1032702558 -257863655 865506047 1692433488 -1732620225 -2019610849 25913379 585060081 -314713798 -401287889 1560261357 -466242997 -819004379 -1411028592 -940161861 -1588277762 -1465163272 -1402482456
REM
CELL 1.54180   50.00000   50.00000   50.00000   90.00000   90.00000   90.00000
LATT -1
SFAC C  
C      1  0.4779790000000  0.4913690000000  0.6000360000000 1.0
C      1  0.4779820000000  0.4171250000000  0.4424390000000 1.0
C      1  0.4779820000000  0.5907300000000  0.4569410000000 1.0
C      1  0.5220090000000  0.5081100000000  0.6000370000000 1.0
C      1  0.5220120000000  0.5823590000000  0.4424430000000 1.0
C      1  0.5220120000000  0.4087540000000  0.4569380000000 1.0
C      1  0.5502720000000  0.4631880000000  0.4147530000000 1.0
C      1  0.5502700000000  0.5916760000000  0.5106770000000 1.0
C      1  0.5502690000000  0.4443590000000  0.5739890000000 1.0
C      1  0.4497230000000  0.5362980000000  0.4147520000000 1.0
C      1  0.4497220000000  0.4078060000000  0.5106720000000 1.0
C      1  0.4497200000000  0.5551200000000  0.5739890000000 1.0
C      1  0.5880500000000  0.5083330000000  0.5411440000000 1.0
C      1  0.5880520000000  0.4596460000000  0.4865790000000 1.0
C      1  0.5880520000000  0.5312440000000  0.4716980000000 1.0
C      1  0.4119400000000  0.4911480000000  0.5411400000000 1.0
C      1  0.4119410000000  0.5398370000000  0.4865780000000 1.0
C      1  0.4119420000000  0.4682400000000  0.4716930000000 1.0
C      1  0.5655170000000  0.4434700000000  0.4809370000000 1.0
C      1  0.5655170000000  0.5442190000000  0.4605090000000 1.0
C      1  0.5655150000000  0.5115350000000  0.5579740000000 1.0
C      1  0.4344770000000  0.5560130000000  0.4809370000000 1.0
C      1  0.4344770000000  0.4552650000000  0.4605050000000 1.0
C      1  0.4344750000000  0.4879450000000  0.5579710000000 1.0
C      1  0.5761140000000  0.4687390000000  0.4237970000000 1.0
C      1  0.5761120000000  0.5810680000000  0.5109630000000 1.0
C      1  0.5761110000000  0.4494160000000  0.5646600000000 1.0
C      1  0.4238820000000  0.5307460000000  0.4237960000000 1.0
C      1  0.4238800000000  0.4184140000000  0.5109570000000 1.0
C      1  0.4238790000000  0.5500640000000  0.5646590000000 1.0
C      1  0.5181650000000  0.4454980000000  0.4874500000000 1.0
C      1  0.5181660000000  0.5375640000000  0.4590080000000 1.0
C      1  0.5181640000000  0.5161620000000  0.5529600000000 1.0
C      1  0.4818270000000  0.5539850000000  0.4874510000000 1.0
C      1  0.4818280000000  0.4619210000000  0.4590060000000 1.0
C      1  0.4818260000000  0.4833180000000  0.5529580000000 1.0
C      1  0.5935410000000  0.5056370000000  0.4607680000000 1.0
C      1  0.5935400000000  0.5306030000000  0.5244330000000 1.0
C      1  0.5935400000000  0.4629840000000  0.5142210000000 1.0
C      1  0.4064530000000  0.4938470000000  0.4607640000000 1.0
C      1  0.4064520000000  0.4688790000000  0.5244280000000 1.0
C      1  0.4064520000000  0.5364980000000  0.5142190000000 1.0
C      1  0.5220110000000  0.4758180000000  0.4911330000000 1.0
C      1  0.5220110000000  0.5192140000000  0.4834240000000 1.0
C      1  0.5220110000000  0.5041920000000  0.5248600000000 1.0
C      1  0.4779810000000  0.5236650000000  0.4911330000000 1.0
C      1  0.4779820000000  0.4802690000000  0.4834230000000 1.0
C      1  0.4779810000000  0.4952900000000  0.5248590000000 1.0
C      1  0.5454280000000  0.5296650000000  0.4441190000000 1.0
C      1  0.5454260000000  0.5330060000000  0.5535650000000 1.0
C      1  0.5454270000000  0.4365530000000  0.5017350000000 1.0
C      1  0.4545670000000  0.4698200000000  0.4441160000000 1.0
C      1  0.4545650000000  0.4664740000000  0.5535620000000 1.0
C      1  0.4545660000000  0.5629300000000  0.5017360000000 1.0
C      1  0.5429940000000  0.5495740000000  0.5777830000000 1.0
C      1  0.5429960000000  0.4072940000000  0.5039740000000 1.0
C      1  0.5429970000000  0.5423550000000  0.4176610000000 1.0
C      1  0.4569950000000  0.4499050000000  0.5777800000000 1.0
C      1  0.4569960000000  0.5921880000000  0.5039760000000 1.0
C      1  0.4569980000000  0.4571310000000  0.4176580000000 1.0
C      1  0.4246450000000  0.5106720000000  0.4445020000000 1.0
C      1  0.4246430000000  0.5421690000000  0.5369210000000 1.0
C      1  0.4246440000000  0.4463830000000  0.5179890000000 1.0
C      1  0.5753490000000  0.4888130000000  0.4445040000000 1.0
C      1  0.5753480000000  0.4573120000000  0.5369220000000 1.0
C      1  0.5753480000000  0.5530990000000  0.5179940000000 1.0
C      1  0.4462120000000  0.5075010000000  0.5739270000000 1.0
C      1  0.4462140000000  0.4316700000000  0.4694630000000 1.0
C      1  0.4462140000000  0.5600530000000  0.4560230000000 1.0
C      1  0.5537780000000  0.4919790000000  0.5739290000000 1.0
C      1  0.5537800000000  0.5678140000000  0.4694680000000 1.0
C      1  0.5537800000000  0.4394310000000  0.4560230000000 1.0
C      1  0.4947010000000  0.4512590000000  0.4145920000000 1.0
C      1  0.4946990000000  0.5977790000000  0.5004250000000 1.0
C      1  0.4946980000000  0.4501850000000  0.5843990000000 1.0
C      1  0.5052950000000  0.5482270000000  0.4145940000000 1.0
C      1  0.5052930000000  0.4017030000000  0.5004210000000 1.0
C      1  0.5052920000000  0.5492940000000  0.5844010000000 1.0
C      1  0.5284800000000  0.5718050000000  0.5192940000000 1.0
C      1  0.5284790000000  0.4468320000000  0.5524710000000 1.0
C      1  0.5284820000000  0.4805860000000  0.4276530000000 1.0
C      1  0.4715120000000  0.4276770000000  0.5192900000000 1.0
C      1  0.4715110000000  0.5526480000000  0.5524720000000 1.0
C      1  0.4715140000000  0.5188990000000  0.4276530000000 1.0
C      1  0.4859550000000  0.4987990000000  0.4095710000000 1.0
C      1  0.4859520000000  0.5783570000000  0.5441070000000 1.0
C      1  0.4859520000000  0.4220670000000  0.5457380000000 1.0
C      1  0.5140410000000  0.5006870000000  0.4095720000000 1.0
C      1  0.5140390000000  0.4211240000000  0.5441040000000 1.0
C      1  0.5140390000000  0.5774130000000  0.5457410000000 1.0
C      1  0.5084400000000  0.4592280000000  0.4402150000000 1.0
C      1  0.5084390000000  0.5716040000000  0.4945150000000 1.0
C      1  0.5084370000000  0.4683910000000  0.5646860000000 1.0
C      1  0.4915550000000  0.5402570000000  0.4402170000000 1.0
C      1  0.4915540000000  0.4278780000000  0.4945120000000 1.0
C      1  0.4915530000000  0.5310890000000  0.5646870000000 1.0
C      1  0.5244360000000  0.5662400000000  0.4682280000000 1.0
C      1  0.5244340000000  0.4938390000000  0.5731850000000 1.0
C      1  0.5244360000000  0.4391440000000  0.4580050000000 1.0
C      1  0.4755580000000  0.4332430000000  0.4682240000000 1.0
C      1  0.4755560000000  0.5056400000000  0.5731840000000 1.0
C      1  0.4755580000000  0.5603400000000  0.4580060000000 1.0
C      1  0.4780500000000  0.4312650000000  0.5709990000000 1.0
C      1  0.4780530000000  0.4723240000000  0.4049060000000 1.0
C      1  0.4780510000000  0.5956350000000  0.5235110000000 1.0
C      1  0.5219400000000  0.5682150000000  0.5710020000000 1.0
C      1  0.5219430000000  0.5271620000000  0.4049070000000 1.0
C      1  0.5219410000000  0.4038460000000  0.5235080000000 1.0
C      1  0.4729730000000  0.4336790000000  0.4209620000000 1.0
C      1  0.4729720000000  0.6010520000000  0.4820140000000 1.0
C      1  0.4729700000000  0.4644930000000  0.5964380000000 1.0
C      1  0.5270220000000  0.5658070000000  0.4209660000000 1.0
C      1  0.5270210000000  0.3984310000000  0.4820110000000 1.0
C      1  0.5270190000000  0.5349860000000  0.5964410000000 1.0
C      1  0.5349880000000  0.4793610000000  0.5164680000000 1.0
C      1  0.5349890000000  0.4955010000000  0.4738250000000 1.0
C      1  0.5349880000000  0.5243610000000  0.5091250000000 1.0
C      1  0.4650040000000  0.5201210000000  0.5164680000000 1.0
C      1  0.4650040000000  0.5039820000000  0.4738240000000 1.0
C      1  0.4650040000000  0.4751210000000  0.5091220000000 1.0
C      1  0.5641100000000  0.4671660000000  0.5826290000000 1.0
C      1  0.5641130000000  0.4443020000000  0.4301840000000 1.0
C      1  0.5641120000000  0.5877550000000  0.4866060000000 1.0
C      1  0.4358800000000  0.5323130000000  0.5826280000000 1.0
C      1  0.4358820000000  0.5551830000000  0.4301840000000 1.0
C      1  0.4358810000000  0.4117280000000  0.4866000000000 1.0
C      1  0.4067230000000  0.4623320000000  0.4984820000000 1.0
C      1  0.4067240000000  0.5195900000000  0.4680670000000 1.0
C      1  0.4067230000000  0.5173020000000  0.5328620000000 1.0
C      1  0.5932690000000  0.5371510000000  0.4984870000000 1.0
C      1  0.5932700000000  0.4798930000000  0.4680690000000 1.0
C      1  0.5932680000000  0.4821790000000  0.5328650000000 1.0
C      1  0.5461660000000  0.4545120000000  0.5278580000000 1.0
C      1  0.5461680000000  0.4980630000000  0.4466110000000 1.0
C      1  0.5461670000000  0.5466490000000  0.5249510000000 1.0
C      1  0.4538250000000  0.5449700000000  0.5278580000000 1.0
C      1  0.4538260000000  0.5014220000000  0.4466090000000 1.0
C      1  0.4538250000000  0.4528320000000  0.5249470000000 1.0
C      1  0.4999970000000  0.5982760000000  0.4429190000000 1.0
C      1  0.4999970000000  0.4012080000000  0.4429150000000 1.0
C      1  0.4999940000000  0.4997390000000  0.6135830000000 1.0
C      1  0.4999960000000  0.4997410000000  0.4998050000000 1.0
END
