TITL C-68131-142-2 -0.112478905123637 125000 -318.677406085404 0 0 48 (Cs) n - 1
REM
REM in /rds/project/t2_vol4/rds-t2-cs072/BORA/CARBON/from-Arr/AIRSS/Generating-Clusters/GAP-ML-2020/Higher-Symm/SD-CG/HFTN-CG
REM
REM
REM
REM
REM
REM ./C.cell (b20cbc046b6831c77cfcea5457e17084)
REM AIRSS Version 0.9.1 bugfix July 2018 build 013d7b7c2542+ Fri, 06 Jul 2018 19:26:36 +0100
REM compiler GCC version 9.3.0
REM options -cpp -mtune=generic -march=x86-64 -g -O0
REM seed -167592024 -1190122117 -1482754383 -955309716 -798760887 -956159212 -201184573 146543811 1484907149 1885050403 2022947732 -1567091556 777942703 1708142942 693300853 -1362785623 -8953045 -1627814060 -44128397 -597517970 -1109630134 -1598699326 1719063940 1012651092 -1703321953 -1690537870 -1509819070 1688140682 -78130044 -1507579196 -1964020982 826389104 -157290631
REM
CELL 1.54180   50.00000   50.00000   50.00000   90.00000   90.00000   90.00000
LATT -1
SFAC C  
C      1  0.4857380000000  0.5265020000000  0.5524880000000 1.0
C      1  0.5142640000000  0.5265020000000  0.5524870000000 1.0
C      1  0.5142110000000  0.5699600000000  0.4963110000000 1.0
C      1  0.4857880000000  0.5699590000000  0.4963120000000 1.0
C      1  0.4740000000000  0.4552680000000  0.4844440000000 1.0
C      1  0.5260000000000  0.4552680000000  0.4844430000000 1.0
C      1  0.5515610000000  0.4612010000000  0.4727810000000 1.0
C      1  0.4484380000000  0.4612010000000  0.4727840000000 1.0
C      1  0.4854190000000  0.4369730000000  0.5263640000000 1.0
C      1  0.5145840000000  0.4369730000000  0.5263630000000 1.0
C      1  0.4390870000000  0.4546690000000  0.4970570000000 1.0
C      1  0.5609140000000  0.4546700000000  0.4970540000000 1.0
C      1  0.5148550000000  0.4318250000000  0.4973270000000 1.0
C      1  0.4851460000000  0.4318240000000  0.4973280000000 1.0
C      1  0.5287640000000  0.5283900000000  0.4848290000000 1.0
C      1  0.4712350000000  0.5283900000000  0.4848310000000 1.0
C      1  0.4713080000000  0.5565300000000  0.4748040000000 1.0
C      1  0.5286900000000  0.5565310000000  0.4748020000000 1.0
C      1  0.5296440000000  0.4602830000000  0.5334680000000 1.0
C      1  0.4703590000000  0.4602820000000  0.5334690000000 1.0
C      1  0.5502760000000  0.4883610000000  0.4623730000000 1.0
C      1  0.4497220000000  0.4883600000000  0.4623760000000 1.0
C      1  0.4757380000000  0.5583430000000  0.5206760000000 1.0
C      1  0.5242620000000  0.5583440000000  0.5206740000000 1.0
C      1  0.5266610000000  0.5108600000000  0.5298650000000 1.0
C      1  0.4733400000000  0.5108590000000  0.5298670000000 1.0
C      1  0.4478090000000  0.5043990000000  0.5151530000000 1.0
C      1  0.5521920000000  0.5044000000000  0.5151500000000 1.0
C      1  0.4850540000000  0.5134620000000  0.4406080000000 1.0
C      1  0.5149420000000  0.5134620000000  0.4406070000000 1.0
C      1  0.5142220000000  0.5560900000000  0.5467190000000 1.0
C      1  0.4857790000000  0.5560890000000  0.5467190000000 1.0
C      1  0.4284930000000  0.4883060000000  0.5253300000000 1.0
C      1  0.5715080000000  0.4883070000000  0.5253260000000 1.0
C      1  0.4852160000000  0.4839600000000  0.5264370000000 1.0
C      1  0.5147860000000  0.4839600000000  0.5264370000000 1.0
C      1  0.4852380000000  0.5365530000000  0.4600180000000 1.0
C      1  0.5147590000000  0.5365540000000  0.4600180000000 1.0
C      1  0.4447040000000  0.4665430000000  0.5211390000000 1.0
C      1  0.5552980000000  0.4665440000000  0.5211360000000 1.0
C      1  0.5155300000000  0.4817860000000  0.4944730000000 1.0
C      1  0.4844700000000  0.4817850000000  0.4944740000000 1.0
C      1  0.4844460000000  0.5309230000000  0.5103240000000 1.0
C      1  0.5155540000000  0.5309230000000  0.5103230000000 1.0
C      1  0.5361810000000  0.4960980000000  0.4401980000000 1.0
C      1  0.4638160000000  0.4960970000000  0.4402000000000 1.0
C      1  0.5408530000000  0.5027160000000  0.4868150000000 1.0
C      1  0.4591460000000  0.5027150000000  0.4868180000000 1.0
END
