TITL C-68134-9925-6 -0.0290291741877947 125000 -922.814240833628 0 0 133 (C7) n - 1
REM
REM in /rds/project/t2_vol4/rds-t2-cs072/BORA/CARBON/from-Arr/AIRSS/Generating-Clusters/GAP-ML-2020/Higher-Symm/SD-CG/HFTN-CG
REM
REM
REM
REM
REM
REM ./C.cell (b20cbc046b6831c77cfcea5457e17084)
REM AIRSS Version 0.9.1 bugfix July 2018 build 013d7b7c2542+ Fri, 06 Jul 2018 19:26:36 +0100
REM compiler GCC version 9.3.0
REM options -cpp -mtune=generic -march=x86-64 -g -O0
REM seed -62918995 256799946 1199656995 1268259710 422677209 -81861844 -1738219709 1021413296 -1217803031 -274131869 -1682490974 1076927532 458488490 -1922083652 -1257077408 -120664439 -1251565916 1911983893 -396847919 -182804447 1721502765 -1378749113 -1755962137 -1322279045 1758949515 -841603741 240881976 1975822871 120498304 1220126306 2081942413 714076111 1793960896
REM
CELL 1.54180   50.00000   50.00000   50.00000   90.00000   90.00000   90.00000
LATT -1
SFAC C  
C      1  0.5037140000000  0.5280200000000  0.5881890000000 1.0
C      1  0.4333680000000  0.5280200000000  0.5578900000000 1.0
C      1  0.4131960000000  0.5280240000000  0.4840000000000 1.0
C      1  0.4583890000000  0.5280290000000  0.4221600000000 1.0
C      1  0.5349150000000  0.5280320000000  0.4189360000000 1.0
C      1  0.5851480000000  0.5280300000000  0.4767560000000 1.0
C      1  0.5712630000000  0.5280250000000  0.5520810000000 1.0
C      1  0.5079730000000  0.5281980000000  0.4691040000000 1.0
C      1  0.5291270000000  0.5281980000000  0.4869720000000 1.0
C      1  0.5283480000000  0.5281960000000  0.5146510000000 1.0
C      1  0.5062210000000  0.5281940000000  0.5312990000000 1.0
C      1  0.4794090000000  0.5281940000000  0.5243800000000 1.0
C      1  0.4681020000000  0.5281950000000  0.4991030000000 1.0
C      1  0.4808140000000  0.5281970000000  0.4745030000000 1.0
C      1  0.5142490000000  0.4915090000000  0.3992090000000 1.0
C      1  0.5876860000000  0.4915080000000  0.4482980000000 1.0
C      1  0.5950930000000  0.4915030000000  0.5363190000000 1.0
C      1  0.5308940000000  0.4914970000000  0.5969910000000 1.0
C      1  0.4434310000000  0.4914940000000  0.5846260000000 1.0
C      1  0.3985660000000  0.4914980000000  0.5085360000000 1.0
C      1  0.4300830000000  0.4915040000000  0.4260170000000 1.0
C      1  0.5406520000000  0.5686450000000  0.4485710000000 1.0
C      1  0.5655570000000  0.5686430000000  0.4997210000000 1.0
C      1  0.5410950000000  0.5686380000000  0.5510840000000 1.0
C      1  0.4856860000000  0.5686360000000  0.5639840000000 1.0
C      1  0.4410530000000  0.5686360000000  0.5287050000000 1.0
C      1  0.4408070000000  0.5686400000000  0.4718150000000 1.0
C      1  0.4851320000000  0.5686440000000  0.4361510000000 1.0
C      1  0.5581950000000  0.4433260000000  0.5559210000000 1.0
C      1  0.4925610000000  0.4433230000000  0.5803610000000 1.0
C      1  0.4325310000000  0.4433230000000  0.5442860000000 1.0
C      1  0.4233080000000  0.4433270000000  0.4748590000000 1.0
C      1  0.4718370000000  0.4433320000000  0.4243620000000 1.0
C      1  0.5415750000000  0.4433340000000  0.4308180000000 1.0
C      1  0.5800080000000  0.4433320000000  0.4893680000000 1.0
C      1  0.5578950000000  0.4291790000000  0.5310160000000 1.0
C      1  0.5118450000000  0.4291750000000  0.5645980000000 1.0
C      1  0.4568780000000  0.4291740000000  0.5495330000000 1.0
C      1  0.4343840000000  0.4291770000000  0.4971660000000 1.0
C      1  0.4613030000000  0.4291810000000  0.4469290000000 1.0
C      1  0.5173630000000  0.4291840000000  0.4366520000000 1.0
C      1  0.5603500000000  0.4291830000000  0.4740740000000 1.0
C      1  0.4663330000000  0.4778640000000  0.4531950000000 1.0
C      1  0.5156010000000  0.4778670000000  0.4444950000000 1.0
C      1  0.5531220000000  0.4778660000000  0.4775900000000 1.0
C      1  0.5506410000000  0.4778620000000  0.5275590000000 1.0
C      1  0.5100270000000  0.4778590000000  0.5567750000000 1.0
C      1  0.4618630000000  0.4778580000000  0.5432370000000 1.0
C      1  0.4424170000000  0.4778610000000  0.4971400000000 1.0
C      1  0.4770610000000  0.4570750000000  0.5261230000000 1.0
C      1  0.4652720000000  0.4570770000000  0.4983510000000 1.0
C      1  0.4796350000000  0.4570790000000  0.4718190000000 1.0
C      1  0.5093340000000  0.4570800000000  0.4665050000000 1.0
C      1  0.5320060000000  0.4570800000000  0.4864120000000 1.0
C      1  0.5305770000000  0.4570780000000  0.5165490000000 1.0
C      1  0.5061250000000  0.4570760000000  0.5342220000000 1.0
C      1  0.5310030000000  0.4972010000000  0.5162710000000 1.0
C      1  0.5066090000000  0.4971990000000  0.5343830000000 1.0
C      1  0.4772390000000  0.4971980000000  0.5266050000000 1.0
C      1  0.4650080000000  0.4972000000000  0.4987920000000 1.0
C      1  0.4791270000000  0.4972020000000  0.4718890000000 1.0
C      1  0.5089640000000  0.4972030000000  0.4661540000000 1.0
C      1  0.5320510000000  0.4972030000000  0.4859060000000 1.0
C      1  0.5515450000000  0.5453270000000  0.4355850000000 1.0
C      1  0.5825010000000  0.5453240000000  0.5001400000000 1.0
C      1  0.5513310000000  0.5453180000000  0.5645910000000 1.0
C      1  0.4815060000000  0.5453150000000  0.5804060000000 1.0
C      1  0.4256070000000  0.5453160000000  0.5356760000000 1.0
C      1  0.4257260000000  0.5453210000000  0.4640830000000 1.0
C      1  0.4817740000000  0.5453250000000  0.4195380000000 1.0
C      1  0.5380200000000  0.4998710000000  0.4133150000000 1.0
C      1  0.5914780000000  0.4998690000000  0.4756780000000 1.0
C      1  0.5760510000000  0.4998630000000  0.5563560000000 1.0
C      1  0.5033570000000  0.4998580000000  0.5945970000000 1.0
C      1  0.4281340000000  0.4998570000000  0.5616040000000 1.0
C      1  0.4070280000000  0.4998620000000  0.4822230000000 1.0
C      1  0.4559320000000  0.4998680000000  0.4162280000000 1.0
C      1  0.4318030000000  0.4755260000000  0.5438010000000 1.0
C      1  0.4232330000000  0.4755300000000  0.4739900000000 1.0
C      1  0.4724720000000  0.4755350000000  0.4237630000000 1.0
C      1  0.5424400000000  0.4755370000000  0.4309430000000 1.0
C      1  0.5804510000000  0.4755350000000  0.4901230000000 1.0
C      1  0.5578810000000  0.4755300000000  0.5567400000000 1.0
C      1  0.4917270000000  0.4755260000000  0.5806290000000 1.0
C      1  0.4635430000000  0.4726910000000  0.5734930000000 1.0
C      1  0.4198100000000  0.4726930000000  0.5173180000000 1.0
C      1  0.4364620000000  0.4726980000000  0.4481010000000 1.0
C      1  0.5009600000000  0.4727020000000  0.4179640000000 1.0
C      1  0.5647360000000  0.4727020000000  0.4496000000000 1.0
C      1  0.5797650000000  0.4726980000000  0.5191880000000 1.0
C      1  0.5347300000000  0.4726930000000  0.5743250000000 1.0
C      1  0.5469150000000  0.5134310000000  0.6018840000000 1.0
C      1  0.4495950000000  0.5134280000000  0.6002040000000 1.0
C      1  0.3902310000000  0.5134310000000  0.5230690000000 1.0
C      1  0.4135250000000  0.5134370000000  0.4285630000000 1.0
C      1  0.5019360000000  0.5134430000000  0.3878510000000 1.0
C      1  0.5888890000000  0.5134430000000  0.4315910000000 1.0
C      1  0.6089060000000  0.5134380000000  0.5268440000000 1.0
C      1  0.5502000000000  0.5779930000000  0.4757340000000 1.0
C      1  0.5502740000000  0.5779900000000  0.5241220000000 1.0
C      1  0.5124890000000  0.5779870000000  0.5543500000000 1.0
C      1  0.4652970000000  0.5779860000000  0.5436550000000 1.0
C      1  0.4442350000000  0.5779880000000  0.5000910000000 1.0
C      1  0.4651630000000  0.5779910000000  0.4564620000000 1.0
C      1  0.5123220000000  0.5779940000000  0.4456220000000 1.0
C      1  0.5880310000000  0.5332920000000  0.5265810000000 1.0
C      1  0.5341060000000  0.5332870000000  0.5854000000000 1.0
C      1  0.4544980000000  0.5332840000000  0.5799130000000 1.0
C      1  0.4091530000000  0.5332870000000  0.5142510000000 1.0
C      1  0.4322170000000  0.5332920000000  0.4378600000000 1.0
C      1  0.5063220000000  0.5332970000000  0.4082630000000 1.0
C      1  0.5756660000000  0.5332970000000  0.4477480000000 1.0
C      1  0.5064530000000  0.4249730000000  0.5357640000000 1.0
C      1  0.4760600000000  0.4249730000000  0.5273390000000 1.0
C      1  0.4636960000000  0.4249740000000  0.4983250000000 1.0
C      1  0.4786720000000  0.4249760000000  0.4705680000000 1.0
C      1  0.5097100000000  0.4249780000000  0.4649700000000 1.0
C      1  0.5334390000000  0.4249770000000  0.4857470000000 1.0
C      1  0.5319890000000  0.4249750000000  0.5172530000000 1.0
C      1  0.4798750000000  0.5934380000000  0.5252760000000 1.0
C      1  0.4676940000000  0.5934390000000  0.5000300000000 1.0
C      1  0.4798380000000  0.5934410000000  0.4747660000000 1.0
C      1  0.5071620000000  0.5934430000000  0.4685080000000 1.0
C      1  0.5290900000000  0.5934420000000  0.4859690000000 1.0
C      1  0.5291110000000  0.5934410000000  0.5140000000000 1.0
C      1  0.5072080000000  0.5934390000000  0.5314930000000 1.0
C      1  0.5625890000000  0.4424490000000  0.4487890000000 1.0
C      1  0.5790600000000  0.4424450000000  0.5170010000000 1.0
C      1  0.5359980000000  0.4424400000000  0.5724090000000 1.0
C      1  0.4658310000000  0.4424380000000  0.5732880000000 1.0
C      1  0.4213950000000  0.4424400000000  0.5189770000000 1.0
C      1  0.4361520000000  0.4424450000000  0.4503730000000 1.0
C      1  0.4989890000000  0.4424490000000  0.4191370000000 1.0
END
