TITL C-68140-9827-10 104.273247148114 125000 -845.749413558035 0 0 125 (C5) n - 1
REM
REM in /rds/project/t2_vol4/rds-t2-cs072/BORA/CARBON/from-Arr/AIRSS/Generating-Clusters/GAP-ML-2020/Higher-Symm/SD-CG/HFTN-CG
REM
REM
REM
REM
REM
REM ./C.cell (b20cbc046b6831c77cfcea5457e17084)
REM AIRSS Version 0.9.1 bugfix July 2018 build 013d7b7c2542+ Fri, 06 Jul 2018 19:26:36 +0100
REM compiler GCC version 9.3.0
REM options -cpp -mtune=generic -march=x86-64 -g -O0
REM seed -2143901609 690455981 672629436 539185628 905487125 -1746226304 651432271 -1491859409 -403727850 1531740594 1401097095 -1285502254 981861507 1653987575 106257476 -2069149611 413766209 1220965247 897983916 -256011826 -979194371 1362325652 -953057101 172509832 23906413 1141600654 -863247442 -183461450 993755481 -656476946 979997696 961961639 -331327605
REM
CELL 1.54180   50.00000   50.00000   50.00000   90.00000   90.00000   90.00000
LATT -1
SFAC C  
C      1  0.4586200000000  0.5900540000000  0.5095340000000 1.0
C      1  0.4781540000000  0.5900610000000  0.4636050000000 1.0
C      1  0.5278710000000  0.5900640000000  0.4679910000000 1.0
C      1  0.5390640000000  0.5900570000000  0.5166300000000 1.0
C      1  0.4962640000000  0.5900510000000  0.5423050000000 1.0
C      1  0.4619740000000  0.5807730000000  0.4840710000000 1.0
C      1  0.4730850000000  0.5807670000000  0.5312460000000 1.0
C      1  0.5213850000000  0.5807690000000  0.5352560000000 1.0
C      1  0.5401250000000  0.5807770000000  0.4905590000000 1.0
C      1  0.5034060000000  0.5807790000000  0.4589250000000 1.0
C      1  0.4888540000000  0.5475940000000  0.5781530000000 1.0
C      1  0.4222330000000  0.5475990000000  0.5135570000000 1.0
C      1  0.4630800000000  0.5476130000000  0.4302350000000 1.0
C      1  0.5549460000000  0.5476170000000  0.4433350000000 1.0
C      1  0.5708750000000  0.5476050000000  0.5347530000000 1.0
C      1  0.4897560000000  0.5477410000000  0.4218430000000 1.0
C      1  0.4224950000000  0.5477280000000  0.4855930000000 1.0
C      1  0.4623390000000  0.5477180000000  0.5692620000000 1.0
C      1  0.5542260000000  0.5477260000000  0.5572230000000 1.0
C      1  0.5711710000000  0.5477400000000  0.4661130000000 1.0
C      1  0.4956160000000  0.4967290000000  0.4412950000000 1.0
C      1  0.5544770000000  0.4967270000000  0.4776890000000 1.0
C      1  0.5380530000000  0.4967170000000  0.5449160000000 1.0
C      1  0.4690410000000  0.4967120000000  0.5500700000000 1.0
C      1  0.4428140000000  0.4967190000000  0.4860280000000 1.0
C      1  0.4959020000000  0.5096930000000  0.5536440000000 1.0
C      1  0.5497510000000  0.5097000000000  0.5204750000000 1.0
C      1  0.5348450000000  0.5097080000000  0.4590120000000 1.0
C      1  0.4717840000000  0.5097050000000  0.4541950000000 1.0
C      1  0.4477160000000  0.5096950000000  0.5126800000000 1.0
C      1  0.3871990000000  0.4821480000000  0.4848340000000 1.0
C      1  0.4795640000000  0.4821670000000  0.3880300000000 1.0
C      1  0.6001730000000  0.4821660000000  0.4459610000000 1.0
C      1  0.5823480000000  0.4821460000000  0.5785680000000 1.0
C      1  0.4507220000000  0.4821350000000  0.6025930000000 1.0
C      1  0.3857900000000  0.4821870000000  0.5147330000000 1.0
C      1  0.4787220000000  0.4821780000000  0.6131720000000 1.0
C      1  0.6010610000000  0.4821940000000  0.5552080000000 1.0
C      1  0.5837390000000  0.4822120000000  0.4209450000000 1.0
C      1  0.4506940000000  0.4822080000000  0.3959290000000 1.0
C      1  0.5131960000000  0.4499060000000  0.5926780000000 1.0
C      1  0.4159310000000  0.4499070000000  0.5411810000000 1.0
C      1  0.4348510000000  0.4499240000000  0.4327630000000 1.0
C      1  0.5438090000000  0.4499330000000  0.4172540000000 1.0
C      1  0.5922290000000  0.4499210000000  0.5160870000000 1.0
C      1  0.5147080000000  0.4501210000000  0.4084990000000 1.0
C      1  0.4175310000000  0.4501080000000  0.4577340000000 1.0
C      1  0.4343280000000  0.4500930000000  0.5653690000000 1.0
C      1  0.5418850000000  0.4500970000000  0.5826560000000 1.0
C      1  0.5915630000000  0.4501140000000  0.4857050000000 1.0
C      1  0.5452500000000  0.5403750000000  0.5153860000000 1.0
C      1  0.4993540000000  0.5403670000000  0.5477960000000 1.0
C      1  0.4543470000000  0.5403690000000  0.5141610000000 1.0
C      1  0.4724280000000  0.5403780000000  0.4609640000000 1.0
C      1  0.5286090000000  0.5403810000000  0.4617210000000 1.0
C      1  0.5460620000000  0.5515030000000  0.4865810000000 1.0
C      1  0.5014630000000  0.5515060000000  0.4520480000000 1.0
C      1  0.4548380000000  0.5514980000000  0.4837930000000 1.0
C      1  0.4706220000000  0.5514920000000  0.5379450000000 1.0
C      1  0.5270010000000  0.5514950000000  0.5396680000000 1.0
C      1  0.5373540000000  0.5083770000000  0.5728170000000 1.0
C      1  0.4422900000000  0.5083740000000  0.5580290000000 1.0
C      1  0.4269790000000  0.5083860000000  0.4630480000000 1.0
C      1  0.5125790000000  0.5083980000000  0.4191350000000 1.0
C      1  0.5807950000000  0.5083920000000  0.4869760000000 1.0
C      1  0.5382730000000  0.5106310000000  0.4285730000000 1.0
C      1  0.4438940000000  0.5106240000000  0.4415290000000 1.0
C      1  0.4270510000000  0.5106090000000  0.5352920000000 1.0
C      1  0.5110200000000  0.5106080000000  0.5802840000000 1.0
C      1  0.5797590000000  0.5106210000000  0.5143290000000 1.0
C      1  0.5343430000000  0.4713480000000  0.5278230000000 1.0
C      1  0.4841480000000  0.4713430000000  0.5412560000000 1.0
C      1  0.4558620000000  0.4713470000000  0.4976690000000 1.0
C      1  0.4885750000000  0.4713550000000  0.4572970000000 1.0
C      1  0.5370790000000  0.4713550000000  0.4759340000000 1.0
C      1  0.5153120000000  0.4857530000000  0.4616590000000 1.0
C      1  0.4682710000000  0.4857490000000  0.4735890000000 1.0
C      1  0.4650790000000  0.4857420000000  0.5220150000000 1.0
C      1  0.5101480000000  0.4857420000000  0.5400140000000 1.0
C      1  0.5411940000000  0.4857490000000  0.5027130000000 1.0
C      1  0.4782260000000  0.5127340000000  0.6125240000000 1.0
C      1  0.3862560000000  0.5127430000000  0.5140650000000 1.0
C      1  0.4514750000000  0.5127640000000  0.3961710000000 1.0
C      1  0.5837530000000  0.5127680000000  0.4217680000000 1.0
C      1  0.6002860000000  0.5127500000000  0.5554810000000 1.0
C      1  0.4790670000000  0.5123530000000  0.3884190000000 1.0
C      1  0.3874100000000  0.5123340000000  0.4854280000000 1.0
C      1  0.4513470000000  0.5123210000000  0.6025780000000 1.0
C      1  0.5825200000000  0.5123320000000  0.5779700000000 1.0
C      1  0.5996520000000  0.5123520000000  0.4456130000000 1.0
C      1  0.5669100000000  0.4631470000000  0.4110710000000 1.0
C      1  0.6052490000000  0.4631310000000  0.5361480000000 1.0
C      1  0.4981410000000  0.4631140000000  0.6112620000000 1.0
C      1  0.3936050000000  0.4631190000000  0.5326080000000 1.0
C      1  0.4361060000000  0.4631390000000  0.4088830000000 1.0
C      1  0.5650640000000  0.4632810000000  0.5870550000000 1.0
C      1  0.6029070000000  0.4633010000000  0.4650210000000 1.0
C      1  0.4985390000000  0.4633050000000  0.3913190000000 1.0
C      1  0.3961940000000  0.4632880000000  0.4678040000000 1.0
C      1  0.4373080000000  0.4632730000000  0.5887750000000 1.0
C      1  0.4454380000000  0.5266860000000  0.5792650000000 1.0
C      1  0.4077560000000  0.5266990000000  0.4726060000000 1.0
C      1  0.4975510000000  0.5267140000000  0.4038100000000 1.0
C      1  0.5907280000000  0.5267100000000  0.4679500000000 1.0
C      1  0.5585200000000  0.5266930000000  0.5763870000000 1.0
C      1  0.4450390000000  0.5277520000000  0.4189920000000 1.0
C      1  0.4059680000000  0.5277340000000  0.5272390000000 1.0
C      1  0.4968440000000  0.5277300000000  0.5978490000000 1.0
C      1  0.5920790000000  0.5277450000000  0.5332400000000 1.0
C      1  0.5600620000000  0.5277590000000  0.4227000000000 1.0
C      1  0.5348570000000  0.4357740000000  0.4430330000000 1.0
C      1  0.5649440000000  0.4357650000000  0.5155370000000 1.0
C      1  0.5052860000000  0.4357540000000  0.5665570000000 1.0
C      1  0.4383280000000  0.4357560000000  0.5255840000000 1.0
C      1  0.4566040000000  0.4357680000000  0.4492420000000 1.0
C      1  0.5324770000000  0.4350280000000  0.5580400000000 1.0
C      1  0.5652470000000  0.4350400000000  0.4870460000000 1.0
C      1  0.5078540000000  0.4350440000000  0.4339400000000 1.0
C      1  0.4396120000000  0.4350350000000  0.4721140000000 1.0
C      1  0.4548300000000  0.4350240000000  0.5488120000000 1.0
C      1  0.5425170000000  0.4436240000000  0.5324800000000 1.0
C      1  0.4822430000000  0.4436180000000  0.5504640000000 1.0
C      1  0.5440390000000  0.4436330000000  0.4695980000000 1.0
C      1  0.4847050000000  0.4436320000000  0.4487190000000 1.0
C      1  0.4465130000000  0.4436230000000  0.4986970000000 1.0
END
