TITL C-68128-9901-10 -0.00161660314168566 125000 -131.607673739955 0 0 20 (C1) n - 1
REM
REM in /rds/project/t2_vol4/rds-t2-cs072/BORA/CARBON/from-Arr/AIRSS/Generating-Clusters/GAP-ML-2020/Higher-Symm/SD-CG/HFTN-CG
REM
REM
REM
REM
REM
REM ./C.cell (b20cbc046b6831c77cfcea5457e17084)
REM AIRSS Version 0.9.1 bugfix July 2018 build 013d7b7c2542+ Fri, 06 Jul 2018 19:26:36 +0100
REM compiler GCC version 9.3.0
REM options -cpp -mtune=generic -march=x86-64 -g -O0
REM seed -2017516733 -133681867 -831333057 12203550 -576495304 -297959493 299661400 624027588 -828544937 -1820669356 1178742738 1492368483 1862095026 -782420967 -580274544 719838653 506264317 -977581666 -1960880861 1444109655 2019582380 973348699 -1106383557 1289252705 -2039522357 1207974298 -808046594 -1369180226 -352629416 374270254 -2051591840 1741247025 -571181923
REM
CELL 1.54180   50.00000   50.00000   50.00000   90.00000   90.00000   90.00000
LATT -1
SFAC C  
C      1  0.5120560000000  0.5338060000000  0.5205290000000 1.0
C      1  0.4937110000000  0.5607340000000  0.4781860000000 1.0
C      1  0.4869420000000  0.5220670000000  0.4408270000000 1.0
C      1  0.5066690000000  0.4663880000000  0.4792480000000 1.0
C      1  0.4950380000000  0.4390550000000  0.5235560000000 1.0
C      1  0.4944720000000  0.4781720000000  0.5610530000000 1.0
C      1  0.4887950000000  0.5489090000000  0.4546690000000 1.0
C      1  0.5038930000000  0.5558130000000  0.5053610000000 1.0
C      1  0.5014330000000  0.5034890000000  0.5572390000000 1.0
C      1  0.4913130000000  0.4516110000000  0.5469220000000 1.0
C      1  0.5026290000000  0.4443240000000  0.4956270000000 1.0
C      1  0.4909110000000  0.4960890000000  0.4445150000000 1.0
C      1  0.4766780000000  0.4590710000000  0.5681260000000 1.0
C      1  0.5073790000000  0.5257200000000  0.5469790000000 1.0
C      1  0.4913790000000  0.5455650000000  0.4281820000000 1.0
C      1  0.4963960000000  0.4733970000000  0.4541340000000 1.0
C      1  0.5004070000000  0.4189980000000  0.5049080000000 1.0
C      1  0.4893850000000  0.5780470000000  0.4995950000000 1.0
C      1  0.5161860000000  0.4895840000000  0.4927540000000 1.0
C      1  0.5180730000000  0.5101960000000  0.5058620000000 1.0
END
