TITL C-68138-9906-8 0.000808608495200739 125000 -704.354919640795 0 0 102 (C1) n - 1
REM
REM in /rds/project/t2_vol4/rds-t2-cs072/BORA/CARBON/from-Arr/AIRSS/Generating-Clusters/GAP-ML-2020/Higher-Symm/SD-CG/HFTN-CG
REM
REM
REM
REM
REM
REM ./C.cell (b20cbc046b6831c77cfcea5457e17084)
REM AIRSS Version 0.9.1 bugfix July 2018 build 013d7b7c2542+ Fri, 06 Jul 2018 19:26:36 +0100
REM compiler GCC version 9.3.0
REM options -cpp -mtune=generic -march=x86-64 -g -O0
REM seed -736787165 582745998 -1667372481 310266067 1803584090 -877766016 556732475 2064839092 -1772850612 -1466634545 -237150870 922625912 1322655463 -1679526593 -1849825820 -242161327 -1524402207 -2075495405 1377251080 940239727 -1080105915 2042286013 1314616330 -1317399752 -1459963132 59039319 -596044267 1324382529 1105719079 1373136841 -1251417341 1396215623 -604317914
REM
CELL 1.54180   50.00000   50.00000   50.00000   90.00000   90.00000   90.00000
LATT -1
SFAC C  
C      1  0.5393800000000  0.5304120000000  0.4377470000000 1.0
C      1  0.5343150000000  0.5308140000000  0.5649690000000 1.0
C      1  0.4256900000000  0.5311860000000  0.4967070000000 1.0
C      1  0.4195890000000  0.5006740000000  0.5588420000000 1.0
C      1  0.4888720000000  0.5005520000000  0.4009170000000 1.0
C      1  0.5930600000000  0.5028100000000  0.5412580000000 1.0
C      1  0.5411400000000  0.4401040000000  0.5443120000000 1.0
C      1  0.4419330000000  0.4463410000000  0.5153970000000 1.0
C      1  0.5148230000000  0.4468600000000  0.4430500000000 1.0
C      1  0.6034670000000  0.5111900000000  0.5023190000000 1.0
C      1  0.4471120000000  0.5090830000000  0.5875350000000 1.0
C      1  0.4502860000000  0.5105190000000  0.4091540000000 1.0
C      1  0.5010550000000  0.4906540000000  0.5807130000000 1.0
C      1  0.4274580000000  0.4924520000000  0.4585960000000 1.0
C      1  0.5717760000000  0.4921080000000  0.4587030000000 1.0
C      1  0.5344250000000  0.4220360000000  0.5068500000000 1.0
C      1  0.4768730000000  0.4218110000000  0.5257330000000 1.0
C      1  0.4872950000000  0.4247250000000  0.4681080000000 1.0
C      1  0.5446220000000  0.5722710000000  0.5430290000000 1.0
C      1  0.4407180000000  0.5719420000000  0.5169270000000 1.0
C      1  0.5150340000000  0.5718930000000  0.4391170000000 1.0
C      1  0.4565390000000  0.5624900000000  0.5369070000000 1.0
C      1  0.4898530000000  0.5625860000000  0.4434570000000 1.0
C      1  0.5537780000000  0.5630020000000  0.5191590000000 1.0
C      1  0.5055990000000  0.5331070000000  0.4837500000000 1.0
C      1  0.5120710000000  0.5342500000000  0.5114810000000 1.0
C      1  0.4845380000000  0.5348860000000  0.5035490000000 1.0
C      1  0.5877100000000  0.4722300000000  0.5019050000000 1.0
C      1  0.4559480000000  0.4709170000000  0.5720620000000 1.0
C      1  0.4565620000000  0.4714900000000  0.4240430000000 1.0
C      1  0.4704730000000  0.4512210000000  0.5276190000000 1.0
C      1  0.4881430000000  0.4526660000000  0.4572100000000 1.0
C      1  0.5450360000000  0.4491450000000  0.5160960000000 1.0
C      1  0.4254070000000  0.5190420000000  0.4708680000000 1.0
C      1  0.5619490000000  0.5182670000000  0.4503410000000 1.0
C      1  0.5124770000000  0.5173540000000  0.5772990000000 1.0
C      1  0.5150950000000  0.4230350000000  0.4611660000000 1.0
C      1  0.5249000000000  0.4183040000000  0.5341150000000 1.0
C      1  0.4555350000000  0.4210380000000  0.5065200000000 1.0
C      1  0.5627400000000  0.5330670000000  0.5207070000000 1.0
C      1  0.4506660000000  0.5327670000000  0.5437260000000 1.0
C      1  0.4867290000000  0.5326630000000  0.4353140000000 1.0
C      1  0.5640680000000  0.5353520000000  0.4726890000000 1.0
C      1  0.4918820000000  0.5344870000000  0.5684340000000 1.0
C      1  0.4440520000000  0.5356120000000  0.4576850000000 1.0
C      1  0.5465600000000  0.5167610000000  0.5420000000000 1.0
C      1  0.4406690000000  0.5166780000000  0.5184790000000 1.0
C      1  0.5133130000000  0.5157240000000  0.4392920000000 1.0
C      1  0.4725060000000  0.4949480000000  0.5753280000000 1.0
C      1  0.4467990000000  0.4962510000000  0.4369740000000 1.0
C      1  0.5815970000000  0.4964710000000  0.4858870000000 1.0
C      1  0.4239480000000  0.4592180000000  0.4969920000000 1.0
C      1  0.5396620000000  0.4600030000000  0.4377390000000 1.0
C      1  0.5381880000000  0.4580630000000  0.5661460000000 1.0
C      1  0.4266160000000  0.4646100000000  0.4694970000000 1.0
C      1  0.5616000000000  0.4647870000000  0.4542090000000 1.0
C      1  0.5111550000000  0.4629470000000  0.5753560000000 1.0
C      1  0.4829920000000  0.5744860000000  0.5402540000000 1.0
C      1  0.4737190000000  0.5746630000000  0.4647820000000 1.0
C      1  0.5434330000000  0.5747950000000  0.4943670000000 1.0
C      1  0.4316110000000  0.4842860000000  0.5787170000000 1.0
C      1  0.4649370000000  0.4850240000000  0.4003310000000 1.0
C      1  0.6040410000000  0.4864270000000  0.5205760000000 1.0
C      1  0.5159100000000  0.5853110000000  0.4963640000000 1.0
C      1  0.4949970000000  0.5854500000000  0.5154470000000 1.0
C      1  0.4889460000000  0.5852560000000  0.4877400000000 1.0
C      1  0.5101910000000  0.4945520000000  0.4181750000000 1.0
C      1  0.5671860000000  0.4971700000000  0.5525810000000 1.0
C      1  0.4244110000000  0.4948660000000  0.5317080000000 1.0
C      1  0.4340540000000  0.5248140000000  0.5675340000000 1.0
C      1  0.4748340000000  0.5251810000000  0.4086610000000 1.0
C      1  0.5920140000000  0.5263980000000  0.5236570000000 1.0
C      1  0.4796080000000  0.4991500000000  0.4769480000000 1.0
C      1  0.5293110000000  0.4961210000000  0.4958730000000 1.0
C      1  0.4898890000000  0.4979740000000  0.5260840000000 1.0
C      1  0.5580260000000  0.5151950000000  0.4949550000000 1.0
C      1  0.4756850000000  0.5148250000000  0.5516850000000 1.0
C      1  0.4663960000000  0.5157100000000  0.4521220000000 1.0
C      1  0.5375500000000  0.4239620000000  0.4790170000000 1.0
C      1  0.4985530000000  0.4202360000000  0.5441370000000 1.0
C      1  0.4607500000000  0.4235400000000  0.4784790000000 1.0
C      1  0.4489870000000  0.5610870000000  0.4691900000000 1.0
C      1  0.5518880000000  0.5609860000000  0.4708020000000 1.0
C      1  0.4990460000000  0.5605920000000  0.5593140000000 1.0
C      1  0.5599170000000  0.4441140000000  0.4744280000000 1.0
C      1  0.4935810000000  0.4423120000000  0.5646340000000 1.0
C      1  0.4449560000000  0.4433850000000  0.4613950000000 1.0
C      1  0.4678260000000  0.4509860000000  0.5577660000000 1.0
C      1  0.4630890000000  0.4510130000000  0.4410000000000 1.0
C      1  0.5699240000000  0.4512270000000  0.5000540000000 1.0
C      1  0.5196400000000  0.5090470000000  0.5221740000000 1.0
C      1  0.4707010000000  0.5103540000000  0.5053440000000 1.0
C      1  0.5095130000000  0.5068780000000  0.4727570000000 1.0
C      1  0.4351510000000  0.5584180000000  0.4944350000000 1.0
C      1  0.5370440000000  0.5580740000000  0.4461600000000 1.0
C      1  0.5277510000000  0.5582850000000  0.5587550000000 1.0
C      1  0.4928080000000  0.4696070000000  0.5113490000000 1.0
C      1  0.4825660000000  0.4713150000000  0.4825000000000 1.0
C      1  0.5222120000000  0.4686980000000  0.5045260000000 1.0
C      1  0.4217950000000  0.4684190000000  0.5225620000000 1.0
C      1  0.5200700000000  0.4685960000000  0.4211160000000 1.0
C      1  0.5592040000000  0.4753400000000  0.5655600000000 1.0
END
