TITL C-68150-9982-10 -224.548660590867 125000 -584.101769374135 0 0 87 (C3h) n - 1
REM
REM in /rds/project/t2_vol4/rds-t2-cs072/BORA/CARBON/from-Arr/AIRSS/Generating-Clusters/GAP-ML-2020/Higher-Symm/SD-CG/HFTN-CG
REM
REM
REM
REM
REM
REM ./C.cell (b20cbc046b6831c77cfcea5457e17084)
REM AIRSS Version 0.9.1 bugfix July 2018 build 013d7b7c2542+ Fri, 06 Jul 2018 19:26:36 +0100
REM compiler GCC version 9.3.0
REM options -cpp -mtune=generic -march=x86-64 -g -O0
REM seed 322686707 2071114955 1568118916 1791552025 -505532755 1402767079 -246616136 480403089 1189545494 -1453624401 -780214270 126042982 -1693144897 1803043161 -1678683067 855691236 -774792826 674351700 -670119124 -119382486 -1069659999 1944431936 -7979498 74936582 -1638579798 -219733169 -1269814522 -905930298 1337231923 -1426559287 -1509832343 877138656 -1878862221
REM
CELL 1.54180   50.00000   50.00000   50.00000   90.00000   90.00000   90.00000
LATT -1
SFAC C  
C      1  0.4509090000000  0.4524580000000  0.4546570000000 1.0
C      1  0.4486770000000  0.4830100000000  0.5617000000000 1.0
C      1  0.4476060000000  0.5604190000000  0.4816790000000 1.0
C      1  0.5512610000000  0.4552000000000  0.4559660000000 1.0
C      1  0.5490290000000  0.4857520000000  0.5630090000000 1.0
C      1  0.5479590000000  0.5631610000000  0.4829880000000 1.0
C      1  0.4741860000000  0.4494410000000  0.5517200000000 1.0
C      1  0.4713670000000  0.5692780000000  0.5168090000000 1.0
C      1  0.4749560000000  0.4791720000000  0.4304630000000 1.0
C      1  0.5256600000000  0.4508470000000  0.5523910000000 1.0
C      1  0.5228420000000  0.5706840000000  0.5174810000000 1.0
C      1  0.5264300000000  0.4805780000000  0.4311350000000 1.0
C      1  0.5531840000000  0.4587800000000  0.5515890000000 1.0
C      1  0.5507460000000  0.5668480000000  0.5122080000000 1.0
C      1  0.5541170000000  0.4787520000000  0.4382940000000 1.0
C      1  0.4463000000000  0.4558600000000  0.5501950000000 1.0
C      1  0.4438610000000  0.5639280000000  0.5108140000000 1.0
C      1  0.4472330000000  0.4758320000000  0.4368990000000 1.0
C      1  0.4886830000000  0.4076050000000  0.5057920000000 1.0
C      1  0.4838470000000  0.5507980000000  0.5765800000000 1.0
C      1  0.4862080000000  0.5405320000000  0.4171190000000 1.0
C      1  0.5146710000000  0.4083150000000  0.5061310000000 1.0
C      1  0.5098350000000  0.5515080000000  0.5769190000000 1.0
C      1  0.5121960000000  0.5412420000000  0.4174580000000 1.0
C      1  0.4826740000000  0.5884940000000  0.5001570000000 1.0
C      1  0.4873190000000  0.4554970000000  0.4226500000000 1.0
C      1  0.4853270000000  0.4548510000000  0.5766400000000 1.0
C      1  0.5109410000000  0.5892660000000  0.5005260000000 1.0
C      1  0.5155860000000  0.4562690000000  0.4230190000000 1.0
C      1  0.5135940000000  0.4556230000000  0.5770080000000 1.0
C      1  0.5149750000000  0.4887290000000  0.4602610000000 1.0
C      1  0.5145270000000  0.4716690000000  0.5302900000000 1.0
C      1  0.5129020000000  0.5408230000000  0.5100320000000 1.0
C      1  0.4851860000000  0.4879150000000  0.4598720000000 1.0
C      1  0.4847380000000  0.4708550000000  0.5299010000000 1.0
C      1  0.4831130000000  0.5400090000000  0.5096430000000 1.0
C      1  0.5733210000000  0.4880990000000  0.4929710000000 1.0
C      1  0.5726260000000  0.5020460000000  0.5170090000000 1.0
C      1  0.5725620000000  0.5158880000000  0.4929010000000 1.0
C      1  0.4261280000000  0.4840770000000  0.4910510000000 1.0
C      1  0.4254340000000  0.4980240000000  0.5150880000000 1.0
C      1  0.4253700000000  0.5118660000000  0.4909800000000 1.0
C      1  0.4419660000000  0.5323030000000  0.5475180000000 1.0
C      1  0.4435380000000  0.5233450000000  0.4458340000000 1.0
C      1  0.4450560000000  0.4397850000000  0.5044670000000 1.0
C      1  0.5534070000000  0.5353470000000  0.5489720000000 1.0
C      1  0.5549780000000  0.5263900000000  0.4472880000000 1.0
C      1  0.5564960000000  0.4428300000000  0.5059210000000 1.0
C      1  0.5635760000000  0.5534290000000  0.5315610000000 1.0
C      1  0.5661490000000  0.5025900000000  0.4407860000000 1.0
C      1  0.5664350000000  0.4494030000000  0.5302420000000 1.0
C      1  0.4312830000000  0.5498140000000  0.5298350000000 1.0
C      1  0.4338570000000  0.4989750000000  0.4390600000000 1.0
C      1  0.4341420000000  0.4457890000000  0.5285160000000 1.0
C      1  0.4703780000000  0.5316650000000  0.4379960000000 1.0
C      1  0.4723260000000  0.4296420000000  0.5023460000000 1.0
C      1  0.4686780000000  0.5363340000000  0.5585310000000 1.0
C      1  0.5279380000000  0.5332370000000  0.4387470000000 1.0
C      1  0.5298850000000  0.4312150000000  0.5030970000000 1.0
C      1  0.5262370000000  0.5379070000000  0.5592820000000 1.0
C      1  0.4438830000000  0.4608240000000  0.4826090000000 1.0
C      1  0.4419840000000  0.5028390000000  0.5401900000000 1.0
C      1  0.4420460000000  0.5316970000000  0.4749850000000 1.0
C      1  0.5570880000000  0.4639170000000  0.4840860000000 1.0
C      1  0.5551890000000  0.5059320000000  0.5416670000000 1.0
C      1  0.5552510000000  0.5347900000000  0.4764620000000 1.0
C      1  0.5229530000000  0.4826790000000  0.5786960000000 1.0
C      1  0.5216930000000  0.5775080000000  0.4766810000000 1.0
C      1  0.5258070000000  0.4418010000000  0.4455720000000 1.0
C      1  0.4744640000000  0.4813540000000  0.5780630000000 1.0
C      1  0.4732050000000  0.5761830000000  0.4760480000000 1.0
C      1  0.4773180000000  0.4404760000000  0.4449390000000 1.0
C      1  0.5152760000000  0.4573240000000  0.5026980000000 1.0
C      1  0.5130140000000  0.5241030000000  0.5362630000000 1.0
C      1  0.5141060000000  0.5197940000000  0.4616210000000 1.0
C      1  0.4854930000000  0.4565100000000  0.5023100000000 1.0
C      1  0.4832300000000  0.5232890000000  0.5358750000000 1.0
C      1  0.4843220000000  0.5189800000000  0.4612330000000 1.0
C      1  0.4709280000000  0.5298050000000  0.4845150000000 1.0
C      1  0.4725870000000  0.4708790000000  0.4807310000000 1.0
C      1  0.4711810000000  0.4970480000000  0.5336710000000 1.0
C      1  0.5262770000000  0.5313180000000  0.4852370000000 1.0
C      1  0.5279370000000  0.4723910000000  0.4814530000000 1.0
C      1  0.5265310000000  0.4985600000000  0.5343930000000 1.0
C      1  0.4982920000000  0.4970580000000  0.5787970000000 1.0
C      1  0.4978170000000  0.5696910000000  0.4631260000000 1.0
C      1  0.5016110000000  0.4332510000000  0.4580770000000 1.0
END
