TITL C-68135-9890-3 0.0621988696173609 125000 -582.974110456677 0 0 85 (D5) n - 1
REM
REM in /rds/project/t2_vol4/rds-t2-cs072/BORA/CARBON/from-Arr/AIRSS/Generating-Clusters/GAP-ML-2020/Higher-Symm/SD-CG/HFTN-CG
REM
REM
REM
REM
REM
REM ./C.cell (b20cbc046b6831c77cfcea5457e17084)
REM AIRSS Version 0.9.1 bugfix July 2018 build 013d7b7c2542+ Fri, 06 Jul 2018 19:26:36 +0100
REM compiler GCC version 9.3.0
REM options -cpp -mtune=generic -march=x86-64 -g -O0
REM seed -1316996864 768028607 1670549092 -869332578 1197168694 -527455307 300023163 165385191 -1508088889 590350724 -380592507 -1485541 -1932277885 -760342829 2026517894 -1340409708 -67512017 15079494 -183358735 -93784149 1392762385 1929541927 986549256 -2100898505 1359013709 -419170906 -1569004393 -1899746894 -1301500071 -2144305703 2058486391 1974639461 -1642390525
REM
CELL 1.54180   50.00000   50.00000   50.00000   90.00000   90.00000   90.00000
LATT -1
SFAC C  
C      1  0.4509820000000  0.5127940000000  0.4520530000000 1.0
C      1  0.4509870000000  0.5495590000000  0.4973490000000 1.0
C      1  0.4509860000000  0.5178410000000  0.5463110000000 1.0
C      1  0.4509810000000  0.4614730000000  0.5312760000000 1.0
C      1  0.4509780000000  0.4583540000000  0.4730210000000 1.0
C      1  0.5470310000000  0.4872020000000  0.4520500000000 1.0
C      1  0.5470290000000  0.4504410000000  0.4973490000000 1.0
C      1  0.5470340000000  0.4821630000000  0.5463090000000 1.0
C      1  0.5470390000000  0.5385290000000  0.5312690000000 1.0
C      1  0.5470360000000  0.5416430000000  0.4730130000000 1.0
C      1  0.4852780000000  0.4218090000000  0.4801190000000 1.0
C      1  0.4852820000000  0.4947470000000  0.4194920000000 1.0
C      1  0.4852920000000  0.5749460000000  0.4701250000000 1.0
C      1  0.4852930000000  0.5515740000000  0.5620450000000 1.0
C      1  0.4852850000000  0.4569300000000  0.5682220000000 1.0
C      1  0.5127370000000  0.5781890000000  0.4801110000000 1.0
C      1  0.5127280000000  0.5052460000000  0.4194900000000 1.0
C      1  0.5127230000000  0.4250510000000  0.4701300000000 1.0
C      1  0.5127280000000  0.4484310000000  0.5620490000000 1.0
C      1  0.5127370000000  0.5430760000000  0.5682170000000 1.0
C      1  0.5304050000000  0.5195300000000  0.4839110000000 1.0
C      1  0.5304060000000  0.5213340000000  0.5136040000000 1.0
C      1  0.5304040000000  0.4936510000000  0.5244950000000 1.0
C      1  0.5304020000000  0.4747390000000  0.5015330000000 1.0
C      1  0.5304020000000  0.4907320000000  0.4764510000000 1.0
C      1  0.4676100000000  0.4804690000000  0.4839150000000 1.0
C      1  0.4676110000000  0.4786670000000  0.5136080000000 1.0
C      1  0.4676140000000  0.5063510000000  0.5244970000000 1.0
C      1  0.4676150000000  0.5252610000000  0.5015340000000 1.0
C      1  0.4676130000000  0.5092660000000  0.4764530000000 1.0
C      1  0.5312620000000  0.5547250000000  0.5488830000000 1.0
C      1  0.5312550000000  0.4704170000000  0.5671540000000 1.0
C      1  0.5312480000000  0.4269880000000  0.4926190000000 1.0
C      1  0.5312500000000  0.4844550000000  0.4282820000000 1.0
C      1  0.5312590000000  0.5634000000000  0.4630550000000 1.0
C      1  0.4667590000000  0.4452790000000  0.5488900000000 1.0
C      1  0.4667670000000  0.5295880000000  0.5671540000000 1.0
C      1  0.4667680000000  0.5730110000000  0.4926150000000 1.0
C      1  0.4667600000000  0.5155390000000  0.4282840000000 1.0
C      1  0.4667550000000  0.4365970000000  0.4630630000000 1.0
C      1  0.5731260000000  0.5031340000000  0.4573620000000 1.0
C      1  0.5731310000000  0.5415120000000  0.4898090000000 1.0
C      1  0.5731310000000  0.5225130000000  0.5363360000000 1.0
C      1  0.5731260000000  0.4723920000000  0.5326430000000 1.0
C      1  0.5731230000000  0.4604150000000  0.4838350000000 1.0
C      1  0.4248870000000  0.4968620000000  0.4573680000000 1.0
C      1  0.4248850000000  0.4584870000000  0.4898190000000 1.0
C      1  0.4248880000000  0.4774900000000  0.5363440000000 1.0
C      1  0.4248930000000  0.5276110000000  0.5326470000000 1.0
C      1  0.4248920000000  0.5395830000000  0.4838380000000 1.0
C      1  0.5736360000000  0.4573950000000  0.5102570000000 1.0
C      1  0.5736350000000  0.4770720000000  0.4626540000000 1.0
C      1  0.5736400000000  0.5284260000000  0.4666580000000 1.0
C      1  0.5736430000000  0.5404870000000  0.5167350000000 1.0
C      1  0.5736400000000  0.4965870000000  0.5436810000000 1.0
C      1  0.4243820000000  0.5426060000000  0.5102600000000 1.0
C      1  0.4243780000000  0.5229250000000  0.4626580000000 1.0
C      1  0.4243740000000  0.4715720000000  0.4666660000000 1.0
C      1  0.4243750000000  0.4595140000000  0.5167450000000 1.0
C      1  0.4243800000000  0.5034160000000  0.5436870000000 1.0
C      1  0.5160910000000  0.4189710000000  0.5153110000000 1.0
C      1  0.5160910000000  0.4603970000000  0.4276690000000 1.0
C      1  0.5161010000000  0.5565510000000  0.4399850000000 1.0
C      1  0.5161060000000  0.5745510000000  0.5352380000000 1.0
C      1  0.5161000000000  0.4895220000000  0.5817930000000 1.0
C      1  0.4819260000000  0.5810300000000  0.5153060000000 1.0
C      1  0.4819190000000  0.5395970000000  0.4276680000000 1.0
C      1  0.4819110000000  0.4434440000000  0.4399910000000 1.0
C      1  0.4819130000000  0.4254520000000  0.5352460000000 1.0
C      1  0.4819230000000  0.5104840000000  0.5817930000000 1.0
C      1  0.4875280000000  0.5630490000000  0.4438490000000 1.0
C      1  0.4875330000000  0.5728870000000  0.5426110000000 1.0
C      1  0.4875260000000  0.4819990000000  0.5824860000000 1.0
C      1  0.4875170000000  0.4159890000000  0.5083690000000 1.0
C      1  0.4875180000000  0.4660810000000  0.4226870000000 1.0
C      1  0.5104840000000  0.4369460000000  0.4438540000000 1.0
C      1  0.5104870000000  0.4271170000000  0.5426160000000 1.0
C      1  0.5104970000000  0.5180080000000  0.5824840000000 1.0
C      1  0.5105000000000  0.5840110000000  0.5083610000000 1.0
C      1  0.5104920000000  0.5339130000000  0.4226830000000 1.0
C      1  0.4990110000000  0.5239060000000  0.5077660000000 1.0
C      1  0.4990060000000  0.4760950000000  0.5077680000000 1.0
C      1  0.4990090000000  0.5147730000000  0.4796640000000 1.0
C      1  0.4990060000000  0.4852250000000  0.4796660000000 1.0
C      1  0.4990090000000  0.5000010000000  0.5251360000000 1.0
END
