TITL C-68148-9887-4 9.22327575907798 125000 -482.292268841118 0 0 71 (C1) n - 1
REM
REM in /rds/project/t2_vol4/rds-t2-cs072/BORA/CARBON/from-Arr/AIRSS/Generating-Clusters/GAP-ML-2020/Higher-Symm/SD-CG/HFTN-CG
REM
REM
REM
REM
REM
REM ./C.cell (b20cbc046b6831c77cfcea5457e17084)
REM AIRSS Version 0.9.1 bugfix July 2018 build 013d7b7c2542+ Fri, 06 Jul 2018 19:26:36 +0100
REM compiler GCC version 9.3.0
REM options -cpp -mtune=generic -march=x86-64 -g -O0
REM seed -1280273700 -1809421271 -783760655 -1992734208 -1658062951 1339435859 100973418 -202670391 1527009374 -2079878673 -316139938 -272924355 1466130545 -133027839 1958788675 1376455037 -1235893171 -492326490 -1911990595 -575922772 -587248948 -1602925532 1941501173 -1063768904 -1402037941 -572988855 -1386840924 -1864777091 450410518 216959676 381786508 -121567141 -1318471828
REM
CELL 1.54180   50.00000   50.00000   50.00000   90.00000   90.00000   90.00000
LATT -1
SFAC C  
C      1  0.4151010000000  0.4830760000000  0.4872830000000 1.0
C      1  0.5679950000000  0.4786970000000  0.5175420000000 1.0
C      1  0.5722980000000  0.4795600000000  0.4861730000000 1.0
C      1  0.4178060000000  0.4789750000000  0.5159690000000 1.0
C      1  0.4603710000000  0.4459860000000  0.5255170000000 1.0
C      1  0.5325210000000  0.4514260000000  0.4664990000000 1.0
C      1  0.5359840000000  0.4411990000000  0.5330840000000 1.0
C      1  0.4871930000000  0.4439320000000  0.4812090000000 1.0
C      1  0.4369230000000  0.4628370000000  0.5294870000000 1.0
C      1  0.5569180000000  0.4670110000000  0.4666780000000 1.0
C      1  0.5605000000000  0.4560450000000  0.5353340000000 1.0
C      1  0.4242130000000  0.4668400000000  0.4669720000000 1.0
C      1  0.5046130000000  0.5244410000000  0.4307810000000 1.0
C      1  0.4862990000000  0.5208240000000  0.5609400000000 1.0
C      1  0.4758980000000  0.5253260000000  0.4303340000000 1.0
C      1  0.5101380000000  0.5240010000000  0.5736210000000 1.0
C      1  0.4335030000000  0.5576040000000  0.4858760000000 1.0
C      1  0.5847980000000  0.5478810000000  0.5112150000000 1.0
C      1  0.5752170000000  0.5596880000000  0.4894960000000 1.0
C      1  0.4330130000000  0.5476990000000  0.5118390000000 1.0
C      1  0.5209000000000  0.4648820000000  0.4437630000000 1.0
C      1  0.4754280000000  0.4645200000000  0.5423760000000 1.0
C      1  0.4758080000000  0.4578520000000  0.4595740000000 1.0
C      1  0.5236760000000  0.4612170000000  0.5501100000000 1.0
C      1  0.5444000000000  0.4817420000000  0.4437960000000 1.0
C      1  0.4513730000000  0.4795740000000  0.5486030000000 1.0
C      1  0.4511840000000  0.4715610000000  0.4646180000000 1.0
C      1  0.5489700000000  0.4713430000000  0.5588810000000 1.0
C      1  0.4406560000000  0.5060260000000  0.5492550000000 1.0
C      1  0.5476020000000  0.5085620000000  0.4501900000000 1.0
C      1  0.5573380000000  0.4982510000000  0.5598600000000 1.0
C      1  0.4388790000000  0.5168540000000  0.4631280000000 1.0
C      1  0.4808730000000  0.5440190000000  0.5104020000000 1.0
C      1  0.5287960000000  0.5488170000000  0.4673530000000 1.0
C      1  0.5260500000000  0.5469130000000  0.5164650000000 1.0
C      1  0.4803870000000  0.5431820000000  0.4784510000000 1.0
C      1  0.5396400000000  0.4936400000000  0.5144800000000 1.0
C      1  0.4585330000000  0.4994740000000  0.4765650000000 1.0
C      1  0.4587230000000  0.5023300000000  0.5053550000000 1.0
C      1  0.5513640000000  0.5153050000000  0.4970190000000 1.0
C      1  0.5648620000000  0.5051780000000  0.4744640000000 1.0
C      1  0.4195390000000  0.5051580000000  0.5289120000000 1.0
C      1  0.4171170000000  0.5117900000000  0.4821530000000 1.0
C      1  0.5741380000000  0.5016500000000  0.5354740000000 1.0
C      1  0.4561530000000  0.5454010000000  0.5284750000000 1.0
C      1  0.5549710000000  0.5623810000000  0.4732910000000 1.0
C      1  0.5432120000000  0.5369690000000  0.5360790000000 1.0
C      1  0.4527290000000  0.5489810000000  0.4674900000000 1.0
C      1  0.5272150000000  0.5115450000000  0.5350740000000 1.0
C      1  0.4849660000000  0.5110430000000  0.4707990000000 1.0
C      1  0.4848550000000  0.5137030000000  0.5136270000000 1.0
C      1  0.5266380000000  0.5297820000000  0.4924720000000 1.0
C      1  0.4582800000000  0.5281670000000  0.5514670000000 1.0
C      1  0.5291450000000  0.5300650000000  0.4444420000000 1.0
C      1  0.5366360000000  0.5198430000000  0.5628490000000 1.0
C      1  0.4514740000000  0.5334310000000  0.4429340000000 1.0
C      1  0.5028360000000  0.5634950000000  0.4737290000000 1.0
C      1  0.5042250000000  0.5643170000000  0.5140100000000 1.0
C      1  0.5017370000000  0.4754240000000  0.5354490000000 1.0
C      1  0.4942140000000  0.4729020000000  0.4429150000000 1.0
C      1  0.4986180000000  0.5055550000000  0.5385860000000 1.0
C      1  0.4902680000000  0.5017680000000  0.4422960000000 1.0
C      1  0.5200960000000  0.4310910000000  0.5122390000000 1.0
C      1  0.4746070000000  0.4317190000000  0.5047570000000 1.0
C      1  0.4173610000000  0.5243410000000  0.5084430000000 1.0
C      1  0.5677140000000  0.5269330000000  0.5213230000000 1.0
C      1  0.5055860000000  0.5821020000000  0.4933700000000 1.0
C      1  0.5045370000000  0.5055030000000  0.4926240000000 1.0
C      1  0.4968310000000  0.4175940000000  0.5171070000000 1.0
C      1  0.5147080000000  0.4516900000000  0.4898170000000 1.0
C      1  0.5146790000000  0.4796540000000  0.5049770000000 1.0
END
