TITL C-68142-9882-4 -116.561761990307 125000 -191.664790298042 0 0 29 (C1) n - 1
REM
REM in /rds/project/t2_vol4/rds-t2-cs072/BORA/CARBON/from-Arr/AIRSS/Generating-Clusters/GAP-ML-2020/Higher-Symm/SD-CG/HFTN-CG
REM
REM
REM
REM
REM
REM ./C.cell (b20cbc046b6831c77cfcea5457e17084)
REM AIRSS Version 0.9.1 bugfix July 2018 build 013d7b7c2542+ Fri, 06 Jul 2018 19:26:36 +0100
REM compiler GCC version 9.3.0
REM options -cpp -mtune=generic -march=x86-64 -g -O0
REM seed 879575904 1204555564 978190525 1883899609 1729875613 931595353 -808989718 252259323 1625548855 1229307450 -728602168 -1479460675 -242638810 -671809658 -509849794 105429050 -1563609962 -1359017329 -1184402832 -288232111 642000982 -961757046 1944142700 -1815517431 -1101898389 1279127081 950394817 566567759 -2034230312 455071822 946813663 1996916314 -769415421
REM
CELL 1.54180   50.00000   50.00000   50.00000   90.00000   90.00000   90.00000
LATT -1
SFAC C  
C      1  0.5222000000000  0.5328160000000  0.5053150000000 1.0
C      1  0.5462510000000  0.4948720000000  0.5268160000000 1.0
C      1  0.5062530000000  0.5132290000000  0.5467480000000 1.0
C      1  0.5277460000000  0.4546740000000  0.5043060000000 1.0
C      1  0.4653140000000  0.5491810000000  0.4712420000000 1.0
C      1  0.4865700000000  0.4540670000000  0.5064810000000 1.0
C      1  0.5442230000000  0.4956180000000  0.4851750000000 1.0
C      1  0.4546250000000  0.5092200000000  0.4703590000000 1.0
C      1  0.4684020000000  0.4944660000000  0.5260480000000 1.0
C      1  0.5018020000000  0.4779380000000  0.4683150000000 1.0
C      1  0.4828870000000  0.5357090000000  0.4356630000000 1.0
C      1  0.5075920000000  0.4713950000000  0.5465860000000 1.0
C      1  0.5276600000000  0.4935660000000  0.5467820000000 1.0
C      1  0.5441790000000  0.5160290000000  0.5072710000000 1.0
C      1  0.5015430000000  0.5310930000000  0.5260920000000 1.0
C      1  0.5221860000000  0.4989570000000  0.4685630000000 1.0
C      1  0.4863680000000  0.4911930000000  0.5468850000000 1.0
C      1  0.4589090000000  0.5291350000000  0.4498530000000 1.0
C      1  0.5463580000000  0.4745940000000  0.5047930000000 1.0
C      1  0.4683360000000  0.4748050000000  0.5050480000000 1.0
C      1  0.4569750000000  0.5321230000000  0.4928090000000 1.0
C      1  0.5064310000000  0.4562090000000  0.4845800000000 1.0
C      1  0.5076910000000  0.4528330000000  0.5263970000000 1.0
C      1  0.4941400000000  0.5442370000000  0.4613620000000 1.0
C      1  0.4745320000000  0.5221280000000  0.5136240000000 1.0
C      1  0.5092800000000  0.5259190000000  0.4775080000000 1.0
C      1  0.5082870000000  0.4916410000000  0.5093910000000 1.0
C      1  0.4743080000000  0.4895990000000  0.4783690000000 1.0
C      1  0.4893430000000  0.5104910000000  0.4909950000000 1.0
END
