TITL C-69494-8758-6 -4.15304553531977 125000 -362.162816651009 0 0 55 (C1) n - 1
REM
REM in /rds/project/t2_vol4/rds-t2-cs072/BORA/CARBON/from-Arr/AIRSS/Generating-Clusters/GAP-ML-2020/Higher-Symm/SD-CG/HFTN-CG
REM
REM
REM
REM
REM
REM ./C.cell (b20cbc046b6831c77cfcea5457e17084)
REM AIRSS Version 0.9.1 bugfix July 2018 build 013d7b7c2542+ Fri, 06 Jul 2018 19:26:36 +0100
REM compiler GCC version 9.3.0
REM options -cpp -mtune=generic -march=x86-64 -g -O0
REM seed -1164452693 -1307197568 1440671190 -1866978263 108174914 -94483676 -22616964 -556591597 -133407704 -998934960 -884750316 -1460749344 351270174 1785587285 1070926033 -803328815 1024002315 75268005 -1423817389 -1141162459 1658753834 1644945257 -2001616232 386684587 -226037386 -1709457752 -1037916149 1938869755 1172517654 -639984776 -123511002 1391953584 398912780
REM
CELL 1.54180   50.00000   50.00000   50.00000   90.00000   90.00000   90.00000
LATT -1
SFAC C  
C      1  0.4797990000000  0.5026250000000  0.4319510000000 1.0
C      1  0.4173660000000  0.5156970000000  0.5090510000000 1.0
C      1  0.5116820000000  0.5162390000000  0.5837070000000 1.0
C      1  0.5885140000000  0.5331690000000  0.4723710000000 1.0
C      1  0.4849250000000  0.4762230000000  0.4256600000000 1.0
C      1  0.4142440000000  0.4904300000000  0.5110120000000 1.0
C      1  0.5090180000000  0.4868270000000  0.5786820000000 1.0
C      1  0.5938750000000  0.5106340000000  0.4568200000000 1.0
C      1  0.4451910000000  0.4514130000000  0.5261330000000 1.0
C      1  0.4815190000000  0.4464790000000  0.5601990000000 1.0
C      1  0.5299340000000  0.4436580000000  0.4858250000000 1.0
C      1  0.4968200000000  0.4392120000000  0.4615070000000 1.0
C      1  0.4554480000000  0.5484360000000  0.5239960000000 1.0
C      1  0.4915350000000  0.5571930000000  0.5585510000000 1.0
C      1  0.5366810000000  0.5445090000000  0.4814370000000 1.0
C      1  0.5040440000000  0.5473550000000  0.4408350000000 1.0
C      1  0.4846680000000  0.4723770000000  0.5217940000000 1.0
C      1  0.5140380000000  0.4660020000000  0.5238640000000 1.0
C      1  0.5341900000000  0.4704840000000  0.4764100000000 1.0
C      1  0.4729910000000  0.4683800000000  0.4937500000000 1.0
C      1  0.4964450000000  0.5300750000000  0.5222740000000 1.0
C      1  0.5257550000000  0.5347470000000  0.5286250000000 1.0
C      1  0.5223510000000  0.5167700000000  0.4802170000000 1.0
C      1  0.4940240000000  0.5274700000000  0.4918600000000 1.0
C      1  0.5237810000000  0.5075990000000  0.4503710000000 1.0
C      1  0.4706660000000  0.5154450000000  0.4802970000000 1.0
C      1  0.4886830000000  0.5146260000000  0.5454920000000 1.0
C      1  0.5355580000000  0.5091470000000  0.5386910000000 1.0
C      1  0.5220140000000  0.4784870000000  0.4521350000000 1.0
C      1  0.4636410000000  0.4890770000000  0.4785680000000 1.0
C      1  0.4759210000000  0.4902010000000  0.5444820000000 1.0
C      1  0.5320420000000  0.4880170000000  0.5204070000000 1.0
C      1  0.4337990000000  0.4762830000000  0.5273050000000 1.0
C      1  0.4866190000000  0.4723830000000  0.5678990000000 1.0
C      1  0.5738740000000  0.5007850000000  0.4393710000000 1.0
C      1  0.5010850000000  0.4619080000000  0.4420420000000 1.0
C      1  0.4421380000000  0.5249540000000  0.5249880000000 1.0
C      1  0.4943780000000  0.5321910000000  0.5686510000000 1.0
C      1  0.5611220000000  0.5369710000000  0.4686380000000 1.0
C      1  0.5030080000000  0.5211740000000  0.4332750000000 1.0
C      1  0.5168200000000  0.4408740000000  0.5111050000000 1.0
C      1  0.5206670000000  0.4265820000000  0.4660360000000 1.0
C      1  0.4798760000000  0.4416980000000  0.4852170000000 1.0
C      1  0.4725350000000  0.4440930000000  0.5325640000000 1.0
C      1  0.5300020000000  0.5546750000000  0.5093720000000 1.0
C      1  0.5142060000000  0.5586170000000  0.4631850000000 1.0
C      1  0.4958070000000  0.5582510000000  0.4848430000000 1.0
C      1  0.4831540000000  0.5572320000000  0.5300920000000 1.0
C      1  0.5516630000000  0.5158520000000  0.4468270000000 1.0
C      1  0.4651330000000  0.5046640000000  0.4554010000000 1.0
C      1  0.4493840000000  0.4986840000000  0.5381580000000 1.0
C      1  0.5291260000000  0.5024200000000  0.5654360000000 1.0
C      1  0.4892500000000  0.4298120000000  0.5104550000000 1.0
C      1  0.5033940000000  0.5693930000000  0.5088570000000 1.0
C      1  0.5353470000000  0.4930500000000  0.4930230000000 1.0
END
