TITL C-69779-1866-10 -0.0865230984613384 125000 -484.25841677642 0 0 78 (C1) n - 1
REM
REM in /rds/project/t2_vol4/rds-t2-cs072/BORA/CARBON/from-Arr/AIRSS/Generating-Clusters/GAP-ML-2020/Higher-Symm/SD-CG/HFTN-CG
REM
REM
REM
REM
REM
REM ./C.cell (b20cbc046b6831c77cfcea5457e17084)
REM AIRSS Version 0.9.1 bugfix July 2018 build 013d7b7c2542+ Fri, 06 Jul 2018 19:26:36 +0100
REM compiler GCC version 9.3.0
REM options -cpp -mtune=generic -march=x86-64 -g -O0
REM seed -670518986 1040036147 -696515919 -542010979 1065659822 -74525957 369098168 1393435356 -1956788574 -403355575 -1232240748 -1635527236 -1830799816 1011509535 -1931306791 1491398579 913515068 390236876 -615115344 -1906624981 996148082 -1864105813 -750702142 1306542889 1361627279 -289408192 -1710325882 -305467717 -327851913 1045001743 902508809 -315716815 1907019177
REM
CELL 1.54180   50.00000   50.00000   50.00000   90.00000   90.00000   90.00000
LATT -1
SFAC C  
C      1  0.4410010000000  0.4720000000000  0.5265830000000 1.0
C      1  0.5257280000000  0.4395820000000  0.4750990000000 1.0
C      1  0.4755060000000  0.5260340000000  0.4404850000000 1.0
C      1  0.4408440000000  0.5262890000000  0.4717490000000 1.0
C      1  0.5601360000000  0.5292760000000  0.5282080000000 1.0
C      1  0.5611420000000  0.4762220000000  0.4731480000000 1.0
C      1  0.5289250000000  0.5608350000000  0.5262280000000 1.0
C      1  0.4717200000000  0.5601760000000  0.4762460000000 1.0
C      1  0.4749800000000  0.4411910000000  0.5313100000000 1.0
C      1  0.4774430000000  0.4742460000000  0.5631190000000 1.0
C      1  0.5274030000000  0.4711500000000  0.4420840000000 1.0
C      1  0.5284530000000  0.5313010000000  0.5589740000000 1.0
C      1  0.5598090000000  0.4738380000000  0.5310740000000 1.0
C      1  0.4785030000000  0.4378190000000  0.4757410000000 1.0
C      1  0.5225360000000  0.5269170000000  0.4392400000000 1.0
C      1  0.5606090000000  0.5236110000000  0.4717630000000 1.0
C      1  0.4419100000000  0.5277650000000  0.5296380000000 1.0
C      1  0.4404660000000  0.4702450000000  0.4789860000000 1.0
C      1  0.4731920000000  0.5612410000000  0.5227940000000 1.0
C      1  0.5298130000000  0.5588860000000  0.4717780000000 1.0
C      1  0.5305850000000  0.4431380000000  0.5303270000000 1.0
C      1  0.5246600000000  0.4759390000000  0.5627160000000 1.0
C      1  0.4711780000000  0.4697880000000  0.4432910000000 1.0
C      1  0.4727300000000  0.5310960000000  0.5587700000000 1.0
C      1  0.4877930000000  0.4473290000000  0.5552370000000 1.0
C      1  0.5512860000000  0.4847140000000  0.4463150000000 1.0
C      1  0.4451820000000  0.5504660000000  0.4853580000000 1.0
C      1  0.4846670000000  0.5533400000000  0.4508020000000 1.0
C      1  0.5154460000000  0.5559410000000  0.5509800000000 1.0
C      1  0.5153030000000  0.4468020000000  0.4479370000000 1.0
C      1  0.5531040000000  0.5177200000000  0.5537880000000 1.0
C      1  0.4483930000000  0.5126330000000  0.4477090000000 1.0
C      1  0.4505830000000  0.4863910000000  0.5538180000000 1.0
C      1  0.4507990000000  0.4451970000000  0.5181160000000 1.0
C      1  0.5529980000000  0.4496590000000  0.4873280000000 1.0
C      1  0.5543610000000  0.5532220000000  0.5139280000000 1.0
C      1  0.5171210000000  0.4486400000000  0.5546290000000 1.0
C      1  0.4467690000000  0.4827550000000  0.4508620000000 1.0
C      1  0.5547720000000  0.5509170000000  0.4841990000000 1.0
C      1  0.5143280000000  0.5537590000000  0.4489120000000 1.0
C      1  0.4855990000000  0.5558570000000  0.5495960000000 1.0
C      1  0.4859720000000  0.4463140000000  0.4485180000000 1.0
C      1  0.4485060000000  0.5160100000000  0.5548480000000 1.0
C      1  0.5487870000000  0.5140200000000  0.4456870000000 1.0
C      1  0.5515750000000  0.4879280000000  0.5553210000000 1.0
C      1  0.5551580000000  0.4489590000000  0.5170590000000 1.0
C      1  0.4524240000000  0.4441710000000  0.4887390000000 1.0
C      1  0.4462060000000  0.5511340000000  0.5149060000000 1.0
C      1  0.5157860000000  0.5369250000000  0.4850700000000 1.0
C      1  0.4865190000000  0.5168320000000  0.5374740000000 1.0
C      1  0.5378860000000  0.4869570000000  0.5169140000000 1.0
C      1  0.5160220000000  0.4649440000000  0.5173200000000 1.0
C      1  0.4862120000000  0.4643710000000  0.4882310000000 1.0
C      1  0.4864420000000  0.5348480000000  0.5145870000000 1.0
C      1  0.4851370000000  0.4836940000000  0.4650810000000 1.0
C      1  0.5156640000000  0.4876120000000  0.5361000000000 1.0
C      1  0.5150820000000  0.5134330000000  0.4653770000000 1.0
C      1  0.5355140000000  0.5149580000000  0.4859650000000 1.0
C      1  0.4642050000000  0.5154540000000  0.5152050000000 1.0
C      1  0.4652110000000  0.4847490000000  0.4871840000000 1.0
C      1  0.4861080000000  0.5347430000000  0.4849780000000 1.0
C      1  0.5157560000000  0.5170420000000  0.5365640000000 1.0
C      1  0.4657200000000  0.4861300000000  0.5168950000000 1.0
C      1  0.4869760000000  0.4640070000000  0.5178120000000 1.0
C      1  0.5156500000000  0.4654490000000  0.4877570000000 1.0
C      1  0.5158180000000  0.5371250000000  0.5143150000000 1.0
C      1  0.5144290000000  0.4840330000000  0.4647210000000 1.0
C      1  0.4858390000000  0.4872480000000  0.5369930000000 1.0
C      1  0.4853550000000  0.5130260000000  0.4657960000000 1.0
C      1  0.4634080000000  0.5140880000000  0.4858180000000 1.0
C      1  0.5371270000000  0.5163080000000  0.5151870000000 1.0
C      1  0.5364300000000  0.4849360000000  0.4876250000000 1.0
C      1  0.5006220000000  0.4836640000000  0.5766320000000 1.0
C      1  0.4988020000000  0.5192490000000  0.4255790000000 1.0
C      1  0.4803300000000  0.5749170000000  0.4990040000000 1.0
C      1  0.5752690000000  0.4999660000000  0.4797810000000 1.0
C      1  0.5031030000000  0.4249920000000  0.4836260000000 1.0
C      1  0.4259910000000  0.4774990000000  0.5031710000000 1.0
END
