TITL C-69497-8779-9 -0.120646214876992 125000 -465.226813043873 0 0 68 (C1) n - 1
REM
REM in /rds/project/t2_vol4/rds-t2-cs072/BORA/CARBON/from-Arr/AIRSS/Generating-Clusters/GAP-ML-2020/Higher-Symm/SD-CG/HFTN-CG
REM
REM
REM
REM
REM
REM ./C.cell (b20cbc046b6831c77cfcea5457e17084)
REM AIRSS Version 0.9.1 bugfix July 2018 build 013d7b7c2542+ Fri, 06 Jul 2018 19:26:36 +0100
REM compiler GCC version 9.3.0
REM options -cpp -mtune=generic -march=x86-64 -g -O0
REM seed -315860661 -472763683 -1885837729 -17936731 -833169042 -1243579161 681495804 -888990311 1714380441 -1853010119 425154913 758919470 75843378 2141507506 1859064394 -226137068 -2094639137 -1572554252 851875960 1769618306 -10439959 -2049110886 865240837 1074050034 -134052778 -1091658159 -700035802 1372951612 1638567784 1276790552 -80078190 1941736886 -697817653
REM
CELL 1.54180   50.00000   50.00000   50.00000   90.00000   90.00000   90.00000
LATT -1
SFAC C  
C      1  0.4857230000000  0.5208660000000  0.5402910000000 1.0
C      1  0.5041500000000  0.5108880000000  0.5185630000000 1.0
C      1  0.5192890000000  0.4861090000000  0.5111600000000 1.0
C      1  0.5355550000000  0.4971240000000  0.4870780000000 1.0
C      1  0.5112960000000  0.5022600000000  0.4723000000000 1.0
C      1  0.5145540000000  0.5404770000000  0.4427930000000 1.0
C      1  0.4870210000000  0.5359460000000  0.4365590000000 1.0
C      1  0.4592290000000  0.5335570000000  0.4495930000000 1.0
C      1  0.4468450000000  0.5370170000000  0.4755510000000 1.0
C      1  0.4378800000000  0.5057910000000  0.5171210000000 1.0
C      1  0.4581530000000  0.5095970000000  0.5388300000000 1.0
C      1  0.4802760000000  0.5704620000000  0.4744090000000 1.0
C      1  0.4585660000000  0.5601700000000  0.4884790000000 1.0
C      1  0.4629770000000  0.5684010000000  0.5146360000000 1.0
C      1  0.4822320000000  0.5697110000000  0.5317060000000 1.0
C      1  0.4979810000000  0.5491100000000  0.5402830000000 1.0
C      1  0.5257650000000  0.5427310000000  0.5480940000000 1.0
C      1  0.5493630000000  0.5431690000000  0.5318290000000 1.0
C      1  0.5576840000000  0.5417170000000  0.5028520000000 1.0
C      1  0.5482200000000  0.5440580000000  0.4757950000000 1.0
C      1  0.5243030000000  0.5566730000000  0.4651400000000 1.0
C      1  0.5055160000000  0.5735380000000  0.4763020000000 1.0
C      1  0.5526780000000  0.4531670000000  0.5017200000000 1.0
C      1  0.5478070000000  0.4509100000000  0.4751840000000 1.0
C      1  0.5259500000000  0.4489280000000  0.4554390000000 1.0
C      1  0.4985170000000  0.4454740000000  0.4528760000000 1.0
C      1  0.4717030000000  0.4448660000000  0.4660140000000 1.0
C      1  0.4569060000000  0.4471140000000  0.4897270000000 1.0
C      1  0.4564630000000  0.4522360000000  0.5187860000000 1.0
C      1  0.4703430000000  0.4551440000000  0.5427390000000 1.0
C      1  0.4950980000000  0.4493230000000  0.5558810000000 1.0
C      1  0.5233640000000  0.4525840000000  0.5498000000000 1.0
C      1  0.5347860000000  0.4628950000000  0.5255230000000 1.0
C      1  0.4338060000000  0.4891750000000  0.4723340000000 1.0
C      1  0.4107490000000  0.4792690000000  0.5325740000000 1.0
C      1  0.4518470000000  0.4917250000000  0.5770110000000 1.0
C      1  0.4820150000000  0.4906520000000  0.5773300000000 1.0
C      1  0.5394300000000  0.4974440000000  0.5696260000000 1.0
C      1  0.5624390000000  0.4979520000000  0.5522120000000 1.0
C      1  0.5791710000000  0.4966710000000  0.4951980000000 1.0
C      1  0.5637830000000  0.4975170000000  0.4707500000000 1.0
C      1  0.5265150000000  0.4933810000000  0.4286870000000 1.0
C      1  0.4990110000000  0.4881590000000  0.4223480000000 1.0
C      1  0.4451680000000  0.4852750000000  0.4465610000000 1.0
C      1  0.4616110000000  0.4624110000000  0.4439540000000 1.0
C      1  0.4341340000000  0.4660100000000  0.4875110000000 1.0
C      1  0.4329680000000  0.4723230000000  0.5159820000000 1.0
C      1  0.4624180000000  0.4809620000000  0.5529120000000 1.0
C      1  0.4988450000000  0.4677480000000  0.5789870000000 1.0
C      1  0.5268980000000  0.4715100000000  0.5731010000000 1.0
C      1  0.5628010000000  0.4759960000000  0.5353210000000 1.0
C      1  0.5737810000000  0.4729210000000  0.5096950000000 1.0
C      1  0.5603970000000  0.4725600000000  0.4577150000000 1.0
C      1  0.5389530000000  0.4710730000000  0.4396890000000 1.0
C      1  0.4874710000000  0.4638100000000  0.4317670000000 1.0
C      1  0.4952250000000  0.5132810000000  0.5666890000000 1.0
C      1  0.5226970000000  0.5202170000000  0.5671150000000 1.0
C      1  0.5685410000000  0.5215840000000  0.5376940000000 1.0
C      1  0.5762940000000  0.5205730000000  0.5097320000000 1.0
C      1  0.5544060000000  0.5221070000000  0.4581570000000 1.0
C      1  0.5341250000000  0.5193860000000  0.4384370000000 1.0
C      1  0.4820640000000  0.5101820000000  0.4239460000000 1.0
C      1  0.4561170000000  0.5084350000000  0.4357720000000 1.0
C      1  0.4356100000000  0.5131920000000  0.4880030000000 1.0
C      1  0.4165580000000  0.5052610000000  0.5407580000000 1.0
C      1  0.4375510000000  0.5121150000000  0.5617260000000 1.0
C      1  0.4932230000000  0.5143510000000  0.4921050000000 1.0
C      1  0.4956700000000  0.4866210000000  0.4907160000000 1.0
END
