TITL C-69502-9922-3 21.7028053356228 125000 -217.298997057476 0 0 32 (S8) n - 1
REM
REM in /rds/project/t2_vol4/rds-t2-cs072/BORA/CARBON/from-Arr/AIRSS/Generating-Clusters/GAP-ML-2020/Higher-Symm/SD-CG/HFTN-CG
REM
REM
REM
REM
REM
REM ./C.cell (b20cbc046b6831c77cfcea5457e17084)
REM AIRSS Version 0.9.1 bugfix July 2018 build 013d7b7c2542+ Fri, 06 Jul 2018 19:26:36 +0100
REM compiler GCC version 9.3.0
REM options -cpp -mtune=generic -march=x86-64 -g -O0
REM seed -771565094 -484297589 -254189611 -1493521449 -290157005 140725266 -314564224 917218893 -1453271011 -42573733 1494809601 -1576877280 1604324922 2067101179 1989721649 1524740086 -289743751 1270621769 -630308398 -300260834 946298557 -2077976064 2136829650 -1988984086 197225949 -127957578 338219594 1542051624 -1494323134 1954912775 267350509 1485441527 929937961
REM
CELL 1.54180   50.00000   50.00000   50.00000   90.00000   90.00000   90.00000
LATT -1
SFAC C  
C      1  0.4629300000000  0.4925390000000  0.4651800000000 1.0
C      1  0.4685100000000  0.5209350000000  0.5348190000000 1.0
C      1  0.4925390000000  0.5370720000000  0.4651820000000 1.0
C      1  0.5209360000000  0.5314880000000  0.5348210000000 1.0
C      1  0.5370720000000  0.5074630000000  0.4651820000000 1.0
C      1  0.5314890000000  0.4790620000000  0.5348190000000 1.0
C      1  0.5074630000000  0.4629300000000  0.4651790000000 1.0
C      1  0.4790630000000  0.4685090000000  0.5348180000000 1.0
C      1  0.4494150000000  0.5239460000000  0.5118370000000 1.0
C      1  0.4811640000000  0.5527020000000  0.4881640000000 1.0
C      1  0.5239460000000  0.5505840000000  0.5118400000000 1.0
C      1  0.5527020000000  0.5188360000000  0.4881650000000 1.0
C      1  0.5505840000000  0.4760530000000  0.5118380000000 1.0
C      1  0.5188360000000  0.4472990000000  0.4881610000000 1.0
C      1  0.4760530000000  0.4494150000000  0.5118350000000 1.0
C      1  0.4472990000000  0.4811640000000  0.4881610000000 1.0
C      1  0.5557640000000  0.5047470000000  0.5118390000000 1.0
C      1  0.5427890000000  0.4639260000000  0.4881620000000 1.0
C      1  0.5047470000000  0.4442350000000  0.5118350000000 1.0
C      1  0.4639260000000  0.4572120000000  0.4881600000000 1.0
C      1  0.4442350000000  0.4952520000000  0.5118360000000 1.0
C      1  0.4572120000000  0.5360750000000  0.4881630000000 1.0
C      1  0.4952520000000  0.5557640000000  0.5118390000000 1.0
C      1  0.5360750000000  0.5427890000000  0.4881650000000 1.0
C      1  0.5086040000000  0.4631760000000  0.5348180000000 1.0
C      1  0.4800480000000  0.4678800000000  0.4651790000000 1.0
C      1  0.4631770000000  0.4913940000000  0.5348180000000 1.0
C      1  0.4678790000000  0.5199540000000  0.4651810000000 1.0
C      1  0.4913950000000  0.5368210000000  0.5348200000000 1.0
C      1  0.5199540000000  0.5321230000000  0.4651820000000 1.0
C      1  0.5368220000000  0.5086030000000  0.5348210000000 1.0
C      1  0.5321220000000  0.4800480000000  0.4651810000000 1.0
END
