TITL C-69773-3920-2 -19.3189982918445 125000 -927.399873204881 0 0 132 (C2v) n - 1
REM
REM in /rds/project/t2_vol4/rds-t2-cs072/BORA/CARBON/from-Arr/AIRSS/Generating-Clusters/GAP-ML-2020/Higher-Symm/SD-CG/HFTN-CG
REM
REM
REM
REM
REM
REM ./C.cell (b20cbc046b6831c77cfcea5457e17084)
REM AIRSS Version 0.9.1 bugfix July 2018 build 013d7b7c2542+ Fri, 06 Jul 2018 19:26:36 +0100
REM compiler GCC version 9.3.0
REM options -cpp -mtune=generic -march=x86-64 -g -O0
REM seed 806500133 -96306691 92994103 -744245072 597430770 1007666786 1442133217 866934769 1645479088 1446632991 2041336020 1662556125 -1093232298 -1754478610 -848443906 1466179726 765212343 -639098636 -304734177 1262724252 -1300512180 846279437 -410416115 -91287873 -463753056 2049554148 608274297 -105748280 -1799053579 515084435 1997211640 -2033743269 -1589582860
REM
CELL 1.54180   50.00000   50.00000   50.00000   90.00000   90.00000   90.00000
LATT -1
SFAC C  
C      1  0.4873970000000  0.5251240000000  0.6062260000000 1.0
C      1  0.4873470000000  0.4660910000000  0.3981530000000 1.0
C      1  0.5126070000000  0.5251240000000  0.6062250000000 1.0
C      1  0.5126480000000  0.4660900000000  0.3981520000000 1.0
C      1  0.4873500000000  0.4660810000000  0.6018440000000 1.0
C      1  0.4873940000000  0.5251340000000  0.3937770000000 1.0
C      1  0.5126520000000  0.4660800000000  0.6018440000000 1.0
C      1  0.5126040000000  0.5251340000000  0.3937760000000 1.0
C      1  0.5255980000000  0.5132980000000  0.4194740000000 1.0
C      1  0.5259440000000  0.4815690000000  0.5786780000000 1.0
C      1  0.4744000000000  0.5132990000000  0.4194750000000 1.0
C      1  0.4740580000000  0.4815700000000  0.5786790000000 1.0
C      1  0.5259410000000  0.4815760000000  0.4213190000000 1.0
C      1  0.5256010000000  0.5132910000000  0.5805270000000 1.0
C      1  0.4740560000000  0.4815770000000  0.4213200000000 1.0
C      1  0.4744020000000  0.5132920000000  0.5805280000000 1.0
C      1  0.5152870000000  0.4695980000000  0.5508310000000 1.0
C      1  0.5150170000000  0.5284380000000  0.4452080000000 1.0
C      1  0.4847130000000  0.4695990000000  0.5508320000000 1.0
C      1  0.4849820000000  0.5284380000000  0.4452080000000 1.0
C      1  0.5150190000000  0.5284320000000  0.5547940000000 1.0
C      1  0.5152850000000  0.4696030000000  0.4491650000000 1.0
C      1  0.4849840000000  0.5284330000000  0.5547950000000 1.0
C      1  0.4847120000000  0.4696040000000  0.4491660000000 1.0
C      1  0.4856950000000  0.4222710000000  0.4665580000000 1.0
C      1  0.4858680000000  0.5779880000000  0.5525900000000 1.0
C      1  0.5143010000000  0.4222700000000  0.4665570000000 1.0
C      1  0.5141360000000  0.5779870000000  0.5525890000000 1.0
C      1  0.4858670000000  0.5779930000000  0.4474180000000 1.0
C      1  0.4856960000000  0.4222680000000  0.5334350000000 1.0
C      1  0.5141350000000  0.5779920000000  0.4474180000000 1.0
C      1  0.5143020000000  0.4222670000000  0.5334350000000 1.0
C      1  0.5804090000000  0.5182290000000  0.4845920000000 1.0
C      1  0.5815800000000  0.4882210000000  0.5152410000000 1.0
C      1  0.4195910000000  0.5182320000000  0.4845950000000 1.0
C      1  0.4184200000000  0.4882240000000  0.5152440000000 1.0
C      1  0.5815800000000  0.4882230000000  0.4847550000000 1.0
C      1  0.5804100000000  0.5182280000000  0.5154070000000 1.0
C      1  0.4184190000000  0.4882260000000  0.4847580000000 1.0
C      1  0.4195910000000  0.5182310000000  0.5154100000000 1.0
C      1  0.4059950000000  0.4406750000000  0.5147470000000 1.0
C      1  0.4157280000000  0.5659560000000  0.4854720000000 1.0
C      1  0.5940030000000  0.4406710000000  0.5147440000000 1.0
C      1  0.5842740000000  0.5659530000000  0.4854690000000 1.0
C      1  0.4157280000000  0.5659550000000  0.5145370000000 1.0
C      1  0.4059940000000  0.4406770000000  0.4852500000000 1.0
C      1  0.5842750000000  0.5659520000000  0.5145350000000 1.0
C      1  0.5940030000000  0.4406730000000  0.4852470000000 1.0
C      1  0.4015870000000  0.5408220000000  0.5150970000000 1.0
C      1  0.3975790000000  0.4679540000000  0.4848110000000 1.0
C      1  0.5984150000000  0.5408180000000  0.5150940000000 1.0
C      1  0.6024190000000  0.4679500000000  0.4848080000000 1.0
C      1  0.3975790000000  0.4679530000000  0.5151890000000 1.0
C      1  0.4015860000000  0.5408240000000  0.4849100000000 1.0
C      1  0.6024200000000  0.4679490000000  0.5151860000000 1.0
C      1  0.5984150000000  0.5408200000000  0.4849070000000 1.0
C      1  0.5569050000000  0.5170940000000  0.5327620000000 1.0
C      1  0.5573770000000  0.4860030000000  0.4681580000000 1.0
C      1  0.4430960000000  0.5170960000000  0.5327640000000 1.0
C      1  0.4426210000000  0.4860060000000  0.4681590000000 1.0
C      1  0.5573780000000  0.4860000000000  0.5318390000000 1.0
C      1  0.5569040000000  0.5170970000000  0.4672370000000 1.0
C      1  0.4426220000000  0.4860030000000  0.5318410000000 1.0
C      1  0.4430950000000  0.5170990000000  0.4672390000000 1.0
C      1  0.5728910000000  0.4284230000000  0.4704890000000 1.0
C      1  0.5609810000000  0.5712890000000  0.5292730000000 1.0
C      1  0.4271060000000  0.4284260000000  0.4704910000000 1.0
C      1  0.4390230000000  0.5712920000000  0.5292750000000 1.0
C      1  0.5609800000000  0.5712920000000  0.4707320000000 1.0
C      1  0.5728920000000  0.4284200000000  0.5295020000000 1.0
C      1  0.4390220000000  0.5712950000000  0.4707340000000 1.0
C      1  0.4271070000000  0.4284230000000  0.5295050000000 1.0
C      1  0.4699530000000  0.4078190000000  0.5148890000000 1.0
C      1  0.4848030000000  0.5897380000000  0.4735780000000 1.0
C      1  0.5300440000000  0.4078180000000  0.5148880000000 1.0
C      1  0.5152000000000  0.5897370000000  0.4735770000000 1.0
C      1  0.4848040000000  0.5897350000000  0.5264310000000 1.0
C      1  0.4699520000000  0.4078210000000  0.4851030000000 1.0
C      1  0.5152010000000  0.5897350000000  0.5264310000000 1.0
C      1  0.5300440000000  0.4078200000000  0.4851020000000 1.0
C      1  0.5550860000000  0.5130390000000  0.5784440000000 1.0
C      1  0.5553230000000  0.4842870000000  0.4226460000000 1.0
C      1  0.4449170000000  0.5130410000000  0.5784460000000 1.0
C      1  0.4446740000000  0.4842900000000  0.4226480000000 1.0
C      1  0.5553260000000  0.4842800000000  0.5773510000000 1.0
C      1  0.5550830000000  0.5130460000000  0.4215550000000 1.0
C      1  0.4446760000000  0.4842820000000  0.5773530000000 1.0
C      1  0.4449150000000  0.5130480000000  0.4215570000000 1.0
C      1  0.5569070000000  0.4436370000000  0.5479460000000 1.0
C      1  0.5552400000000  0.5559200000000  0.4474110000000 1.0
C      1  0.4430920000000  0.4436390000000  0.5479480000000 1.0
C      1  0.4447600000000  0.5559220000000  0.4474120000000 1.0
C      1  0.5552420000000  0.5559150000000  0.5525930000000 1.0
C      1  0.5569060000000  0.4436420000000  0.4520470000000 1.0
C      1  0.4447620000000  0.5559170000000  0.5525950000000 1.0
C      1  0.4430910000000  0.4436440000000  0.4520490000000 1.0
C      1  0.5588560000000  0.4094200000000  0.5146000000000 1.0
C      1  0.5400280000000  0.5842060000000  0.4860590000000 1.0
C      1  0.4411410000000  0.4094230000000  0.5146020000000 1.0
C      1  0.4599750000000  0.5842080000000  0.4860600000000 1.0
C      1  0.5400280000000  0.5842050000000  0.5139480000000 1.0
C      1  0.5588560000000  0.4094220000000  0.4853890000000 1.0
C      1  0.4599760000000  0.5842060000000  0.5139490000000 1.0
C      1  0.4411400000000  0.4094240000000  0.4853910000000 1.0
C      1  0.4716060000000  0.5554790000000  0.4408070000000 1.0
C      1  0.4715040000000  0.4424840000000  0.5471170000000 1.0
C      1  0.5283940000000  0.5554780000000  0.4408060000000 1.0
C      1  0.5284950000000  0.4424830000000  0.5471160000000 1.0
C      1  0.4715030000000  0.4424890000000  0.4528780000000 1.0
C      1  0.4716080000000  0.5554730000000  0.5591990000000 1.0
C      1  0.5284930000000  0.4424880000000  0.4528770000000 1.0
C      1  0.5283960000000  0.5554720000000  0.5591980000000 1.0
C      1  0.4739830000000  0.5174770000000  0.4734940000000 1.0
C      1  0.4737470000000  0.4856120000000  0.5256500000000 1.0
C      1  0.5260160000000  0.5174760000000  0.4734930000000 1.0
C      1  0.5262540000000  0.4856110000000  0.5256490000000 1.0
C      1  0.4737460000000  0.4856150000000  0.4743500000000 1.0
C      1  0.4739840000000  0.5174740000000  0.5265080000000 1.0
C      1  0.5262530000000  0.4856140000000  0.4743490000000 1.0
C      1  0.5260170000000  0.5174730000000  0.5265080000000 1.0
C      1  0.5648790000000  0.4699160000000  0.5558200000000 1.0
C      1  0.5646950000000  0.5295940000000  0.4419050000000 1.0
C      1  0.4351220000000  0.4699180000000  0.5558220000000 1.0
C      1  0.4353040000000  0.5295970000000  0.4419070000000 1.0
C      1  0.5646970000000  0.5295890000000  0.5580960000000 1.0
C      1  0.5648770000000  0.4699210000000  0.4441750000000 1.0
C      1  0.4353060000000  0.5295910000000  0.5580980000000 1.0
C      1  0.4351200000000  0.4699240000000  0.4441770000000 1.0
C      1  0.5148130000000  0.4753690000000  0.4999990000000 1.0
C      1  0.4852210000000  0.5292680000000  0.5000020000000 1.0
C      1  0.5147800000000  0.5292680000000  0.5000010000000 1.0
C      1  0.4851860000000  0.4753700000000  0.4999990000000 1.0
END
