TITL C-69477-8758-2 -11.2054111004585 125000 -554.367080576572 0 0 85 (C5) n - 1
REM
REM in /rds/project/t2_vol4/rds-t2-cs072/BORA/CARBON/from-Arr/AIRSS/Generating-Clusters/GAP-ML-2020/Higher-Symm/SD-CG/HFTN-CG
REM
REM
REM
REM
REM
REM ./C.cell (b20cbc046b6831c77cfcea5457e17084)
REM AIRSS Version 0.9.1 bugfix July 2018 build 013d7b7c2542+ Fri, 06 Jul 2018 19:26:36 +0100
REM compiler GCC version 9.3.0
REM options -cpp -mtune=generic -march=x86-64 -g -O0
REM seed -1267308103 1329281549 -1618889550 -51914863 64453870 -847367230 -1775527636 1246919895 -152320906 1192652761 1424396258 -536912147 543855771 840343765 -774363318 38835076 63592615 -878848924 1953864332 -410402991 -1341726007 -1170549407 1684140436 1586634504 2100177090 -370377395 -2137966770 1798140664 -74352233 -742580046 -1155491361 1175139064 449839078
REM
CELL 1.54180   50.00000   50.00000   50.00000   90.00000   90.00000   90.00000
LATT -1
SFAC C  
C      1  0.5092530000000  0.5931120000000  0.5234200000000 1.0
C      1  0.4805590000000  0.5931100000000  0.5160200000000 1.0
C      1  0.4787290000000  0.5931010000000  0.4864440000000 1.0
C      1  0.5062930000000  0.5930980000000  0.4755640000000 1.0
C      1  0.5251580000000  0.5931050000000  0.4984160000000 1.0
C      1  0.5092570000000  0.4068390000000  0.5234740000000 1.0
C      1  0.4805620000000  0.4068370000000  0.5160750000000 1.0
C      1  0.4787320000000  0.4068280000000  0.4864980000000 1.0
C      1  0.5062960000000  0.4068250000000  0.4756180000000 1.0
C      1  0.5251610000000  0.4068320000000  0.4984710000000 1.0
C      1  0.4585980000000  0.5467610000000  0.5383220000000 1.0
C      1  0.4507460000000  0.5467420000000  0.4724580000000 1.0
C      1  0.5109600000000  0.5467350000000  0.4446370000000 1.0
C      1  0.5560260000000  0.5467500000000  0.4933070000000 1.0
C      1  0.5236650000000  0.5467660000000  0.5512070000000 1.0
C      1  0.4586000000000  0.4531970000000  0.5383500000000 1.0
C      1  0.4507480000000  0.4531780000000  0.4724860000000 1.0
C      1  0.5109610000000  0.4531710000000  0.4446640000000 1.0
C      1  0.5560280000000  0.4531860000000  0.4933340000000 1.0
C      1  0.5236670000000  0.4532020000000  0.5512350000000 1.0
C      1  0.5629540000000  0.4851080000000  0.5284640000000 1.0
C      1  0.4923870000000  0.4851180000000  0.5686710000000 1.0
C      1  0.4323410000000  0.4851010000000  0.5139830000000 1.0
C      1  0.4657980000000  0.4850800000000  0.4399770000000 1.0
C      1  0.5465210000000  0.4850840000000  0.4489260000000 1.0
C      1  0.5629530000000  0.5148480000000  0.5284550000000 1.0
C      1  0.4923870000000  0.5148590000000  0.5686630000000 1.0
C      1  0.4323410000000  0.5148420000000  0.5139750000000 1.0
C      1  0.4657970000000  0.5148210000000  0.4399680000000 1.0
C      1  0.5465200000000  0.5148250000000  0.4489180000000 1.0
C      1  0.5760210000000  0.4667550000000  0.5103040000000 1.0
C      1  0.5137020000000  0.4667730000000  0.5754900000000 1.0
C      1  0.4324480000000  0.4667600000000  0.5363650000000 1.0
C      1  0.4445500000000  0.4667340000000  0.4469980000000 1.0
C      1  0.5332820000000  0.4667310000000  0.4308910000000 1.0
C      1  0.5760200000000  0.5331910000000  0.5102840000000 1.0
C      1  0.5137010000000  0.5332090000000  0.5754710000000 1.0
C      1  0.4324470000000  0.5331960000000  0.5363460000000 1.0
C      1  0.4445480000000  0.5331700000000  0.4469790000000 1.0
C      1  0.5332810000000  0.5331670000000  0.4308720000000 1.0
C      1  0.4933050000000  0.5226260000000  0.4450520000000 1.0
C      1  0.5501830000000  0.5226370000000  0.4766490000000 1.0
C      1  0.5377090000000  0.5226550000000  0.5405070000000 1.0
C      1  0.4731220000000  0.5226560000000  0.5483770000000 1.0
C      1  0.4456790000000  0.5226390000000  0.4893830000000 1.0
C      1  0.4933060000000  0.4772790000000  0.4450660000000 1.0
C      1  0.5501840000000  0.4772890000000  0.4766620000000 1.0
C      1  0.5377100000000  0.4773070000000  0.5405200000000 1.0
C      1  0.4731230000000  0.4773080000000  0.5483900000000 1.0
C      1  0.4456800000000  0.4772910000000  0.4893960000000 1.0
C      1  0.5322370000000  0.4867610000000  0.5865560000000 1.0
C      1  0.4276460000000  0.4867510000000  0.5574090000000 1.0
C      1  0.4230460000000  0.4867190000000  0.4489300000000 1.0
C      1  0.5247950000000  0.4867100000000  0.4110340000000 1.0
C      1  0.5922780000000  0.4867360000000  0.4960910000000 1.0
C      1  0.5322360000000  0.5132280000000  0.5865480000000 1.0
C      1  0.4276450000000  0.5132170000000  0.5574010000000 1.0
C      1  0.4230460000000  0.5131860000000  0.4489220000000 1.0
C      1  0.5247940000000  0.5131760000000  0.4110260000000 1.0
C      1  0.5922770000000  0.5132030000000  0.4960840000000 1.0
C      1  0.5301430000000  0.5625030000000  0.4981830000000 1.0
C      1  0.5110250000000  0.5625120000000  0.5280950000000 1.0
C      1  0.4766690000000  0.5625090000000  0.5191550000000 1.0
C      1  0.4745540000000  0.5624980000000  0.4837180000000 1.0
C      1  0.5076030000000  0.5624950000000  0.4707570000000 1.0
C      1  0.5301460000000  0.4374340000000  0.4982200000000 1.0
C      1  0.5110270000000  0.4374420000000  0.5281320000000 1.0
C      1  0.4766710000000  0.4374390000000  0.5191920000000 1.0
C      1  0.4745560000000  0.4374290000000  0.4837550000000 1.0
C      1  0.5076060000000  0.4374260000000  0.4707930000000 1.0
C      1  0.4752720000000  0.4852120000000  0.4940590000000 1.0
C      1  0.4980130000000  0.4852060000000  0.4746490000000 1.0
C      1  0.5235010000000  0.4852110000000  0.4902790000000 1.0
C      1  0.5165110000000  0.4852200000000  0.5193490000000 1.0
C      1  0.4867040000000  0.4852200000000  0.5216850000000 1.0
C      1  0.4752710000000  0.5147210000000  0.4940500000000 1.0
C      1  0.4980130000000  0.5147160000000  0.4746400000000 1.0
C      1  0.5235000000000  0.5147210000000  0.4902710000000 1.0
C      1  0.5165110000000  0.5147300000000  0.5193410000000 1.0
C      1  0.4867040000000  0.5147300000000  0.5216760000000 1.0
C      1  0.5405690000000  0.4999870000000  0.5614550000000 1.0
C      1  0.4310570000000  0.4999600000000  0.4741280000000 1.0
C      1  0.5033010000000  0.4999470000000  0.4264360000000 1.0
C      1  0.5709840000000  0.4999640000000  0.4804070000000 1.0
C      1  0.4540900000000  0.4999850000000  0.5575740000000 1.0
END
