TITL C-69491-8851-3 -0.0190471714927384 125000 -541.197692642229 0 0 79 (C1) n - 1
REM
REM in /rds/project/t2_vol4/rds-t2-cs072/BORA/CARBON/from-Arr/AIRSS/Generating-Clusters/GAP-ML-2020/Higher-Symm/SD-CG/HFTN-CG
REM
REM
REM
REM
REM
REM ./C.cell (b20cbc046b6831c77cfcea5457e17084)
REM AIRSS Version 0.9.1 bugfix July 2018 build 013d7b7c2542+ Fri, 06 Jul 2018 19:26:36 +0100
REM compiler GCC version 9.3.0
REM options -cpp -mtune=generic -march=x86-64 -g -O0
REM seed -880643589 138048294 -1274498670 443362576 -734778661 -539925226 -1658277395 976255780 -561507902 -1321119271 -212133195 1782205203 486509486 1341671057 -2007077822 1026083806 -103647171 1171710976 1193473658 301249120 -1180022183 -112080710 1582091930 1713611379 254283284 1186516048 -211742947 1490443717 -236874187 -1639698277 935892780 1318871861 802721970
REM
CELL 1.54180   50.00000   50.00000   50.00000   90.00000   90.00000   90.00000
LATT -1
SFAC C  
C      1  0.5203430000000  0.5100510000000  0.4401010000000 1.0
C      1  0.5478530000000  0.5038620000000  0.4518640000000 1.0
C      1  0.4803680000000  0.4335270000000  0.5450460000000 1.0
C      1  0.4950370000000  0.4311150000000  0.5185090000000 1.0
C      1  0.5227280000000  0.4653700000000  0.4458600000000 1.0
C      1  0.5511870000000  0.5302690000000  0.5479000000000 1.0
C      1  0.5166230000000  0.4646460000000  0.5636820000000 1.0
C      1  0.5070980000000  0.4852680000000  0.4309440000000 1.0
C      1  0.5508560000000  0.4594020000000  0.4834020000000 1.0
C      1  0.4777010000000  0.4888190000000  0.4301630000000 1.0
C      1  0.4873340000000  0.5612640000000  0.4411040000000 1.0
C      1  0.5254610000000  0.5650930000000  0.5303100000000 1.0
C      1  0.4406820000000  0.5170950000000  0.5421700000000 1.0
C      1  0.5754060000000  0.5235900000000  0.4935620000000 1.0
C      1  0.5166370000000  0.5595710000000  0.4388340000000 1.0
C      1  0.4821170000000  0.5582070000000  0.5130890000000 1.0
C      1  0.4898600000000  0.5244360000000  0.5120090000000 1.0
C      1  0.4867010000000  0.5472410000000  0.5583560000000 1.0
C      1  0.4259120000000  0.5033380000000  0.5202630000000 1.0
C      1  0.4505060000000  0.5226540000000  0.4525320000000 1.0
C      1  0.4744580000000  0.4838900000000  0.4986150000000 1.0
C      1  0.5296630000000  0.5054030000000  0.5282490000000 1.0
C      1  0.4762720000000  0.4344180000000  0.4952170000000 1.0
C      1  0.4645870000000  0.5562370000000  0.4884070000000 1.0
C      1  0.5151350000000  0.5128300000000  0.5740370000000 1.0
C      1  0.5477090000000  0.4756030000000  0.4569030000000 1.0
C      1  0.4316240000000  0.5196420000000  0.4963570000000 1.0
C      1  0.4820450000000  0.5697570000000  0.4681180000000 1.0
C      1  0.4877060000000  0.5177140000000  0.5620610000000 1.0
C      1  0.4616960000000  0.5036860000000  0.5567910000000 1.0
C      1  0.4686370000000  0.5566160000000  0.5389380000000 1.0
C      1  0.5542560000000  0.4496380000000  0.5310840000000 1.0
C      1  0.4477990000000  0.4597730000000  0.5307360000000 1.0
C      1  0.5103740000000  0.4571830000000  0.5195300000000 1.0
C      1  0.5381020000000  0.4335400000000  0.4773660000000 1.0
C      1  0.4840630000000  0.5371380000000  0.4250030000000 1.0
C      1  0.5297880000000  0.4892250000000  0.5678080000000 1.0
C      1  0.5299150000000  0.4529000000000  0.5416640000000 1.0
C      1  0.4315500000000  0.5088120000000  0.4680990000000 1.0
C      1  0.5079530000000  0.4668540000000  0.4715850000000 1.0
C      1  0.4863540000000  0.4336750000000  0.4679070000000 1.0
C      1  0.5520160000000  0.4997810000000  0.5456250000000 1.0
C      1  0.5154080000000  0.4080640000000  0.5132590000000 1.0
C      1  0.5283180000000  0.4986070000000  0.5012110000000 1.0
C      1  0.4967210000000  0.5125950000000  0.4666600000000 1.0
C      1  0.5667750000000  0.4628560000000  0.5107770000000 1.0
C      1  0.5301070000000  0.5354590000000  0.5658650000000 1.0
C      1  0.5346630000000  0.4158200000000  0.4978150000000 1.0
C      1  0.5728590000000  0.4874030000000  0.5251430000000 1.0
C      1  0.4681390000000  0.4445330000000  0.4502770000000 1.0
C      1  0.4853700000000  0.4842380000000  0.4717100000000 1.0
C      1  0.4261420000000  0.4756900000000  0.5163770000000 1.0
C      1  0.4525100000000  0.4346170000000  0.5426340000000 1.0
C      1  0.4366480000000  0.4812990000000  0.4661250000000 1.0
C      1  0.4903830000000  0.4805580000000  0.5245350000000 1.0
C      1  0.5085190000000  0.5747750000000  0.4810010000000 1.0
C      1  0.4653290000000  0.5125090000000  0.4990590000000 1.0
C      1  0.5520050000000  0.5516100000000  0.4731540000000 1.0
C      1  0.5622140000000  0.5248550000000  0.4662010000000 1.0
C      1  0.5619950000000  0.5487050000000  0.5007000000000 1.0
C      1  0.4698630000000  0.5293620000000  0.4729260000000 1.0
C      1  0.4396680000000  0.5463930000000  0.5030580000000 1.0
C      1  0.5300460000000  0.5669080000000  0.4628520000000 1.0
C      1  0.5506730000000  0.5511700000000  0.5269580000000 1.0
C      1  0.4878360000000  0.4578170000000  0.5599330000000 1.0
C      1  0.5073760000000  0.5725420000000  0.5093690000000 1.0
C      1  0.4683960000000  0.4765160000000  0.5466390000000 1.0
C      1  0.5098660000000  0.5178230000000  0.4906720000000 1.0
C      1  0.4669470000000  0.5152910000000  0.4295340000000 1.0
C      1  0.4587180000000  0.4568320000000  0.5010190000000 1.0
C      1  0.5865200000000  0.5071180000000  0.5119630000000 1.0
C      1  0.5144800000000  0.4397800000000  0.4608540000000 1.0
C      1  0.4448300000000  0.5438570000000  0.5317900000000 1.0
C      1  0.4632420000000  0.4724220000000  0.4511890000000 1.0
C      1  0.5136220000000  0.5554860000000  0.5550460000000 1.0
C      1  0.5012000000000  0.5078180000000  0.5335500000000 1.0
C      1  0.5131840000000  0.5339820000000  0.4253060000000 1.0
C      1  0.4332890000000  0.4662450000000  0.4897260000000 1.0
C      1  0.5240250000000  0.4693100000000  0.4953110000000 1.0
END
