TITL C-69774-1634-3 -0.186227547960456 125000 -431.800086478285 0 0 64 (C1) n - 1
REM
REM in /rds/project/t2_vol4/rds-t2-cs072/BORA/CARBON/from-Arr/AIRSS/Generating-Clusters/GAP-ML-2020/Higher-Symm/SD-CG/HFTN-CG
REM
REM
REM
REM
REM
REM ./C.cell (b20cbc046b6831c77cfcea5457e17084)
REM AIRSS Version 0.9.1 bugfix July 2018 build 013d7b7c2542+ Fri, 06 Jul 2018 19:26:36 +0100
REM compiler GCC version 9.3.0
REM options -cpp -mtune=generic -march=x86-64 -g -O0
REM seed -1282277773 99947452 -1754832495 229295000 -1116830391 -1800339671 -1003355644 -381694474 -2041885084 -2120959292 -1840844735 -1775507341 -1495393542 -1156687858 1021233229 1980054593 -302908586 -267669459 1237164522 -758111976 845509565 -414253524 -1308040007 -89558539 1081242335 -1591717142 -868858897 -2131292991 -619043003 -2065104676 -1630806540 202196886 1179824005
REM
CELL 1.54180   50.00000   50.00000   50.00000   90.00000   90.00000   90.00000
LATT -1
SFAC C  
C      1  0.4573090000000  0.5558960000000  0.4987520000000 1.0
C      1  0.4722860000000  0.5532880000000  0.4743200000000 1.0
C      1  0.5012740000000  0.5532150000000  0.4690520000000 1.0
C      1  0.5262620000000  0.5540370000000  0.4845010000000 1.0
C      1  0.5274970000000  0.5537440000000  0.5137310000000 1.0
C      1  0.5088570000000  0.5532150000000  0.5365860000000 1.0
C      1  0.4802240000000  0.5567640000000  0.5378280000000 1.0
C      1  0.5504500000000  0.4927850000000  0.5391130000000 1.0
C      1  0.5018070000000  0.4952080000000  0.5628030000000 1.0
C      1  0.4509210000000  0.4898190000000  0.5385070000000 1.0
C      1  0.4387980000000  0.4951860000000  0.4858090000000 1.0
C      1  0.4737190000000  0.4918760000000  0.4404130000000 1.0
C      1  0.5280290000000  0.4973980000000  0.4433280000000 1.0
C      1  0.5616350000000  0.4975430000000  0.4857300000000 1.0
C      1  0.4765840000000  0.4931570000000  0.5169110000000 1.0
C      1  0.4714140000000  0.4949450000000  0.4906410000000 1.0
C      1  0.4889720000000  0.4932580000000  0.4704910000000 1.0
C      1  0.5157210000000  0.4955530000000  0.4719630000000 1.0
C      1  0.5313700000000  0.4952590000000  0.4938520000000 1.0
C      1  0.5244270000000  0.4935700000000  0.5197260000000 1.0
C      1  0.4998510000000  0.4945790000000  0.5302350000000 1.0
C      1  0.5428110000000  0.4929490000000  0.5661870000000 1.0
C      1  0.4744080000000  0.4944390000000  0.5712420000000 1.0
C      1  0.4266330000000  0.4899890000000  0.5247370000000 1.0
C      1  0.4364550000000  0.4950730000000  0.4573600000000 1.0
C      1  0.4938530000000  0.4946280000000  0.4210860000000 1.0
C      1  0.5562910000000  0.4993420000000  0.4456170000000 1.0
C      1  0.5768920000000  0.4984930000000  0.5092990000000 1.0
C      1  0.4967660000000  0.5380920000000  0.4439110000000 1.0
C      1  0.5480820000000  0.5428930000000  0.4709480000000 1.0
C      1  0.5479170000000  0.5390230000000  0.5298340000000 1.0
C      1  0.5285110000000  0.5377120000000  0.5524500000000 1.0
C      1  0.4576860000000  0.5363260000000  0.5417920000000 1.0
C      1  0.4429500000000  0.5358770000000  0.5166860000000 1.0
C      1  0.4677500000000  0.5375040000000  0.4495210000000 1.0
C      1  0.4570720000000  0.5125720000000  0.5567540000000 1.0
C      1  0.4285100000000  0.5131210000000  0.5080430000000 1.0
C      1  0.4539330000000  0.5139940000000  0.4439060000000 1.0
C      1  0.5091880000000  0.5171060000000  0.4302500000000 1.0
C      1  0.5602450000000  0.5203680000000  0.4652170000000 1.0
C      1  0.5642970000000  0.5168490000000  0.5275220000000 1.0
C      1  0.5245270000000  0.5148300000000  0.5682030000000 1.0
C      1  0.5608430000000  0.4510740000000  0.5135810000000 1.0
C      1  0.5246010000000  0.4499700000000  0.5529390000000 1.0
C      1  0.4758800000000  0.4482510000000  0.5504460000000 1.0
C      1  0.4455170000000  0.4486890000000  0.5058360000000 1.0
C      1  0.4578870000000  0.4494510000000  0.4615430000000 1.0
C      1  0.5067290000000  0.4510170000000  0.4388330000000 1.0
C      1  0.5512690000000  0.4535640000000  0.4644560000000 1.0
C      1  0.4636280000000  0.4699860000000  0.5578080000000 1.0
C      1  0.4316430000000  0.4705630000000  0.5030050000000 1.0
C      1  0.4523730000000  0.4713010000000  0.4482890000000 1.0
C      1  0.5135140000000  0.4742320000000  0.4288110000000 1.0
C      1  0.5627750000000  0.4770730000000  0.4635630000000 1.0
C      1  0.5685770000000  0.4738570000000  0.5236420000000 1.0
C      1  0.5219230000000  0.4719820000000  0.5667990000000 1.0
C      1  0.4707020000000  0.4365940000000  0.5036580000000 1.0
C      1  0.4788150000000  0.4370880000000  0.4754340000000 1.0
C      1  0.5057640000000  0.4381240000000  0.4637550000000 1.0
C      1  0.5314710000000  0.4394460000000  0.4782530000000 1.0
C      1  0.5364950000000  0.4384090000000  0.5073060000000 1.0
C      1  0.5167770000000  0.4375670000000  0.5292160000000 1.0
C      1  0.4873580000000  0.4365570000000  0.5277220000000 1.0
C      1  0.4710430000000  0.5737940000000  0.5167020000000 1.0
END
