TITL C-69773-3920-8 33.5001837967161 125000 -610.042966564922 0 0 89 (C3) n - 1
REM
REM in /rds/project/t2_vol4/rds-t2-cs072/BORA/CARBON/from-Arr/AIRSS/Generating-Clusters/GAP-ML-2020/Higher-Symm/SD-CG/HFTN-CG
REM
REM
REM
REM
REM
REM ./C.cell (b20cbc046b6831c77cfcea5457e17084)
REM AIRSS Version 0.9.1 bugfix July 2018 build 013d7b7c2542+ Fri, 06 Jul 2018 19:26:36 +0100
REM compiler GCC version 9.3.0
REM options -cpp -mtune=generic -march=x86-64 -g -O0
REM seed 797333554 -864967151 -1520572920 -551960786 -712660564 225776505 437592065 695451950 -1767880889 -2022388230 -1867281911 1046415245 -22753835 -1810331209 334067187 1045482013 -1100201632 1277668006 -831280951 988287291 1157406234 -1354122607 -1163015951 1030496841 -325812036 713425007 111155835 -1098144435 -245961015 -942783639 1884726193 -1449650738 694041207
REM
CELL 1.54180   50.00000   50.00000   50.00000   90.00000   90.00000   90.00000
LATT -1
SFAC C  
C      1  0.5150090000000  0.5471490000000  0.5629560000000 1.0
C      1  0.5149880000000  0.5309130000000  0.4282180000000 1.0
C      1  0.5149980000000  0.4223450000000  0.5096480000000 1.0
C      1  0.5972260000000  0.5113020000000  0.4751420000000 1.0
C      1  0.5972290000000  0.4727950000000  0.5031490000000 1.0
C      1  0.5972340000000  0.5163040000000  0.5224940000000 1.0
C      1  0.4567120000000  0.4379020000000  0.4693170000000 1.0
C      1  0.4567290000000  0.5044380000000  0.5696640000000 1.0
C      1  0.4567140000000  0.5580730000000  0.4618680000000 1.0
C      1  0.4295310000000  0.5253220000000  0.4837050000000 1.0
C      1  0.4295300000000  0.4731860000000  0.4867680000000 1.0
C      1  0.4295370000000  0.5019070000000  0.5303880000000 1.0
C      1  0.5031600000000  0.5039310000000  0.4702200000000 1.0
C      1  0.5031650000000  0.4722100000000  0.5120180000000 1.0
C      1  0.5031680000000  0.5242680000000  0.5185910000000 1.0
C      1  0.4576930000000  0.4545680000000  0.5208440000000 1.0
C      1  0.4576970000000  0.5407290000000  0.5294660000000 1.0
C      1  0.4576840000000  0.5051150000000  0.4505370000000 1.0
C      1  0.5010640000000  0.5523630000000  0.4414040000000 1.0
C      1  0.5010670000000  0.4230380000000  0.4844820000000 1.0
C      1  0.5010830000000  0.5250070000000  0.5749420000000 1.0
C      1  0.4773390000000  0.4726430000000  0.5052120000000 1.0
C      1  0.4773430000000  0.5181560000000  0.5216240000000 1.0
C      1  0.4773350000000  0.5096120000000  0.4740020000000 1.0
C      1  0.5025310000000  0.5774910000000  0.4861710000000 1.0
C      1  0.5025200000000  0.4492430000000  0.4403370000000 1.0
C      1  0.5025410000000  0.4736740000000  0.5743200000000 1.0
C      1  0.5226160000000  0.4676830000000  0.4290170000000 1.0
C      1  0.5226360000000  0.4546530000000  0.5640060000000 1.0
C      1  0.5226310000000  0.5780710000000  0.5077960000000 1.0
C      1  0.4991710000000  0.4183180000000  0.5337990000000 1.0
C      1  0.4991780000000  0.5700770000000  0.5543710000000 1.0
C      1  0.4991550000000  0.5120130000000  0.4126590000000 1.0
C      1  0.4280690000000  0.4272030000000  0.5115880000000 1.0
C      1  0.4280790000000  0.5463920000000  0.5578010000000 1.0
C      1  0.4280590000000  0.5268200000000  0.4314730000000 1.0
C      1  0.4734050000000  0.4081620000000  0.5306490000000 1.0
C      1  0.4734150000000  0.5724240000000  0.5647480000000 1.0
C      1  0.4733900000000  0.5198250000000  0.4054440000000 1.0
C      1  0.5277350000000  0.5003540000000  0.4822150000000 1.0
C      1  0.5277390000000  0.4843880000000  0.5091120000000 1.0
C      1  0.5277400000000  0.5156650000000  0.5094900000000 1.0
C      1  0.5020420000000  0.4369340000000  0.5550490000000 1.0
C      1  0.5020420000000  0.5791720000000  0.5276240000000 1.0
C      1  0.5020230000000  0.4843020000000  0.4181550000000 1.0
C      1  0.4577100000000  0.4770510000000  0.4429170000000 1.0
C      1  0.4577260000000  0.4620000000000  0.5489590000000 1.0
C      1  0.4577230000000  0.5613610000000  0.5089720000000 1.0
C      1  0.6055820000000  0.4891850000000  0.5246330000000 1.0
C      1  0.6055790000000  0.5267150000000  0.4975550000000 1.0
C      1  0.6055750000000  0.4845000000000  0.4785930000000 1.0
C      1  0.5728760000000  0.5153160000000  0.4617980000000 1.0
C      1  0.5728810000000  0.4592290000000  0.5063510000000 1.0
C      1  0.5728870000000  0.5258570000000  0.5326470000000 1.0
C      1  0.5558790000000  0.4421390000000  0.4893820000000 1.0
C      1  0.5558920000000  0.5197050000000  0.5559360000000 1.0
C      1  0.5558770000000  0.5385600000000  0.4554850000000 1.0
C      1  0.4451760000000  0.4617250000000  0.4639910000000 1.0
C      1  0.4451900000000  0.4879130000000  0.5516980000000 1.0
C      1  0.4451820000000  0.5507760000000  0.4851650000000 1.0
C      1  0.4813040000000  0.4563580000000  0.5637460000000 1.0
C      1  0.4812990000000  0.5769900000000  0.5064600000000 1.0
C      1  0.4812840000000  0.4670630000000  0.4306320000000 1.0
C      1  0.4721000000000  0.5256920000000  0.5743020000000 1.0
C      1  0.4720810000000  0.5514640000000  0.4411380000000 1.0
C      1  0.4720840000000  0.4232540000000  0.4854010000000 1.0
C      1  0.4579460000000  0.5289600000000  0.4267380000000 1.0
C      1  0.4579560000000  0.4220340000000  0.5120950000000 1.0
C      1  0.4579670000000  0.5494180000000  0.5620160000000 1.0
C      1  0.5495880000000  0.4973150000000  0.4576370000000 1.0
C      1  0.5495970000000  0.4646240000000  0.5240270000000 1.0
C      1  0.5495980000000  0.5384650000000  0.5191430000000 1.0
C      1  0.5415420000000  0.5571320000000  0.4716400000000 1.0
C      1  0.5415380000000  0.4468420000000  0.4652240000000 1.0
C      1  0.5415540000000  0.4964310000000  0.5639460000000 1.0
C      1  0.5385530000000  0.5221660000000  0.4395420000000 1.0
C      1  0.5385610000000  0.4365270000000  0.5115560000000 1.0
C      1  0.5385700000000  0.5417120000000  0.5497140000000 1.0
C      1  0.4304960000000  0.5167420000000  0.4565070000000 1.0
C      1  0.4305020000000  0.4539220000000  0.5077970000000 1.0
C      1  0.4305090000000  0.5297510000000  0.5365560000000 1.0
C      1  0.5450320000000  0.5619650000000  0.5004480000000 1.0
C      1  0.5450210000000  0.4693740000000  0.4466340000000 1.0
C      1  0.5450370000000  0.4690660000000  0.5537270000000 1.0
C      1  0.5145980000000  0.5640750000000  0.4635430000000 1.0
C      1  0.5145940000000  0.4363560000000  0.4632660000000 1.0
C      1  0.5146130000000  0.4999760000000  0.5740130000000 1.0
C      1  0.4347280000000  0.5001380000000  0.5002860000000 1.0
C      1  0.4673010000000  0.5001370000000  0.5002810000000 1.0
END
