TITL C-69472-80-3 738.096696270371 125000 -752.908992985832 0 0 109 (C1) n - 1
REM
REM in /rds/project/t2_vol4/rds-t2-cs072/BORA/CARBON/from-Arr/AIRSS/Generating-Clusters/GAP-ML-2020/Higher-Symm/SD-CG/HFTN-CG
REM
REM
REM
REM
REM
REM ./C.cell (b20cbc046b6831c77cfcea5457e17084)
REM AIRSS Version 0.9.1 bugfix July 2018 build 013d7b7c2542+ Fri, 06 Jul 2018 19:26:36 +0100
REM compiler GCC version 9.3.0
REM options -cpp -mtune=generic -march=x86-64 -g -O0
REM seed 1967163326 607338833 -921683838 -1352675973 -172474135 -1579896999 -1114524028 640651200 871117615 -689614937 -1032158694 -1130160148 1997004065 -348152996 1600664580 -1508869817 1383367519 -974791021 -1464256992 -292188569 1212572155 1292817164 -785502521 454723742 1450561118 -823137772 1087154722 -882916240 -855680686 1857783451 -1991340258 422352460 -1817270740
REM
CELL 1.54180   50.00000   50.00000   50.00000   90.00000   90.00000   90.00000
LATT -1
SFAC C  
C      1  0.5162990000000  0.5192780000000  0.5804100000000 1.0
C      1  0.4873320000000  0.5190640000000  0.5815750000000 1.0
C      1  0.5153460000000  0.4026370000000  0.5390160000000 1.0
C      1  0.4866830000000  0.4027270000000  0.5393610000000 1.0
C      1  0.4877960000000  0.4505020000000  0.5494490000000 1.0
C      1  0.5193360000000  0.4499850000000  0.5518210000000 1.0
C      1  0.4716150000000  0.5457150000000  0.5438280000000 1.0
C      1  0.5294260000000  0.5536240000000  0.5435780000000 1.0
C      1  0.5578710000000  0.5249160000000  0.4329710000000 1.0
C      1  0.4394300000000  0.5237290000000  0.4347680000000 1.0
C      1  0.5616190000000  0.4678360000000  0.4774780000000 1.0
C      1  0.4338760000000  0.4648110000000  0.4778850000000 1.0
C      1  0.5915390000000  0.5052800000000  0.5321410000000 1.0
C      1  0.4069270000000  0.5022600000000  0.5343820000000 1.0
C      1  0.4501190000000  0.4778410000000  0.4344650000000 1.0
C      1  0.5476300000000  0.4789360000000  0.4332510000000 1.0
C      1  0.5349680000000  0.4193360000000  0.4956060000000 1.0
C      1  0.4647950000000  0.4176660000000  0.4956160000000 1.0
C      1  0.5729910000000  0.5469950000000  0.5214610000000 1.0
C      1  0.4283400000000  0.5438040000000  0.5234840000000 1.0
C      1  0.5161180000000  0.5468970000000  0.5669710000000 1.0
C      1  0.4865170000000  0.5457780000000  0.5673120000000 1.0
C      1  0.5276860000000  0.4373270000000  0.4738630000000 1.0
C      1  0.4703740000000  0.4358150000000  0.4731670000000 1.0
C      1  0.5146070000000  0.4050260000000  0.5092700000000 1.0
C      1  0.4854770000000  0.4046130000000  0.5099200000000 1.0
C      1  0.5597110000000  0.4906350000000  0.5692860000000 1.0
C      1  0.4436920000000  0.4891740000000  0.5707340000000 1.0
C      1  0.4853400000000  0.4708680000000  0.4100720000000 1.0
C      1  0.5123370000000  0.4709880000000  0.4093380000000 1.0
C      1  0.5701660000000  0.4640270000000  0.5703540000000 1.0
C      1  0.4348940000000  0.4630370000000  0.5678480000000 1.0
C      1  0.5313800000000  0.4212730000000  0.5529940000000 1.0
C      1  0.4730830000000  0.4224180000000  0.5541360000000 1.0
C      1  0.4629400000000  0.4624280000000  0.4794740000000 1.0
C      1  0.5328190000000  0.4643690000000  0.4796450000000 1.0
C      1  0.4901850000000  0.4791600000000  0.5613190000000 1.0
C      1  0.5162190000000  0.4728980000000  0.5719460000000 1.0
C      1  0.4836840000000  0.5018690000000  0.4122970000000 1.0
C      1  0.5134500000000  0.5022700000000  0.4115400000000 1.0
C      1  0.4474410000000  0.5765030000000  0.4822130000000 1.0
C      1  0.5517630000000  0.5788500000000  0.4794310000000 1.0
C      1  0.5344220000000  0.5899040000000  0.4598630000000 1.0
C      1  0.4632870000000  0.5885150000000  0.4620210000000 1.0
C      1  0.4238700000000  0.4453910000000  0.5190970000000 1.0
C      1  0.5616190000000  0.4554960000000  0.5213560000000 1.0
C      1  0.5146000000000  0.4883690000000  0.4867600000000 1.0
C      1  0.4825750000000  0.4868500000000  0.4849840000000 1.0
C      1  0.5139280000000  0.4409510000000  0.4487040000000 1.0
C      1  0.4847320000000  0.4396880000000  0.4481970000000 1.0
C      1  0.4312000000000  0.4808930000000  0.4549760000000 1.0
C      1  0.5660390000000  0.4826800000000  0.4539700000000 1.0
C      1  0.5220560000000  0.4892660000000  0.5189730000000 1.0
C      1  0.4735100000000  0.4823450000000  0.5142390000000 1.0
C      1  0.5867050000000  0.5130840000000  0.4856270000000 1.0
C      1  0.4121040000000  0.5098840000000  0.4888650000000 1.0
C      1  0.4720470000000  0.4952420000000  0.5774630000000 1.0
C      1  0.5320500000000  0.4948620000000  0.5779430000000 1.0
C      1  0.5564260000000  0.4266580000000  0.5141090000000 1.0
C      1  0.4424920000000  0.4231880000000  0.5144790000000 1.0
C      1  0.4428970000000  0.5518110000000  0.4412980000000 1.0
C      1  0.5546730000000  0.5532560000000  0.4387320000000 1.0
C      1  0.4591740000000  0.5786750000000  0.5095050000000 1.0
C      1  0.5419010000000  0.5818840000000  0.5071310000000 1.0
C      1  0.5126980000000  0.5353910000000  0.4967860000000 1.0
C      1  0.4856650000000  0.5309550000000  0.4990620000000 1.0
C      1  0.5397590000000  0.5052880000000  0.4226950000000 1.0
C      1  0.4576040000000  0.5042830000000  0.4242520000000 1.0
C      1  0.4471850000000  0.4224340000000  0.5433570000000 1.0
C      1  0.5577140000000  0.4217800000000  0.5427570000000 1.0
C      1  0.5610670000000  0.5554760000000  0.4666620000000 1.0
C      1  0.4371080000000  0.5536620000000  0.4693170000000 1.0
C      1  0.5346960000000  0.5737640000000  0.4351850000000 1.0
C      1  0.4627060000000  0.5723530000000  0.4374150000000 1.0
C      1  0.5447040000000  0.5109970000000  0.5233430000000 1.0
C      1  0.4523150000000  0.5049210000000  0.5224220000000 1.0
C      1  0.5702250000000  0.4469120000000  0.5499050000000 1.0
C      1  0.4295080000000  0.4451330000000  0.5483940000000 1.0
C      1  0.5641180000000  0.5247260000000  0.5017800000000 1.0
C      1  0.4349140000000  0.5218160000000  0.5033490000000 1.0
C      1  0.4167790000000  0.4656560000000  0.5010150000000 1.0
C      1  0.5758270000000  0.4707850000000  0.5013270000000 1.0
C      1  0.5504950000000  0.5646660000000  0.5276810000000 1.0
C      1  0.4511560000000  0.5605740000000  0.5297060000000 1.0
C      1  0.4752220000000  0.5149100000000  0.4779610000000 1.0
C      1  0.5227320000000  0.5166570000000  0.4776050000000 1.0
C      1  0.5716650000000  0.5105530000000  0.4581300000000 1.0
C      1  0.4261070000000  0.5086940000000  0.4601100000000 1.0
C      1  0.4472340000000  0.5259890000000  0.4770580000000 1.0
C      1  0.5509610000000  0.5278160000000  0.4756600000000 1.0
C      1  0.4139880000000  0.5275080000000  0.5413590000000 1.0
C      1  0.5870860000000  0.5312050000000  0.5395710000000 1.0
C      1  0.5656500000000  0.5068800000000  0.5455850000000 1.0
C      1  0.4339740000000  0.5024290000000  0.5459880000000 1.0
C      1  0.4859000000000  0.5714060000000  0.4230610000000 1.0
C      1  0.5109100000000  0.5721800000000  0.4218600000000 1.0
C      1  0.5150130000000  0.5924050000000  0.5043870000000 1.0
C      1  0.4848110000000  0.5917360000000  0.5052960000000 1.0
C      1  0.5130810000000  0.5997880000000  0.4751210000000 1.0
C      1  0.4849090000000  0.5993040000000  0.4760010000000 1.0
C      1  0.4762150000000  0.4564410000000  0.5242600000000 1.0
C      1  0.5310290000000  0.4625410000000  0.5273750000000 1.0
C      1  0.5258940000000  0.5340830000000  0.5233410000000 1.0
C      1  0.4774570000000  0.5217840000000  0.5267440000000 1.0
C      1  0.4047300000000  0.4908480000000  0.5075170000000 1.0
C      1  0.5913960000000  0.4945710000000  0.5052860000000 1.0
C      1  0.4702740000000  0.4576730000000  0.4296970000000 1.0
C      1  0.5278210000000  0.4583370000000  0.4291490000000 1.0
C      1  0.4953340000000  0.4957370000000  0.5329020000000 1.0
END
