TITL C-69764-1634-2 -0.0727599276070204 125000 -886.145668193921 0 0 127 (C1) n - 1
REM
REM in /rds/project/t2_vol4/rds-t2-cs072/BORA/CARBON/from-Arr/AIRSS/Generating-Clusters/GAP-ML-2020/Higher-Symm/SD-CG/HFTN-CG
REM
REM
REM
REM
REM
REM ./C.cell (b20cbc046b6831c77cfcea5457e17084)
REM AIRSS Version 0.9.1 bugfix July 2018 build 013d7b7c2542+ Fri, 06 Jul 2018 19:26:36 +0100
REM compiler GCC version 9.3.0
REM options -cpp -mtune=generic -march=x86-64 -g -O0
REM seed 286278231 -399597672 1671110654 232769541 -1015292617 541175414 -781656596 956546913 1184610487 1049709081 2104333660 1778158555 1052110666 -462206299 -1888032059 -2025979294 2016297052 290579617 -2035892828 -113357386 1391756350 391510496 -1734826234 -1245560036 -1915929217 677311272 205773957 1024190303 -1433759719 542108770 -1607881396 999093332 -1121855775
REM
CELL 1.54180   50.00000   50.00000   50.00000   90.00000   90.00000   90.00000
LATT -1
SFAC C  
C      1  0.5749500000000  0.5251170000000  0.5137720000000 1.0
C      1  0.4231570000000  0.5316720000000  0.5083900000000 1.0
C      1  0.5144420000000  0.5843700000000  0.5571060000000 1.0
C      1  0.4849820000000  0.5848320000000  0.5573470000000 1.0
C      1  0.4180150000000  0.4682700000000  0.5181990000000 1.0
C      1  0.5808920000000  0.4742470000000  0.5142500000000 1.0
C      1  0.4754150000000  0.5531910000000  0.5119660000000 1.0
C      1  0.5259750000000  0.5481010000000  0.5109770000000 1.0
C      1  0.4295870000000  0.5651480000000  0.4865280000000 1.0
C      1  0.5732040000000  0.5603450000000  0.4906080000000 1.0
C      1  0.5603250000000  0.5518290000000  0.4477480000000 1.0
C      1  0.4463100000000  0.5523080000000  0.4456340000000 1.0
C      1  0.5399850000000  0.4580480000000  0.5800490000000 1.0
C      1  0.4626140000000  0.4563010000000  0.5835210000000 1.0
C      1  0.4301780000000  0.5293230000000  0.4544660000000 1.0
C      1  0.5730530000000  0.5269660000000  0.4569330000000 1.0
C      1  0.5408170000000  0.4734310000000  0.6027320000000 1.0
C      1  0.4610600000000  0.4737420000000  0.6047060000000 1.0
C      1  0.5167960000000  0.5931800000000  0.4881890000000 1.0
C      1  0.4880020000000  0.5938450000000  0.4874850000000 1.0
C      1  0.5300290000000  0.5325310000000  0.4158330000000 1.0
C      1  0.4786770000000  0.5286860000000  0.4177580000000 1.0
C      1  0.5315270000000  0.5845050000000  0.4654840000000 1.0
C      1  0.4745560000000  0.5850290000000  0.4641130000000 1.0
C      1  0.5574800000000  0.5707890000000  0.4686440000000 1.0
C      1  0.4479480000000  0.5724760000000  0.4657570000000 1.0
C      1  0.5399080000000  0.5082140000000  0.4050570000000 1.0
C      1  0.4630650000000  0.5065250000000  0.4087120000000 1.0
C      1  0.5797120000000  0.5330420000000  0.4840780000000 1.0
C      1  0.4212010000000  0.5380950000000  0.4800190000000 1.0
C      1  0.5261710000000  0.4697220000000  0.5375710000000 1.0
C      1  0.4711880000000  0.4672500000000  0.5398910000000 1.0
C      1  0.5181730000000  0.5734730000000  0.4425700000000 1.0
C      1  0.4888780000000  0.5727320000000  0.4424200000000 1.0
C      1  0.5697650000000  0.4540540000000  0.5309850000000 1.0
C      1  0.4296870000000  0.4486180000000  0.5351980000000 1.0
C      1  0.5133530000000  0.5390430000000  0.5882530000000 1.0
C      1  0.4841830000000  0.5396150000000  0.5886910000000 1.0
C      1  0.4869900000000  0.4424740000000  0.5767960000000 1.0
C      1  0.5159760000000  0.4430850000000  0.5753280000000 1.0
C      1  0.5603270000000  0.5675600000000  0.5415540000000 1.0
C      1  0.4394250000000  0.5677680000000  0.5402280000000 1.0
C      1  0.4842010000000  0.5372260000000  0.4906170000000 1.0
C      1  0.5115140000000  0.5394870000000  0.4869010000000 1.0
C      1  0.4336390000000  0.5014810000000  0.4492540000000 1.0
C      1  0.5650320000000  0.5008740000000  0.4483760000000 1.0
C      1  0.5612060000000  0.4317050000000  0.5165010000000 1.0
C      1  0.4392490000000  0.4274300000000  0.5197740000000 1.0
C      1  0.5765420000000  0.4700710000000  0.4854220000000 1.0
C      1  0.4200260000000  0.4653450000000  0.4886410000000 1.0
C      1  0.4756730000000  0.5115630000000  0.4838380000000 1.0
C      1  0.5218930000000  0.5166300000000  0.4746100000000 1.0
C      1  0.4673450000000  0.4233120000000  0.4589000000000 1.0
C      1  0.5311570000000  0.4262910000000  0.4570340000000 1.0
C      1  0.5156550000000  0.4416730000000  0.5458420000000 1.0
C      1  0.4848070000000  0.4404790000000  0.5474160000000 1.0
C      1  0.5290730000000  0.5161640000000  0.5415240000000 1.0
C      1  0.4650580000000  0.5159350000000  0.5411410000000 1.0
C      1  0.4838130000000  0.4927640000000  0.5459820000000 1.0
C      1  0.5116110000000  0.4929080000000  0.5468890000000 1.0
C      1  0.5275790000000  0.4740280000000  0.4547810000000 1.0
C      1  0.4687240000000  0.4718450000000  0.4580080000000 1.0
C      1  0.4565570000000  0.4948750000000  0.4974000000000 1.0
C      1  0.5356830000000  0.4988740000000  0.4938010000000 1.0
C      1  0.5125100000000  0.4054590000000  0.4478370000000 1.0
C      1  0.4872440000000  0.4043910000000  0.4486910000000 1.0
C      1  0.5372470000000  0.4658580000000  0.4277000000000 1.0
C      1  0.4605490000000  0.4642160000000  0.4296790000000 1.0
C      1  0.5241610000000  0.4753480000000  0.5085580000000 1.0
C      1  0.4709480000000  0.4720540000000  0.5112530000000 1.0
C      1  0.5140610000000  0.4506030000000  0.4668020000000 1.0
C      1  0.4828370000000  0.4489040000000  0.4685970000000 1.0
C      1  0.5115480000000  0.4951030000000  0.4008410000000 1.0
C      1  0.4823930000000  0.4897920000000  0.3951820000000 1.0
C      1  0.4223830000000  0.4927050000000  0.5321650000000 1.0
C      1  0.5804220000000  0.4991950000000  0.5283630000000 1.0
C      1  0.5509260000000  0.4413920000000  0.4379260000000 1.0
C      1  0.4464050000000  0.4387700000000  0.4398700000000 1.0
C      1  0.4709700000000  0.5526010000000  0.4307450000000 1.0
C      1  0.5375440000000  0.5547860000000  0.4305030000000 1.0
C      1  0.4289420000000  0.4215370000000  0.4930480000000 1.0
C      1  0.5710710000000  0.4262220000000  0.4895260000000 1.0
C      1  0.5132950000000  0.4671870000000  0.4089190000000 1.0
C      1  0.4836610000000  0.4644770000000  0.4084640000000 1.0
C      1  0.5287510000000  0.5806710000000  0.5115000000000 1.0
C      1  0.4752620000000  0.5826010000000  0.5114670000000 1.0
C      1  0.4619800000000  0.4990050000000  0.6076430000000 1.0
C      1  0.5362580000000  0.4983360000000  0.6060410000000 1.0
C      1  0.4154360000000  0.4399010000000  0.4762200000000 1.0
C      1  0.5833320000000  0.4451540000000  0.4724960000000 1.0
C      1  0.4460130000000  0.4650490000000  0.5578130000000 1.0
C      1  0.5536770000000  0.4688880000000  0.5532100000000 1.0
C      1  0.5440400000000  0.5204500000000  0.5144970000000 1.0
C      1  0.4416140000000  0.5104430000000  0.5189060000000 1.0
C      1  0.5537140000000  0.4915510000000  0.4236460000000 1.0
C      1  0.4460080000000  0.4909090000000  0.4256470000000 1.0
C      1  0.5746740000000  0.5553140000000  0.5194350000000 1.0
C      1  0.4268170000000  0.5599440000000  0.5153410000000 1.0
C      1  0.4832760000000  0.4492710000000  0.4987610000000 1.0
C      1  0.5148050000000  0.4508010000000  0.4970020000000 1.0
C      1  0.4546750000000  0.4133320000000  0.4840880000000 1.0
C      1  0.5453910000000  0.4169820000000  0.4816540000000 1.0
C      1  0.5327650000000  0.4242020000000  0.5079960000000 1.0
C      1  0.4676420000000  0.4214800000000  0.5100500000000 1.0
C      1  0.5150400000000  0.4161590000000  0.5289130000000 1.0
C      1  0.4868490000000  0.4149880000000  0.5300940000000 1.0
C      1  0.5345640000000  0.5205090000000  0.5899240000000 1.0
C      1  0.4628930000000  0.5211090000000  0.5912380000000 1.0
C      1  0.5665840000000  0.4957230000000  0.5530100000000 1.0
C      1  0.4316000000000  0.4913490000000  0.5585870000000 1.0
C      1  0.5515860000000  0.5203120000000  0.5636480000000 1.0
C      1  0.4453570000000  0.5200310000000  0.5658300000000 1.0
C      1  0.4843150000000  0.4965900000000  0.4620490000000 1.0
C      1  0.5107600000000  0.5008740000000  0.4525640000000 1.0
C      1  0.4403730000000  0.4827900000000  0.4732070000000 1.0
C      1  0.5540740000000  0.4848290000000  0.4714080000000 1.0
C      1  0.4359050000000  0.5469390000000  0.5578340000000 1.0
C      1  0.5613030000000  0.5471190000000  0.5589930000000 1.0
C      1  0.4819000000000  0.5403650000000  0.5376140000000 1.0
C      1  0.5125220000000  0.5403320000000  0.5383680000000 1.0
C      1  0.5363950000000  0.5863530000000  0.5380840000000 1.0
C      1  0.4643200000000  0.5873890000000  0.5377300000000 1.0
C      1  0.4213110000000  0.4388660000000  0.4484390000000 1.0
C      1  0.5762770000000  0.4443230000000  0.4455380000000 1.0
C      1  0.5147470000000  0.5566690000000  0.5650130000000 1.0
C      1  0.4822530000000  0.5573070000000  0.5657640000000 1.0
C      1  0.5058540000000  0.5168680000000  0.4239670000000 1.0
END
