TITL C-69501-8883-6 -0.158690463386414 125000 -481.320034638284 0 0 71 (C3) n - 1
REM
REM in /rds/project/t2_vol4/rds-t2-cs072/BORA/CARBON/from-Arr/AIRSS/Generating-Clusters/GAP-ML-2020/Higher-Symm/SD-CG/HFTN-CG
REM
REM
REM
REM
REM
REM ./C.cell (b20cbc046b6831c77cfcea5457e17084)
REM AIRSS Version 0.9.1 bugfix July 2018 build 013d7b7c2542+ Fri, 06 Jul 2018 19:26:36 +0100
REM compiler GCC version 9.3.0
REM options -cpp -mtune=generic -march=x86-64 -g -O0
REM seed -2146833128 -1330759922 186121038 94318668 -244115114 -1490542672 -850732730 1936462679 -1836704130 1459887143 -209847594 2090773298 128486376 -1190515216 1306066835 -903269130 -424217931 -193168572 -58678363 -2045744593 -744179186 1349618150 -960012168 -3504624 550885756 -557304760 1868723246 1938745840 -824558299 961715639 1784327538 -541478303 -92968658
REM
CELL 1.54180   50.00000   50.00000   50.00000   90.00000   90.00000   90.00000
LATT -1
SFAC C  
C      1  0.4172340000000  0.5154510000000  0.5064990000000 1.0
C      1  0.5278060000000  0.4225420000000  0.5064880000000 1.0
C      1  0.5529810000000  0.5647550000000  0.5064850000000 1.0
C      1  0.4534790000000  0.4921540000000  0.4455730000000 1.0
C      1  0.5298490000000  0.4655850000000  0.4455650000000 1.0
C      1  0.5146730000000  0.5450080000000  0.4455660000000 1.0
C      1  0.5473380000000  0.5541940000000  0.5305680000000 1.0
C      1  0.4292060000000  0.5158420000000  0.5305810000000 1.0
C      1  0.5214860000000  0.4327120000000  0.5305710000000 1.0
C      1  0.5162290000000  0.4534410000000  0.4684820000000 1.0
C      1  0.5320050000000  0.5392830000000  0.4684800000000 1.0
C      1  0.4497760000000  0.5100240000000  0.4684890000000 1.0
C      1  0.5128490000000  0.4258780000000  0.4824180000000 1.0
C      1  0.5575670000000  0.5501360000000  0.4824130000000 1.0
C      1  0.4275980000000  0.5267330000000  0.4824280000000 1.0
C      1  0.5128310000000  0.4759280000000  0.4238480000000 1.0
C      1  0.5142220000000  0.5251010000000  0.4238470000000 1.0
C      1  0.4709410000000  0.5017190000000  0.4238520000000 1.0
C      1  0.4849440000000  0.5254050000000  0.4237850000000 1.0
C      1  0.4853170000000  0.4762110000000  0.4237850000000 1.0
C      1  0.5277330000000  0.5011310000000  0.4237810000000 1.0
C      1  0.4682110000000  0.4663240000000  0.4457210000000 1.0
C      1  0.5448530000000  0.4912580000000  0.4457120000000 1.0
C      1  0.4849380000000  0.5451650000000  0.4457190000000 1.0
C      1  0.5235490000000  0.5627950000000  0.5133940000000 1.0
C      1  0.4336490000000  0.4909410000000  0.5134040000000 1.0
C      1  0.5408260000000  0.4490120000000  0.5133930000000 1.0
C      1  0.5670480000000  0.4875860000000  0.5075760000000 1.0
C      1  0.4770310000000  0.5662170000000  0.5075850000000 1.0
C      1  0.4539430000000  0.4489450000000  0.5075880000000 1.0
C      1  0.5152220000000  0.5411620000000  0.4942570000000 1.0
C      1  0.4565430000000  0.4945480000000  0.4942640000000 1.0
C      1  0.5262520000000  0.4670370000000  0.4942560000000 1.0
C      1  0.5422990000000  0.4928610000000  0.4933710000000 1.0
C      1  0.4848350000000  0.5421470000000  0.4933770000000 1.0
C      1  0.4708840000000  0.4677390000000  0.4933790000000 1.0
C      1  0.4988340000000  0.4841790000000  0.5792150000000 1.0
C      1  0.5141000000000  0.5088390000000  0.5792140000000 1.0
C      1  0.4851110000000  0.5097300000000  0.5792170000000 1.0
C      1  0.4909280000000  0.5956490000000  0.5403050000000 1.0
C      1  0.4215110000000  0.4462610000000  0.5403130000000 1.0
C      1  0.5855940000000  0.4608380000000  0.5402950000000 1.0
C      1  0.5804670000000  0.5130180000000  0.5067360000000 1.0
C      1  0.4482960000000  0.5651220000000  0.5067510000000 1.0
C      1  0.4692580000000  0.4246070000000  0.5067490000000 1.0
C      1  0.5288040000000  0.5151530000000  0.5564670000000 1.0
C      1  0.4722870000000  0.5193090000000  0.5564730000000 1.0
C      1  0.4969460000000  0.4682860000000  0.5564710000000 1.0
C      1  0.4420360000000  0.5504420000000  0.4823900000000 1.0
C      1  0.4850980000000  0.4265280000000  0.4823860000000 1.0
C      1  0.5708800000000  0.5257780000000  0.4823760000000 1.0
C      1  0.4783230000000  0.4282100000000  0.5318510000000 1.0
C      1  0.5728180000000  0.5190650000000  0.5318410000000 1.0
C      1  0.4468880000000  0.5554730000000  0.5318540000000 1.0
C      1  0.4818910000000  0.4539090000000  0.4683350000000 1.0
C      1  0.5487680000000  0.5093110000000  0.4683280000000 1.0
C      1  0.4673500000000  0.5395270000000  0.4683360000000 1.0
C      1  0.4984200000000  0.4743380000000  0.5061520000000 1.0
C      1  0.5228180000000  0.5134070000000  0.5061500000000 1.0
C      1  0.4767840000000  0.5150020000000  0.5061550000000 1.0
C      1  0.5666160000000  0.4624580000000  0.5213700000000 1.0
C      1  0.4990110000000  0.5784060000000  0.5213770000000 1.0
C      1  0.4323990000000  0.4618840000000  0.5213840000000 1.0
C      1  0.4853000000000  0.5100670000000  0.5336280000000 1.0
C      1  0.4984400000000  0.4841780000000  0.5336260000000 1.0
C      1  0.5142900000000  0.5085030000000  0.5336240000000 1.0
C      1  0.4481570000000  0.5315540000000  0.5457090000000 1.0
C      1  0.4984050000000  0.4412670000000  0.5457030000000 1.0
C      1  0.5514720000000  0.5299260000000  0.5456980000000 1.0
C      1  0.4993390000000  0.5009160000000  0.4923210000000 1.0
C      1  0.4993360000000  0.5009160000000  0.4642540000000 1.0
END
