TITL C-69486-8910-5 -4.37538530457036 125000 -547.443051929509 0 0 78 (C1) n - 1
REM
REM in /rds/project/t2_vol4/rds-t2-cs072/BORA/CARBON/from-Arr/AIRSS/Generating-Clusters/GAP-ML-2020/Higher-Symm/SD-CG/HFTN-CG
REM
REM
REM
REM
REM
REM ./C.cell (b20cbc046b6831c77cfcea5457e17084)
REM AIRSS Version 0.9.1 bugfix July 2018 build 013d7b7c2542+ Fri, 06 Jul 2018 19:26:36 +0100
REM compiler GCC version 9.3.0
REM options -cpp -mtune=generic -march=x86-64 -g -O0
REM seed -281068567 -331729524 509822568 988017581 -1935940091 1694688621 293159957 1049521818 1754070146 -1270662278 -72327073 1945918694 762410776 -1298558881 -637743707 618234536 -392304100 834226386 -354542711 1391520469 -843013703 -1385198909 -1351986269 -955956687 -654580624 22893114 -116622399 1985067691 472749870 -2015155980 -1949780083 -931155466 -771128180
REM
CELL 1.54180   50.00000   50.00000   50.00000   90.00000   90.00000   90.00000
LATT -1
SFAC C  
C      1  0.5014980000000  0.5387990000000  0.5037070000000 1.0
C      1  0.4692520000000  0.5501130000000  0.5060060000000 1.0
C      1  0.5155030000000  0.5440500000000  0.4733150000000 1.0
C      1  0.4741300000000  0.4410170000000  0.4667830000000 1.0
C      1  0.5372820000000  0.4378250000000  0.4963350000000 1.0
C      1  0.4896080000000  0.4351650000000  0.5412960000000 1.0
C      1  0.5665890000000  0.5447680000000  0.5086370000000 1.0
C      1  0.4597030000000  0.5436200000000  0.5673270000000 1.0
C      1  0.4686180000000  0.5498440000000  0.4260150000000 1.0
C      1  0.4383790000000  0.5333220000000  0.4739910000000 1.0
C      1  0.5591580000000  0.5273750000000  0.4591150000000 1.0
C      1  0.5172320000000  0.5242220000000  0.5536900000000 1.0
C      1  0.5463100000000  0.5098560000000  0.5578330000000 1.0
C      1  0.4304710000000  0.5100020000000  0.5188260000000 1.0
C      1  0.5404880000000  0.5173210000000  0.4401370000000 1.0
C      1  0.5138950000000  0.4244200000000  0.5350560000000 1.0
C      1  0.4836100000000  0.4349410000000  0.4940520000000 1.0
C      1  0.5114610000000  0.4349460000000  0.4840330000000 1.0
C      1  0.5511430000000  0.4537990000000  0.5415180000000 1.0
C      1  0.4472970000000  0.4545120000000  0.5243800000000 1.0
C      1  0.5085600000000  0.4604530000000  0.4369550000000 1.0
C      1  0.4196620000000  0.4898360000000  0.5025980000000 1.0
C      1  0.5483100000000  0.4913350000000  0.4313780000000 1.0
C      1  0.5433240000000  0.4884310000000  0.5752370000000 1.0
C      1  0.4329770000000  0.4637680000000  0.4734930000000 1.0
C      1  0.5575000000000  0.4597900000000  0.4569390000000 1.0
C      1  0.5129610000000  0.4601090000000  0.5758140000000 1.0
C      1  0.5359150000000  0.4655530000000  0.4369660000000 1.0
C      1  0.5406450000000  0.4606990000000  0.5663610000000 1.0
C      1  0.4309810000000  0.4627300000000  0.5031260000000 1.0
C      1  0.5587210000000  0.4530040000000  0.4845130000000 1.0
C      1  0.4885590000000  0.4525290000000  0.5641510000000 1.0
C      1  0.4535520000000  0.4569090000000  0.4555510000000 1.0
C      1  0.5791210000000  0.4987950000000  0.4934630000000 1.0
C      1  0.4739100000000  0.4989430000000  0.5739010000000 1.0
C      1  0.4491310000000  0.5029480000000  0.4364450000000 1.0
C      1  0.4702850000000  0.5019530000000  0.4982040000000 1.0
C      1  0.5081090000000  0.4999840000000  0.4720610000000 1.0
C      1  0.5137530000000  0.4882750000000  0.5152900000000 1.0
C      1  0.5009110000000  0.5077630000000  0.5761290000000 1.0
C      1  0.4315780000000  0.5107740000000  0.4577010000000 1.0
C      1  0.5763880000000  0.5049410000000  0.4662320000000 1.0
C      1  0.5254050000000  0.4912580000000  0.4908720000000 1.0
C      1  0.4875140000000  0.4958420000000  0.5198930000000 1.0
C      1  0.4812150000000  0.4938350000000  0.4756720000000 1.0
C      1  0.5668440000000  0.4740020000000  0.5291700000000 1.0
C      1  0.4464890000000  0.4726070000000  0.5472530000000 1.0
C      1  0.4890330000000  0.4806930000000  0.4296600000000 1.0
C      1  0.5723320000000  0.5180480000000  0.5140380000000 1.0
C      1  0.4539780000000  0.5163640000000  0.5635530000000 1.0
C      1  0.4688160000000  0.5221930000000  0.4270720000000 1.0
C      1  0.4933980000000  0.5094410000000  0.4300080000000 1.0
C      1  0.5646270000000  0.5027270000000  0.5370420000000 1.0
C      1  0.4383300000000  0.5004550000000  0.5445430000000 1.0
C      1  0.5097650000000  0.5524910000000  0.5503330000000 1.0
C      1  0.4473690000000  0.5583100000000  0.4662730000000 1.0
C      1  0.5452420000000  0.5445410000000  0.4767330000000 1.0
C      1  0.4712330000000  0.4386840000000  0.5198040000000 1.0
C      1  0.5009500000000  0.4422810000000  0.4574300000000 1.0
C      1  0.5364570000000  0.4355210000000  0.5246760000000 1.0
C      1  0.4633830000000  0.5703880000000  0.4865230000000 1.0
C      1  0.5091750000000  0.5732690000000  0.4756630000000 1.0
C      1  0.5079270000000  0.5639060000000  0.5220380000000 1.0
C      1  0.4217620000000  0.4901560000000  0.4734870000000 1.0
C      1  0.5706960000000  0.4838240000000  0.4489320000000 1.0
C      1  0.5162190000000  0.4871660000000  0.5854250000000 1.0
C      1  0.5732020000000  0.4719670000000  0.5018230000000 1.0
C      1  0.4678640000000  0.4719360000000  0.5659060000000 1.0
C      1  0.4614790000000  0.4766990000000  0.4357130000000 1.0
C      1  0.4494880000000  0.5266180000000  0.5011400000000 1.0
C      1  0.5133050000000  0.5217510000000  0.4505520000000 1.0
C      1  0.5054400000000  0.5171570000000  0.5249260000000 1.0
C      1  0.5491360000000  0.5623520000000  0.4987750000000 1.0
C      1  0.4809710000000  0.5551180000000  0.5550630000000 1.0
C      1  0.4679110000000  0.5667570000000  0.4462940000000 1.0
C      1  0.5236140000000  0.5769310000000  0.5021800000000 1.0
C      1  0.4792130000000  0.5655250000000  0.5286640000000 1.0
C      1  0.4837390000000  0.5797460000000  0.4683110000000 1.0
END
