TITL C-69768-1977-4 -50.3083266017265 125000 -709.507874967442 0 0 100 (C5) n - 1
REM
REM in /rds/project/t2_vol4/rds-t2-cs072/BORA/CARBON/from-Arr/AIRSS/Generating-Clusters/GAP-ML-2020/Higher-Symm/SD-CG/HFTN-CG
REM
REM
REM
REM
REM
REM ./C.cell (b20cbc046b6831c77cfcea5457e17084)
REM AIRSS Version 0.9.1 bugfix July 2018 build 013d7b7c2542+ Fri, 06 Jul 2018 19:26:36 +0100
REM compiler GCC version 9.3.0
REM options -cpp -mtune=generic -march=x86-64 -g -O0
REM seed -1170748616 -827190444 384871971 1461023628 -322896991 708147942 86623808 -582386712 -734302060 -1466748878 -406436684 1075220337 1697773440 -1405749573 -1378543920 -1030769526 16115884 -1447578513 -805818541 -510178725 1734881238 1647028188 571287623 -1454306317 -1597154981 16483547 1432524563 -1276807627 675184860 2020850252 -1744989586 -691060540 -684568705
REM
CELL 1.54180   50.00000   50.00000   50.00000   90.00000   90.00000   90.00000
LATT -1
SFAC C  
C      1  0.5014430000000  0.4314860000000  0.4405530000000 1.0
C      1  0.4352910000000  0.4774840000000  0.4405360000000 1.0
C      1  0.4585960000000  0.5546130000000  0.4405590000000 1.0
C      1  0.5391510000000  0.5562830000000  0.4405900000000 1.0
C      1  0.5656330000000  0.4801860000000  0.4405860000000 1.0
C      1  0.5244320000000  0.4961010000000  0.4768100000000 1.0
C      1  0.5038440000000  0.4755700000000  0.4767980000000 1.0
C      1  0.4779560000000  0.4888060000000  0.4767910000000 1.0
C      1  0.4825440000000  0.5175170000000  0.4767970000000 1.0
C      1  0.5112680000000  0.5220260000000  0.4768090000000 1.0
C      1  0.4976550000000  0.5712510000000  0.4575820000000 1.0
C      1  0.5670430000000  0.5242690000000  0.4576000000000 1.0
C      1  0.5438020000000  0.4437580000000  0.4575770000000 1.0
C      1  0.4600510000000  0.4409820000000  0.4575440000000 1.0
C      1  0.4315300000000  0.5197770000000  0.4575470000000 1.0
C      1  0.5868850000000  0.5280790000000  0.5035370000000 1.0
C      1  0.5535530000000  0.4260430000000  0.5035060000000 1.0
C      1  0.4462110000000  0.4262120000000  0.5034650000000 1.0
C      1  0.4132020000000  0.5283530000000  0.5034710000000 1.0
C      1  0.5001430000000  0.5913100000000  0.5035150000000 1.0
C      1  0.4274690000000  0.5589800000000  0.5270770000000 1.0
C      1  0.5336770000000  0.5871940000000  0.5271220000000 1.0
C      1  0.5933310000000  0.4949020000000  0.5271290000000 1.0
C      1  0.5239900000000  0.4096490000000  0.5270870000000 1.0
C      1  0.4214820000000  0.4492510000000  0.5270550000000 1.0
C      1  0.5400250000000  0.5801150000000  0.4813720000000 1.0
C      1  0.5885640000000  0.4867000000000  0.4813740000000 1.0
C      1  0.5147200000000  0.4116700000000  0.4813330000000 1.0
C      1  0.4205440000000  0.4587140000000  0.4813050000000 1.0
C      1  0.4361830000000  0.5628190000000  0.4813300000000 1.0
C      1  0.4903470000000  0.4770960000000  0.4287000000000 1.0
C      1  0.4752400000000  0.5021370000000  0.4286990000000 1.0
C      1  0.4943880000000  0.5242430000000  0.4287100000000 1.0
C      1  0.5213290000000  0.5128630000000  0.4287190000000 1.0
C      1  0.5188310000000  0.4837240000000  0.4287130000000 1.0
C      1  0.4814170000000  0.4492630000000  0.4382650000000 1.0
C      1  0.4460090000000  0.5020250000000  0.4382610000000 1.0
C      1  0.4852480000000  0.5520040000000  0.4382850000000 1.0
C      1  0.5449060000000  0.5301300000000  0.4383040000000 1.0
C      1  0.5425380000000  0.4666330000000  0.4382920000000 1.0
C      1  0.5701820000000  0.5387770000000  0.4831640000000 1.0
C      1  0.5585680000000  0.4452440000000  0.4831430000000 1.0
C      1  0.4660250000000  0.4273860000000  0.4831040000000 1.0
C      1  0.4204430000000  0.5098820000000  0.4831020000000 1.0
C      1  0.4848150000000  0.5787250000000  0.4831380000000 1.0
C      1  0.4206910000000  0.4382750000000  0.4995060000000 1.0
C      1  0.4167880000000  0.5563530000000  0.4995250000000 1.0
C      1  0.5278810000000  0.5965540000000  0.4995750000000 1.0
C      1  0.6004440000000  0.5033200000000  0.4995860000000 1.0
C      1  0.5341970000000  0.4054990000000  0.4995430000000 1.0
C      1  0.5482280000000  0.5547480000000  0.4960880000000 1.0
C      1  0.5669720000000  0.4710520000000  0.4960800000000 1.0
C      1  0.4931650000000  0.4273620000000  0.4960440000000 1.0
C      1  0.4288060000000  0.4840560000000  0.4960300000000 1.0
C      1  0.4628370000000  0.5627850000000  0.4960570000000 1.0
C      1  0.5404090000000  0.4497100000000  0.5514720000000 1.0
C      1  0.4646540000000  0.4460040000000  0.5514430000000 1.0
C      1  0.4377190000000  0.5169060000000  0.5514450000000 1.0
C      1  0.4968270000000  0.5644320000000  0.5514760000000 1.0
C      1  0.5602930000000  0.5229030000000  0.5514930000000 1.0
C      1  0.5761610000000  0.4731340000000  0.5271760000000 1.0
C      1  0.4979810000000  0.4192520000000  0.5271360000000 1.0
C      1  0.4225780000000  0.4769540000000  0.5271180000000 1.0
C      1  0.4541550000000  0.5664980000000  0.5271460000000 1.0
C      1  0.5490740000000  0.5641370000000  0.5271820000000 1.0
C      1  0.4811500000000  0.5154420000000  0.5735710000000 1.0
C      1  0.5088550000000  0.5226630000000  0.5735830000000 1.0
C      1  0.5242830000000  0.4985460000000  0.5735840000000 1.0
C      1  0.5061150000000  0.4764200000000  0.5735730000000 1.0
C      1  0.4794570000000  0.4868630000000  0.5735650000000 1.0
C      1  0.5039990000000  0.4755520000000  0.5171570000000 1.0
C      1  0.4779830000000  0.4886330000000  0.5171500000000 1.0
C      1  0.4823840000000  0.5174190000000  0.5171570000000 1.0
C      1  0.5111210000000  0.5221280000000  0.5171680000000 1.0
C      1  0.5244800000000  0.4962530000000  0.5171690000000 1.0
C      1  0.5785890000000  0.4977800000000  0.4562860000000 1.0
C      1  0.5221780000000  0.4245920000000  0.4562510000000 1.0
C      1  0.4351410000000  0.4556260000000  0.4562230000000 1.0
C      1  0.4377600000000  0.5479940000000  0.4562410000000 1.0
C      1  0.5264160000000  0.5740460000000  0.4562790000000 1.0
C      1  0.4687440000000  0.5316160000000  0.4969360000000 1.0
C      1  0.5204100000000  0.5394980000000  0.4969570000000 1.0
C      1  0.5438720000000  0.4927950000000  0.4969580000000 1.0
C      1  0.5067050000000  0.4560500000000  0.4969370000000 1.0
C      1  0.4602740000000  0.4800430000000  0.4969240000000 1.0
C      1  0.4912990000000  0.4360260000000  0.5500300000000 1.0
C      1  0.4364630000000  0.4884810000000  0.5500180000000 1.0
C      1  0.4694070000000  0.5568430000000  0.5500430000000 1.0
C      1  0.5446020000000  0.5466370000000  0.5500700000000 1.0
C      1  0.5581330000000  0.4719680000000  0.5500620000000 1.0
C      1  0.5179980000000  0.5471210000000  0.5623520000000 1.0
C      1  0.5503710000000  0.4974140000000  0.5623550000000 1.0
C      1  0.5131000000000  0.4512650000000  0.5623330000000 1.0
C      1  0.4576930000000  0.4724510000000  0.5623150000000 1.0
C      1  0.4607200000000  0.5316940000000  0.5623270000000 1.0
C      1  0.5446390000000  0.4289780000000  0.5324750000000 1.0
C      1  0.4462450000000  0.4355830000000  0.5324390000000 1.0
C      1  0.4221210000000  0.5312020000000  0.5324470000000 1.0
C      1  0.5056060000000  0.5836930000000  0.5324880000000 1.0
C      1  0.5813260000000  0.5205150000000  0.5325050000000 1.0
END
