TITL C-69750-3083-3 0.276432158573126 125000 -757.227713351003 0 0 112 (C1) n - 1
REM
REM in /rds/project/t2_vol4/rds-t2-cs072/BORA/CARBON/from-Arr/AIRSS/Generating-Clusters/GAP-ML-2020/Higher-Symm/SD-CG/HFTN-CG
REM
REM
REM
REM
REM
REM ./C.cell (b20cbc046b6831c77cfcea5457e17084)
REM AIRSS Version 0.9.1 bugfix July 2018 build 013d7b7c2542+ Fri, 06 Jul 2018 19:26:36 +0100
REM compiler GCC version 9.3.0
REM options -cpp -mtune=generic -march=x86-64 -g -O0
REM seed 2109901384 719957585 -2107710592 -953159704 -576162169 -535170852 -800960305 227899356 -1413008824 1941243389 -1026274526 -869073118 1752361454 941048963 -1274531805 829417210 -521400454 -2140624101 338965610 301595505 -24624907 300902469 1111604979 -1102288632 -1161739253 -364241300 -328890099 2144811691 154123424 -601582288 -1518013342 1948986948 -1254870902
REM
CELL 1.54180   50.00000   50.00000   50.00000   90.00000   90.00000   90.00000
LATT -1
SFAC C  
C      1  0.5581270000000  0.4410810000000  0.5354490000000 1.0
C      1  0.4670660000000  0.4386470000000  0.5549310000000 1.0
C      1  0.4402740000000  0.4446020000000  0.4624230000000 1.0
C      1  0.5352800000000  0.4417190000000  0.4436680000000 1.0
C      1  0.4981360000000  0.4916450000000  0.5223700000000 1.0
C      1  0.4704180000000  0.4865160000000  0.5101350000000 1.0
C      1  0.5005980000000  0.4934910000000  0.4766920000000 1.0
C      1  0.5185390000000  0.4943520000000  0.5001730000000 1.0
C      1  0.4790980000000  0.4593380000000  0.5003420000000 1.0
C      1  0.4981270000000  0.4645680000000  0.4782820000000 1.0
C      1  0.5211760000000  0.4643010000000  0.4981230000000 1.0
C      1  0.5028710000000  0.4614140000000  0.5205430000000 1.0
C      1  0.5079370000000  0.4439270000000  0.4382320000000 1.0
C      1  0.5613820000000  0.4431430000000  0.5077240000000 1.0
C      1  0.4940790000000  0.4407480000000  0.5599990000000 1.0
C      1  0.4354910000000  0.4455990000000  0.4907020000000 1.0
C      1  0.4959230000000  0.5139880000000  0.5405740000000 1.0
C      1  0.4608210000000  0.5128140000000  0.4969110000000 1.0
C      1  0.5042440000000  0.5158710000000  0.4605980000000 1.0
C      1  0.5380960000000  0.5150750000000  0.5046130000000 1.0
C      1  0.5055860000000  0.5391350000000  0.4794170000000 1.0
C      1  0.5209730000000  0.5391040000000  0.5071060000000 1.0
C      1  0.4940280000000  0.5377880000000  0.5230270000000 1.0
C      1  0.4783470000000  0.5368740000000  0.4960720000000 1.0
C      1  0.4426720000000  0.5085050000000  0.4717960000000 1.0
C      1  0.5279680000000  0.5103860000000  0.4415950000000 1.0
C      1  0.5575810000000  0.5083500000000  0.5280980000000 1.0
C      1  0.4720490000000  0.5077960000000  0.5593370000000 1.0
C      1  0.5665130000000  0.5551160000000  0.5138430000000 1.0
C      1  0.4856980000000  0.5531810000000  0.5694430000000 1.0
C      1  0.4322330000000  0.5538580000000  0.4886830000000 1.0
C      1  0.5125520000000  0.5572260000000  0.4343250000000 1.0
C      1  0.5215520000000  0.5245210000000  0.5540800000000 1.0
C      1  0.4466690000000  0.5257300000000  0.5228900000000 1.0
C      1  0.4786460000000  0.5267700000000  0.4475650000000 1.0
C      1  0.5520960000000  0.5260340000000  0.4790050000000 1.0
C      1  0.5189680000000  0.5847880000000  0.5093520000000 1.0
C      1  0.4922710000000  0.5838120000000  0.5222870000000 1.0
C      1  0.4794710000000  0.5837720000000  0.4956420000000 1.0
C      1  0.5060490000000  0.5851790000000  0.4826470000000 1.0
C      1  0.4455720000000  0.5025550000000  0.5428300000000 1.0
C      1  0.4578600000000  0.5046100000000  0.4446250000000 1.0
C      1  0.5545950000000  0.5048970000000  0.4571440000000 1.0
C      1  0.5429670000000  0.5026500000000  0.5552730000000 1.0
C      1  0.5472360000000  0.4229180000000  0.4906850000000 1.0
C      1  0.5106380000000  0.4213050000000  0.5449240000000 1.0
C      1  0.4592570000000  0.4330690000000  0.5050100000000 1.0
C      1  0.4903990000000  0.4244900000000  0.4528260000000 1.0
C      1  0.4980550000000  0.4118690000000  0.4773790000000 1.0
C      1  0.5213750000000  0.4113240000000  0.4954260000000 1.0
C      1  0.5036660000000  0.4109300000000  0.5188160000000 1.0
C      1  0.4803930000000  0.4120840000000  0.5006800000000 1.0
C      1  0.4622340000000  0.5482370000000  0.4606980000000 1.0
C      1  0.5403360000000  0.5491100000000  0.4637050000000 1.0
C      1  0.5375400000000  0.5471730000000  0.5421560000000 1.0
C      1  0.4585690000000  0.5473490000000  0.5396770000000 1.0
C      1  0.5430830000000  0.5136240000000  0.5991820000000 1.0
C      1  0.4021110000000  0.5057170000000  0.5374050000000 1.0
C      1  0.4574580000000  0.5174600000000  0.4012040000000 1.0
C      1  0.5982360000000  0.5166620000000  0.4574920000000 1.0
C      1  0.4241780000000  0.5363820000000  0.4366310000000 1.0
C      1  0.5636790000000  0.5384270000000  0.4249200000000 1.0
C      1  0.5764300000000  0.5346570000000  0.5642200000000 1.0
C      1  0.4333240000000  0.5297540000000  0.5751150000000 1.0
C      1  0.5983320000000  0.5018230000000  0.4970350000000 1.0
C      1  0.5033800000000  0.4987380000000  0.5997050000000 1.0
C      1  0.3985940000000  0.5026100000000  0.4957540000000 1.0
C      1  0.4972490000000  0.5035330000000  0.4008200000000 1.0
C      1  0.5778190000000  0.4908350000000  0.5137310000000 1.0
C      1  0.4868360000000  0.4884730000000  0.5786470000000 1.0
C      1  0.4212160000000  0.4919260000000  0.4826340000000 1.0
C      1  0.5139960000000  0.4923080000000  0.4211470000000 1.0
C      1  0.4849220000000  0.5307500000000  0.4011290000000 1.0
C      1  0.5985780000000  0.5291600000000  0.4851520000000 1.0
C      1  0.5151650000000  0.5260920000000  0.6006590000000 1.0
C      1  0.4001750000000  0.5246940000000  0.5145450000000 1.0
C      1  0.4461510000000  0.4776120000000  0.5273460000000 1.0
C      1  0.4686410000000  0.4785760000000  0.4305050000000 1.0
C      1  0.5681480000000  0.4781530000000  0.4677220000000 1.0
C      1  0.5326700000000  0.4757560000000  0.5686140000000 1.0
C      1  0.4616450000000  0.5358460000000  0.5669850000000 1.0
C      1  0.4344760000000  0.5379300000000  0.4639360000000 1.0
C      1  0.5366270000000  0.5402140000000  0.4354310000000 1.0
C      1  0.5653550000000  0.5374050000000  0.5373320000000 1.0
C      1  0.5697690000000  0.4685790000000  0.4976240000000 1.0
C      1  0.5031980000000  0.4662970000000  0.5697000000000 1.0
C      1  0.4262110000000  0.4706530000000  0.5040210000000 1.0
C      1  0.4983980000000  0.4693200000000  0.4290530000000 1.0
C      1  0.5601940000000  0.5178450000000  0.5772960000000 1.0
C      1  0.4218920000000  0.5116020000000  0.5589360000000 1.0
C      1  0.4405240000000  0.5199930000000  0.4233930000000 1.0
C      1  0.5764440000000  0.5209270000000  0.4405940000000 1.0
C      1  0.5476050000000  0.4516390000000  0.5594290000000 1.0
C      1  0.4465330000000  0.4545910000000  0.5449270000000 1.0
C      1  0.4531660000000  0.4547600000000  0.4394690000000 1.0
C      1  0.5592520000000  0.4539320000000  0.4528770000000 1.0
C      1  0.4618310000000  0.5605780000000  0.4877670000000 1.0
C      1  0.5137620000000  0.5631860000000  0.4638720000000 1.0
C      1  0.5373050000000  0.5621790000000  0.5161740000000 1.0
C      1  0.4849520000000  0.5609150000000  0.5399610000000 1.0
C      1  0.4706210000000  0.4923090000000  0.4025860000000 1.0
C      1  0.5963310000000  0.4912230000000  0.4700270000000 1.0
C      1  0.5304050000000  0.4882630000000  0.5970030000000 1.0
C      1  0.4017090000000  0.4833970000000  0.5188040000000 1.0
C      1  0.4232650000000  0.5403040000000  0.5116210000000 1.0
C      1  0.4897220000000  0.5441030000000  0.4249850000000 1.0
C      1  0.5748610000000  0.5426530000000  0.4902680000000 1.0
C      1  0.5091190000000  0.5402520000000  0.5777570000000 1.0
C      1  0.5374780000000  0.4279710000000  0.5487330000000 1.0
C      1  0.4531730000000  0.4304220000000  0.5329050000000 1.0
C      1  0.4632270000000  0.4316860000000  0.4509980000000 1.0
C      1  0.5502810000000  0.4299700000000  0.4636720000000 1.0
END
