TITL C-69773-3920-5 181.695233616961 125000 -404.540838066643 0 0 63 (Cs) n - 1
REM
REM in /rds/project/t2_vol4/rds-t2-cs072/BORA/CARBON/from-Arr/AIRSS/Generating-Clusters/GAP-ML-2020/Higher-Symm/SD-CG/HFTN-CG
REM
REM
REM
REM
REM
REM ./C.cell (b20cbc046b6831c77cfcea5457e17084)
REM AIRSS Version 0.9.1 bugfix July 2018 build 013d7b7c2542+ Fri, 06 Jul 2018 19:26:36 +0100
REM compiler GCC version 9.3.0
REM options -cpp -mtune=generic -march=x86-64 -g -O0
REM seed -502283906 -715836575 230574398 -1949229488 253815895 -1190752952 635972018 -1609010859 1787345538 -1874711204 -587156889 -1550772200 1395599454 130310543 2086053236 1299208162 -1774391550 1839319565 -638727057 894701224 -37058376 -1221042768 -819527268 -230560732 511920859 -1194633589 860048605 1819385684 780246535 790670581 -755902612 1987387675 -597338230
REM
CELL 1.54180   50.00000   50.00000   50.00000   90.00000   90.00000   90.00000
LATT -1
SFAC C  
C      1  0.4491110000000  0.5366450000000  0.4860910000000 1.0
C      1  0.5376800000000  0.5359110000000  0.4628990000000 1.0
C      1  0.5128660000000  0.5366860000000  0.5510480000000 1.0
C      1  0.4493290000000  0.5366300000000  0.5144110000000 1.0
C      1  0.5374850000000  0.5367220000000  0.5370490000000 1.0
C      1  0.5131910000000  0.5358890000000  0.4487780000000 1.0
C      1  0.4701360000000  0.4374730000000  0.5223390000000 1.0
C      1  0.4934250000000  0.4395640000000  0.4603630000000 1.0
C      1  0.5402940000000  0.4395320000000  0.5153640000000 1.0
C      1  0.4665990000000  0.4394680000000  0.4728700000000 1.0
C      1  0.4957100000000  0.4374950000000  0.5370860000000 1.0
C      1  0.5376810000000  0.4396030000000  0.4858810000000 1.0
C      1  0.4746740000000  0.5056850000000  0.5692440000000 1.0
C      1  0.4529060000000  0.5084610000000  0.4437710000000 1.0
C      1  0.5725640000000  0.5082240000000  0.4873240000000 1.0
C      1  0.4746130000000  0.5081390000000  0.4308430000000 1.0
C      1  0.4527530000000  0.5056660000000  0.5566040000000 1.0
C      1  0.5722480000000  0.5085650000000  0.5125870000000 1.0
C      1  0.4993390000000  0.4743200000000  0.5296270000000 1.0
C      1  0.4749410000000  0.4751600000000  0.4863610000000 1.0
C      1  0.5243960000000  0.4743680000000  0.4865270000000 1.0
C      1  0.4994760000000  0.4743460000000  0.4721570000000 1.0
C      1  0.4747260000000  0.4742990000000  0.5154340000000 1.0
C      1  0.5243930000000  0.4752030000000  0.5148760000000 1.0
C      1  0.5500210000000  0.5100050000000  0.4686450000000 1.0
C      1  0.5022220000000  0.5102590000000  0.5592350000000 1.0
C      1  0.4476270000000  0.5107750000000  0.4724730000000 1.0
C      1  0.5500490000000  0.5108640000000  0.5315320000000 1.0
C      1  0.5020690000000  0.5099630000000  0.4409950000000 1.0
C      1  0.4476100000000  0.5102120000000  0.5277440000000 1.0
C      1  0.4479860000000  0.4602700000000  0.4832660000000 1.0
C      1  0.5394100000000  0.4587460000000  0.4639750000000 1.0
C      1  0.5119280000000  0.4594250000000  0.5528520000000 1.0
C      1  0.4483380000000  0.4593700000000  0.5161840000000 1.0
C      1  0.5405940000000  0.4603500000000  0.5366660000000 1.0
C      1  0.5114940000000  0.4587220000000  0.4478780000000 1.0
C      1  0.4339970000000  0.4873430000000  0.5135110000000 1.0
C      1  0.5206110000000  0.4863570000000  0.4368090000000 1.0
C      1  0.5451280000000  0.4875600000000  0.5503390000000 1.0
C      1  0.4338460000000  0.4874630000000  0.4861700000000 1.0
C      1  0.5213890000000  0.4874190000000  0.5639040000000 1.0
C      1  0.5443860000000  0.4863770000000  0.4505180000000 1.0
C      1  0.4997230000000  0.5549680000000  0.5308770000000 1.0
C      1  0.4732930000000  0.5546380000000  0.4840090000000 1.0
C      1  0.5271040000000  0.5541940000000  0.4845430000000 1.0
C      1  0.4997320000000  0.5541700000000  0.4687600000000 1.0
C      1  0.4733470000000  0.5549450000000  0.5156680000000 1.0
C      1  0.5271500000000  0.5546850000000  0.5150640000000 1.0
C      1  0.5000420000000  0.5048890000000  0.4705570000000 1.0
C      1  0.5252900000000  0.5052820000000  0.5151300000000 1.0
C      1  0.4741820000000  0.5052050000000  0.5149680000000 1.0
C      1  0.4999750000000  0.5052280000000  0.5298410000000 1.0
C      1  0.5254570000000  0.5049110000000  0.4852130000000 1.0
C      1  0.4742330000000  0.5052380000000  0.4856890000000 1.0
C      1  0.5253760000000  0.5842600000000  0.4846820000000 1.0
C      1  0.5004630000000  0.5848980000000  0.5285130000000 1.0
C      1  0.4750510000000  0.5846360000000  0.4849610000000 1.0
C      1  0.5254070000000  0.5846800000000  0.5139970000000 1.0
C      1  0.5004380000000  0.5842380000000  0.4703030000000 1.0
C      1  0.4749820000000  0.5848760000000  0.5138200000000 1.0
C      1  0.5074740000000  0.4272160000000  0.4871520000000 1.0
C      1  0.5142780000000  0.4267110000000  0.5175400000000 1.0
C      1  0.4777650000000  0.4266790000000  0.4964860000000 1.0
END
