TITL C-69479-9041-5 0.0558522170383086 125000 -949.12976918496 0 0 133 (C1) n - 1
REM
REM in /rds/project/t2_vol4/rds-t2-cs072/BORA/CARBON/from-Arr/AIRSS/Generating-Clusters/GAP-ML-2020/Higher-Symm/SD-CG/HFTN-CG
REM
REM
REM
REM
REM
REM ./C.cell (b20cbc046b6831c77cfcea5457e17084)
REM AIRSS Version 0.9.1 bugfix July 2018 build 013d7b7c2542+ Fri, 06 Jul 2018 19:26:36 +0100
REM compiler GCC version 9.3.0
REM options -cpp -mtune=generic -march=x86-64 -g -O0
REM seed -910958123 177574073 645640540 -1424332580 959542296 961028604 448998028 1791772265 965005862 -579324687 741861375 335206920 1372858768 618450996 -1948792580 202881092 -1493423755 896398705 1102114845 1580269128 -1076556968 1642490044 1360196688 503032013 -570771172 -603230224 1722276414 -1871687333 -1108309646 -129912139 -1561216421 1959254208 742946293
REM
CELL 1.54180   50.00000   50.00000   50.00000   90.00000   90.00000   90.00000
LATT -1
SFAC C  
C      1  0.4805690000000  0.5241340000000  0.4710110000000 1.0
C      1  0.4649450000000  0.5000320000000  0.5095860000000 1.0
C      1  0.5268890000000  0.4785270000000  0.4778990000000 1.0
C      1  0.5191020000000  0.5224500000000  0.5360280000000 1.0
C      1  0.4707750000000  0.4754650000000  0.5239120000000 1.0
C      1  0.5159460000000  0.4912960000000  0.4543500000000 1.0
C      1  0.5442680000000  0.4945130000000  0.4938970000000 1.0
C      1  0.4686380000000  0.5003070000000  0.4817510000000 1.0
C      1  0.5420540000000  0.5073460000000  0.5409670000000 1.0
C      1  0.4717450000000  0.4500700000000  0.5116000000000 1.0
C      1  0.5144430000000  0.5353670000000  0.5118230000000 1.0
C      1  0.4759020000000  0.5490580000000  0.4852050000000 1.0
C      1  0.4908270000000  0.4796020000000  0.4443790000000 1.0
C      1  0.4725980000000  0.5226580000000  0.5266900000000 1.0
C      1  0.5262870000000  0.5292960000000  0.4865980000000 1.0
C      1  0.4958440000000  0.4829950000000  0.5341840000000 1.0
C      1  0.4937800000000  0.5107840000000  0.5456200000000 1.0
C      1  0.5082020000000  0.5178620000000  0.4679220000000 1.0
C      1  0.5525960000000  0.5193930000000  0.4855650000000 1.0
C      1  0.4733330000000  0.4752590000000  0.4677170000000 1.0
C      1  0.5444270000000  0.4856620000000  0.5215540000000 1.0
C      1  0.4853980000000  0.5465610000000  0.5124870000000 1.0
C      1  0.5175800000000  0.4712460000000  0.5213330000000 1.0
C      1  0.4843990000000  0.4528910000000  0.4855610000000 1.0
C      1  0.5065930000000  0.5834600000000  0.4673910000000 1.0
C      1  0.4898690000000  0.5102270000000  0.5796030000000 1.0
C      1  0.5751210000000  0.4792210000000  0.5145730000000 1.0
C      1  0.4851560000000  0.5758530000000  0.5238480000000 1.0
C      1  0.5050820000000  0.4176600000000  0.5320110000000 1.0
C      1  0.4837010000000  0.4232320000000  0.4756170000000 1.0
C      1  0.5122460000000  0.5059720000000  0.4109880000000 1.0
C      1  0.4869210000000  0.4928410000000  0.4161500000000 1.0
C      1  0.5147440000000  0.4960720000000  0.5895690000000 1.0
C      1  0.4111930000000  0.4656880000000  0.4870230000000 1.0
C      1  0.5808120000000  0.5248010000000  0.4854000000000 1.0
C      1  0.4119910000000  0.5344140000000  0.5135760000000 1.0
C      1  0.5076840000000  0.4137210000000  0.4632280000000 1.0
C      1  0.4664280000000  0.4906680000000  0.5834320000000 1.0
C      1  0.5868300000000  0.5411820000000  0.5081160000000 1.0
C      1  0.4788140000000  0.4220870000000  0.5210840000000 1.0
C      1  0.5092980000000  0.5853310000000  0.5362520000000 1.0
C      1  0.4805450000000  0.5777350000000  0.4780560000000 1.0
C      1  0.5332560000000  0.4880010000000  0.4239140000000 1.0
C      1  0.4642120000000  0.5113480000000  0.4149790000000 1.0
C      1  0.5378900000000  0.5139960000000  0.5884080000000 1.0
C      1  0.4066790000000  0.5129340000000  0.4941620000000 1.0
C      1  0.5824770000000  0.4623510000000  0.4917940000000 1.0
C      1  0.4063530000000  0.4871530000000  0.5067670000000 1.0
C      1  0.5711380000000  0.4598890000000  0.5618370000000 1.0
C      1  0.5626180000000  0.5638910000000  0.4538330000000 1.0
C      1  0.4596970000000  0.5661650000000  0.5741920000000 1.0
C      1  0.4355130000000  0.4521710000000  0.4260060000000 1.0
C      1  0.5693990000000  0.5411880000000  0.4373740000000 1.0
C      1  0.4381020000000  0.5474540000000  0.5734510000000 1.0
C      1  0.4377280000000  0.5703470000000  0.5571070000000 1.0
C      1  0.5630850000000  0.4371960000000  0.5454530000000 1.0
C      1  0.4348440000000  0.4292270000000  0.4424030000000 1.0
C      1  0.5479350000000  0.5577520000000  0.4304440000000 1.0
C      1  0.4565560000000  0.4322760000000  0.4244920000000 1.0
C      1  0.5493300000000  0.4434120000000  0.5692310000000 1.0
C      1  0.5797650000000  0.5600680000000  0.5650780000000 1.0
C      1  0.5677750000000  0.4188640000000  0.4496040000000 1.0
C      1  0.4506260000000  0.4338220000000  0.5612670000000 1.0
C      1  0.4278550000000  0.5493220000000  0.4405820000000 1.0
C      1  0.5777170000000  0.4415580000000  0.4337330000000 1.0
C      1  0.4276770000000  0.4507960000000  0.5597630000000 1.0
C      1  0.4301230000000  0.4298540000000  0.5417090000000 1.0
C      1  0.5693420000000  0.5836480000000  0.5498950000000 1.0
C      1  0.4304960000000  0.5704860000000  0.4583830000000 1.0
C      1  0.5557510000000  0.4255190000000  0.4248690000000 1.0
C      1  0.4498300000000  0.5673220000000  0.4378200000000 1.0
C      1  0.5576970000000  0.5755980000000  0.5742230000000 1.0
C      1  0.4967380000000  0.5381400000000  0.5887290000000 1.0
C      1  0.5886100000000  0.4957400000000  0.5336840000000 1.0
C      1  0.5298950000000  0.5855350000000  0.4860840000000 1.0
C      1  0.5070530000000  0.5337970000000  0.4107620000000 1.0
C      1  0.4945760000000  0.4630660000000  0.4194950000000 1.0
C      1  0.5085260000000  0.4680110000000  0.5881130000000 1.0
C      1  0.4147650000000  0.4804990000000  0.4616720000000 1.0
C      1  0.5885750000000  0.5060200000000  0.4648760000000 1.0
C      1  0.4153620000000  0.5197990000000  0.5389620000000 1.0
C      1  0.4598390000000  0.5878050000000  0.5190160000000 1.0
C      1  0.5285160000000  0.4159480000000  0.5133480000000 1.0
C      1  0.4579750000000  0.4118590000000  0.4806860000000 1.0
C      1  0.4801640000000  0.4651250000000  0.5843320000000 1.0
C      1  0.5891670000000  0.5250890000000  0.5325950000000 1.0
C      1  0.5293750000000  0.4130860000000  0.4832610000000 1.0
C      1  0.5228000000000  0.4613710000000  0.4161400000000 1.0
C      1  0.4787680000000  0.5370950000000  0.4143620000000 1.0
C      1  0.5250740000000  0.5400500000000  0.5903940000000 1.0
C      1  0.4111400000000  0.5081590000000  0.4659340000000 1.0
C      1  0.5871870000000  0.4768880000000  0.4668760000000 1.0
C      1  0.4111720000000  0.4921320000000  0.5351220000000 1.0
C      1  0.4553930000000  0.4101740000000  0.5083440000000 1.0
C      1  0.5307020000000  0.5881780000000  0.5160580000000 1.0
C      1  0.4571360000000  0.5888780000000  0.4915200000000 1.0
C      1  0.5205510000000  0.5566760000000  0.4235080000000 1.0
C      1  0.4304320000000  0.5224580000000  0.5641270000000 1.0
C      1  0.5546330000000  0.4285770000000  0.5197890000000 1.0
C      1  0.4869550000000  0.5629330000000  0.5774900000000 1.0
C      1  0.5215940000000  0.4449070000000  0.5752630000000 1.0
C      1  0.4840460000000  0.4356200000000  0.4225830000000 1.0
C      1  0.5764740000000  0.5137650000000  0.4397450000000 1.0
C      1  0.4295320000000  0.4776170000000  0.4361560000000 1.0
C      1  0.5779970000000  0.4871930000000  0.5597480000000 1.0
C      1  0.4342270000000  0.4241270000000  0.4697070000000 1.0
C      1  0.5564600000000  0.5737840000000  0.4795670000000 1.0
C      1  0.4360520000000  0.5757080000000  0.5301690000000 1.0
C      1  0.5297280000000  0.4346140000000  0.4216870000000 1.0
C      1  0.4237540000000  0.4783220000000  0.5575180000000 1.0
C      1  0.5582620000000  0.5819400000000  0.5238240000000 1.0
C      1  0.4765060000000  0.4402020000000  0.5690840000000 1.0
C      1  0.5320320000000  0.5659670000000  0.5789280000000 1.0
C      1  0.4757920000000  0.5616340000000  0.4299410000000 1.0
C      1  0.5776000000000  0.4684500000000  0.4411090000000 1.0
C      1  0.4234260000000  0.5219880000000  0.4434340000000 1.0
C      1  0.5788240000000  0.5333800000000  0.5578960000000 1.0
C      1  0.4322710000000  0.5753450000000  0.4854940000000 1.0
C      1  0.5561480000000  0.4207370000000  0.4752580000000 1.0
C      1  0.4301750000000  0.4235020000000  0.5147260000000 1.0
C      1  0.4202780000000  0.4382960000000  0.4908610000000 1.0
C      1  0.5071450000000  0.4220230000000  0.4350220000000 1.0
C      1  0.4389330000000  0.5038300000000  0.4276850000000 1.0
C      1  0.5688520000000  0.4367250000000  0.4955140000000 1.0
C      1  0.4218470000000  0.5613820000000  0.5092690000000 1.0
C      1  0.5713760000000  0.5665400000000  0.5035760000000 1.0
C      1  0.5019160000000  0.5714960000000  0.4397650000000 1.0
C      1  0.5600770000000  0.5108170000000  0.5669840000000 1.0
C      1  0.4399570000000  0.4966260000000  0.5728430000000 1.0
C      1  0.5630800000000  0.4908640000000  0.4284060000000 1.0
C      1  0.5094900000000  0.5763940000000  0.5643500000000 1.0
C      1  0.5021220000000  0.4298260000000  0.5595920000000 1.0
C      1  0.5108500000000  0.4642400000000  0.4948290000000 1.0
END
