TITL C-69500-8879-9 4.98449309570673 125000 -250.531705876337 0 0 38 (C1) n - 1
REM
REM in /rds/project/t2_vol4/rds-t2-cs072/BORA/CARBON/from-Arr/AIRSS/Generating-Clusters/GAP-ML-2020/Higher-Symm/SD-CG/HFTN-CG
REM
REM
REM
REM
REM
REM ./C.cell (b20cbc046b6831c77cfcea5457e17084)
REM AIRSS Version 0.9.1 bugfix July 2018 build 013d7b7c2542+ Fri, 06 Jul 2018 19:26:36 +0100
REM compiler GCC version 9.3.0
REM options -cpp -mtune=generic -march=x86-64 -g -O0
REM seed 315385762 -1560457135 1100409590 -920175268 -424205006 -825773980 1188466422 -1656160476 1717346139 -114147853 -1933172103 1355391023 1711040950 -954777768 -1168157837 -1175843816 771339956 -447990418 807771259 -1142029866 1084095150 945119622 2033533638 1463090620 1318422549 99820154 124738936 -368133072 -5469563 1029128684 -2095990177 -820203441 -263867662
REM
CELL 1.54180   50.00000   50.00000   50.00000   90.00000   90.00000   90.00000
LATT -1
SFAC C  
C      1  0.5234120000000  0.5606980000000  0.5068950000000 1.0
C      1  0.5523630000000  0.4793260000000  0.5227680000000 1.0
C      1  0.5610320000000  0.4839900000000  0.4961140000000 1.0
C      1  0.4718430000000  0.4902000000000  0.5627840000000 1.0
C      1  0.4214380000000  0.5179560000000  0.4776120000000 1.0
C      1  0.4508060000000  0.4914150000000  0.5474670000000 1.0
C      1  0.4992060000000  0.5111860000000  0.4645030000000 1.0
C      1  0.4864190000000  0.4510110000000  0.5055730000000 1.0
C      1  0.4815060000000  0.5602610000000  0.4974240000000 1.0
C      1  0.5391960000000  0.5272140000000  0.4813600000000 1.0
C      1  0.5404450000000  0.4989790000000  0.4832880000000 1.0
C      1  0.5000610000000  0.5540730000000  0.5213840000000 1.0
C      1  0.5380780000000  0.4816830000000  0.4588500000000 1.0
C      1  0.5141970000000  0.5341130000000  0.4703390000000 1.0
C      1  0.4955260000000  0.5270830000000  0.5281650000000 1.0
C      1  0.4745290000000  0.5153640000000  0.5099980000000 1.0
C      1  0.5059730000000  0.5585120000000  0.4819570000000 1.0
C      1  0.4378270000000  0.5370370000000  0.4839540000000 1.0
C      1  0.4526870000000  0.4963260000000  0.5207840000000 1.0
C      1  0.4918360000000  0.4714540000000  0.4391870000000 1.0
C      1  0.5413940000000  0.5037460000000  0.5358560000000 1.0
C      1  0.4441330000000  0.4816680000000  0.4963910000000 1.0
C      1  0.4972680000000  0.4936950000000  0.5614640000000 1.0
C      1  0.4708190000000  0.4718640000000  0.4854340000000 1.0
C      1  0.5132090000000  0.4615230000000  0.5068340000000 1.0
C      1  0.5434340000000  0.5409210000000  0.5062600000000 1.0
C      1  0.5119350000000  0.4881350000000  0.4499160000000 1.0
C      1  0.4233280000000  0.4914420000000  0.4818100000000 1.0
C      1  0.4758380000000  0.4295370000000  0.5171740000000 1.0
C      1  0.4619100000000  0.5400080000000  0.4965550000000 1.0
C      1  0.5138880000000  0.4882460000000  0.4978230000000 1.0
C      1  0.5537060000000  0.4623860000000  0.4754860000000 1.0
C      1  0.5124380000000  0.5081030000000  0.5435640000000 1.0
C      1  0.5456540000000  0.4437320000000  0.4935320000000 1.0
C      1  0.4881860000000  0.4982310000000  0.4894220000000 1.0
C      1  0.5528600000000  0.5275070000000  0.5278030000000 1.0
C      1  0.4731640000000  0.4667840000000  0.4560500000000 1.0
C      1  0.5384590000000  0.4545910000000  0.5182200000000 1.0
END
