TITL C-69773-3920-4 21.1130771289658 125000 -793.614782468363 0 0 111 (C1) n - 1
REM
REM in /rds/project/t2_vol4/rds-t2-cs072/BORA/CARBON/from-Arr/AIRSS/Generating-Clusters/GAP-ML-2020/Higher-Symm/SD-CG/HFTN-CG
REM
REM
REM
REM
REM
REM ./C.cell (b20cbc046b6831c77cfcea5457e17084)
REM AIRSS Version 0.9.1 bugfix July 2018 build 013d7b7c2542+ Fri, 06 Jul 2018 19:26:36 +0100
REM compiler GCC version 9.3.0
REM options -cpp -mtune=generic -march=x86-64 -g -O0
REM seed 1986901542 257964787 2028171331 373785835 1461900055 1297902829 -2072598631 280099897 1035105856 -658296886 979991288 -985142471 323587628 810912958 -64127788 -1180082374 1697478752 -108417764 1076285572 1696933704 886575308 -992925693 -525929397 -1446999801 -1821168788 -1662268899 -1850565279 -1915831329 -593978509 1590210528 198081106 1662760958 -415383289
REM
CELL 1.54180   50.00000   50.00000   50.00000   90.00000   90.00000   90.00000
LATT -1
SFAC C  
C      1  0.4322860000000  0.5342020000000  0.5410290000000 1.0
C      1  0.4342640000000  0.4737360000000  0.5438500000000 1.0
C      1  0.4366650000000  0.4520530000000  0.4870370000000 1.0
C      1  0.4330090000000  0.5006500000000  0.4489270000000 1.0
C      1  0.4309350000000  0.5504340000000  0.4819740000000 1.0
C      1  0.4447020000000  0.4467030000000  0.5380090000000 1.0
C      1  0.4469230000000  0.4495300000000  0.4597860000000 1.0
C      1  0.4419550000000  0.5258370000000  0.4376320000000 1.0
C      1  0.4412780000000  0.5679700000000  0.5029530000000 1.0
C      1  0.4423880000000  0.5203510000000  0.5649160000000 1.0
C      1  0.5324140000000  0.5244060000000  0.4164910000000 1.0
C      1  0.5327850000000  0.5795330000000  0.4920810000000 1.0
C      1  0.5346530000000  0.5362450000000  0.5752600000000 1.0
C      1  0.5327300000000  0.4419120000000  0.5633510000000 1.0
C      1  0.5313080000000  0.4242170000000  0.4570250000000 1.0
C      1  0.5505720000000  0.5545230000000  0.5282940000000 1.0
C      1  0.5517080000000  0.4924870000000  0.5649430000000 1.0
C      1  0.5539220000000  0.4314370000000  0.5247870000000 1.0
C      1  0.5537460000000  0.4599340000000  0.4386900000000 1.0
C      1  0.5486960000000  0.5452400000000  0.4568560000000 1.0
C      1  0.4672430000000  0.4872180000000  0.4008890000000 1.0
C      1  0.4652090000000  0.5918700000000  0.4549940000000 1.0
C      1  0.4664810000000  0.5728450000000  0.5705260000000 1.0
C      1  0.4636250000000  0.4568030000000  0.5919610000000 1.0
C      1  0.4661680000000  0.4040820000000  0.4855960000000 1.0
C      1  0.5052860000000  0.5537630000000  0.5404550000000 1.0
C      1  0.5062100000000  0.4773760000000  0.5670260000000 1.0
C      1  0.5197150000000  0.4107290000000  0.4993710000000 1.0
C      1  0.5208580000000  0.4796590000000  0.4118820000000 1.0
C      1  0.5033070000000  0.5552640000000  0.4645250000000 1.0
C      1  0.4796780000000  0.4405680000000  0.5760840000000 1.0
C      1  0.4816430000000  0.4127620000000  0.4647220000000 1.0
C      1  0.4815390000000  0.5104620000000  0.4047850000000 1.0
C      1  0.4808470000000  0.5917830000000  0.4776570000000 1.0
C      1  0.4822640000000  0.5521410000000  0.5796760000000 1.0
C      1  0.5667450000000  0.5488630000000  0.5033470000000 1.0
C      1  0.5669220000000  0.5122280000000  0.5489530000000 1.0
C      1  0.5671530000000  0.4561870000000  0.5324010000000 1.0
C      1  0.5662130000000  0.4568170000000  0.4653620000000 1.0
C      1  0.5653170000000  0.5204090000000  0.4522110000000 1.0
C      1  0.4436560000000  0.4368740000000  0.5112410000000 1.0
C      1  0.4495030000000  0.4757180000000  0.4455010000000 1.0
C      1  0.4385170000000  0.5499080000000  0.4533180000000 1.0
C      1  0.4390890000000  0.5609680000000  0.5308750000000 1.0
C      1  0.4407040000000  0.4917800000000  0.5664620000000 1.0
C      1  0.5082210000000  0.5806320000000  0.4770050000000 1.0
C      1  0.5097660000000  0.5506470000000  0.5694080000000 1.0
C      1  0.5077570000000  0.4498300000000  0.5744860000000 1.0
C      1  0.5101410000000  0.4114040000000  0.4719430000000 1.0
C      1  0.5108920000000  0.5063060000000  0.4067620000000 1.0
C      1  0.4268620000000  0.4782160000000  0.4934060000000 1.0
C      1  0.4238190000000  0.5011780000000  0.4757630000000 1.0
C      1  0.4227120000000  0.5251050000000  0.4920810000000 1.0
C      1  0.4241310000000  0.5169490000000  0.5199140000000 1.0
C      1  0.4263080000000  0.4880050000000  0.5205620000000 1.0
C      1  0.5767420000000  0.4777800000000  0.4832400000000 1.0
C      1  0.5758880000000  0.5069660000000  0.4755480000000 1.0
C      1  0.5761910000000  0.5222750000000  0.5003210000000 1.0
C      1  0.5760870000000  0.5040480000000  0.5232020000000 1.0
C      1  0.5766350000000  0.4765850000000  0.5133920000000 1.0
C      1  0.4800960000000  0.5342490000000  0.5272330000000 1.0
C      1  0.4828770000000  0.4825370000000  0.5431720000000 1.0
C      1  0.4863670000000  0.4591430000000  0.4977980000000 1.0
C      1  0.4748160000000  0.4864050000000  0.4616300000000 1.0
C      1  0.4798020000000  0.5354570000000  0.4752690000000 1.0
C      1  0.5189330000000  0.4862900000000  0.4738700000000 1.0
C      1  0.5139670000000  0.5097830000000  0.4583400000000 1.0
C      1  0.5183880000000  0.5250790000000  0.5001470000000 1.0
C      1  0.5160860000000  0.5122680000000  0.5415740000000 1.0
C      1  0.5223250000000  0.4794470000000  0.5202980000000 1.0
C      1  0.5054830000000  0.5808740000000  0.5315460000000 1.0
C      1  0.5064200000000  0.4974010000000  0.5881520000000 1.0
C      1  0.5094590000000  0.4119520000000  0.5265420000000 1.0
C      1  0.5096170000000  0.4535420000000  0.4198330000000 1.0
C      1  0.5034480000000  0.5580400000000  0.4352210000000 1.0
C      1  0.4626990000000  0.4684620000000  0.4193590000000 1.0
C      1  0.4574110000000  0.5692210000000  0.4426850000000 1.0
C      1  0.4589970000000  0.5768760000000  0.5451330000000 1.0
C      1  0.4594760000000  0.4829010000000  0.5870390000000 1.0
C      1  0.4625660000000  0.4150550000000  0.5095900000000 1.0
C      1  0.4649430000000  0.5309250000000  0.4185450000000 1.0
C      1  0.4650790000000  0.5858200000000  0.5012700000000 1.0
C      1  0.4661080000000  0.5278160000000  0.5822210000000 1.0
C      1  0.4672710000000  0.4318550000000  0.5511700000000 1.0
C      1  0.4692870000000  0.4336670000000  0.4482220000000 1.0
C      1  0.4946450000000  0.4708890000000  0.4749320000000 1.0
C      1  0.4849720000000  0.5121140000000  0.4593260000000 1.0
C      1  0.4883620000000  0.5292850000000  0.5011880000000 1.0
C      1  0.4882400000000  0.5100490000000  0.5388010000000 1.0
C      1  0.4954170000000  0.4698260000000  0.5206340000000 1.0
C      1  0.5262990000000  0.5360370000000  0.5269270000000 1.0
C      1  0.5279810000000  0.4870380000000  0.5480150000000 1.0
C      1  0.5461830000000  0.4222060000000  0.4994490000000 1.0
C      1  0.5478870000000  0.4822000000000  0.4223590000000 1.0
C      1  0.5245030000000  0.5349320000000  0.4711960000000 1.0
C      1  0.4813240000000  0.4474480000000  0.4255400000000 1.0
C      1  0.4767420000000  0.5559550000000  0.4252140000000 1.0
C      1  0.4780580000000  0.5878080000000  0.5262470000000 1.0
C      1  0.4790410000000  0.5044650000000  0.5922350000000 1.0
C      1  0.4808040000000  0.4151550000000  0.5320360000000 1.0
C      1  0.5321890000000  0.4235000000000  0.5418030000000 1.0
C      1  0.5314470000000  0.4417480000000  0.4347190000000 1.0
C      1  0.5299330000000  0.5485810000000  0.4302970000000 1.0
C      1  0.5322330000000  0.5789980000000  0.5202230000000 1.0
C      1  0.5329950000000  0.5094790000000  0.5849560000000 1.0
C      1  0.5548560000000  0.5382130000000  0.5532390000000 1.0
C      1  0.5547870000000  0.4630640000000  0.5582730000000 1.0
C      1  0.5528370000000  0.4326640000000  0.4742240000000 1.0
C      1  0.5540970000000  0.5092560000000  0.4280170000000 1.0
C      1  0.5535630000000  0.5618850000000  0.4813840000000 1.0
C      1  0.5255470000000  0.4970560000000  0.4991180000000 1.0
END
