TITL C-69483-9070-1 -12.6740116099636 125000 -358.847032566089 0 0 55 (Cs) n - 1
REM
REM in /rds/project/t2_vol4/rds-t2-cs072/BORA/CARBON/from-Arr/AIRSS/Generating-Clusters/GAP-ML-2020/Higher-Symm/SD-CG/HFTN-CG
REM
REM
REM
REM
REM
REM ./C.cell (b20cbc046b6831c77cfcea5457e17084)
REM AIRSS Version 0.9.1 bugfix July 2018 build 013d7b7c2542+ Fri, 06 Jul 2018 19:26:36 +0100
REM compiler GCC version 9.3.0
REM options -cpp -mtune=generic -march=x86-64 -g -O0
REM seed -69262751 802399186 -2040388022 -59664830 1019565 1439205707 -804403775 -1356880759 -1372550154 -1101562861 -764529713 -1768213436 -2029024322 -2019980311 2141393761 1316087062 -453978230 1268493850 806639340 -1640762997 -994833477 283227904 -378661052 1940056664 -503298460 931925768 1353044180 -87898582 1464917051 85102211 -1979802263 -846461114 1479660277
REM
CELL 1.54180   50.00000   50.00000   50.00000   90.00000   90.00000   90.00000
LATT -1
SFAC C  
C      1  0.4628490000000  0.4998970000000  0.5609640000000 1.0
C      1  0.4856800000000  0.5439440000000  0.5475820000000 1.0
C      1  0.5336950000000  0.5233520000000  0.5468700000000 1.0
C      1  0.5331930000000  0.4764480000000  0.5472640000000 1.0
C      1  0.4860670000000  0.4553120000000  0.5470780000000 1.0
C      1  0.5372800000000  0.4999160000000  0.5608860000000 1.0
C      1  0.5143990000000  0.5439510000000  0.5475520000000 1.0
C      1  0.4663930000000  0.5233360000000  0.5469400000000 1.0
C      1  0.4669200000000  0.4764320000000  0.5473340000000 1.0
C      1  0.5140550000000  0.4553190000000  0.5470480000000 1.0
C      1  0.5375070000000  0.4733340000000  0.4573410000000 1.0
C      1  0.4862490000000  0.4553320000000  0.4576470000000 1.0
C      1  0.4540870000000  0.4989380000000  0.4531200000000 1.0
C      1  0.4851250000000  0.5435220000000  0.4591150000000 1.0
C      1  0.5362570000000  0.5268880000000  0.4573400000000 1.0
C      1  0.4624180000000  0.4733150000000  0.4574200000000 1.0
C      1  0.5136850000000  0.4553390000000  0.4576180000000 1.0
C      1  0.5458160000000  0.4989610000000  0.4530240000000 1.0
C      1  0.5147690000000  0.5435300000000  0.4590840000000 1.0
C      1  0.4636420000000  0.5268700000000  0.4574160000000 1.0
C      1  0.4628580000000  0.4745170000000  0.5169340000000 1.0
C      1  0.4624610000000  0.5254160000000  0.5164550000000 1.0
C      1  0.5145380000000  0.5477100000000  0.5165420000000 1.0
C      1  0.5426680000000  0.5004630000000  0.5046780000000 1.0
C      1  0.5151160000000  0.4540270000000  0.5156050000000 1.0
C      1  0.5371920000000  0.4745350000000  0.5168560000000 1.0
C      1  0.5375620000000  0.5254350000000  0.5163760000000 1.0
C      1  0.4854740000000  0.5477030000000  0.5165720000000 1.0
C      1  0.4573430000000  0.5004420000000  0.5047670000000 1.0
C      1  0.4849410000000  0.4540200000000  0.5156370000000 1.0
C      1  0.5295300000000  0.4358740000000  0.4744200000000 1.0
C      1  0.4485250000000  0.4536290000000  0.4756440000000 1.0
C      1  0.4399830000000  0.5327650000000  0.4740380000000 1.0
C      1  0.5145430000000  0.5692200000000  0.4748770000000 1.0
C      1  0.5715240000000  0.5077380000000  0.4680940000000 1.0
C      1  0.4704490000000  0.4358600000000  0.4744820000000 1.0
C      1  0.5514480000000  0.4536550000000  0.4755360000000 1.0
C      1  0.5599470000000  0.5327950000000  0.4739120000000 1.0
C      1  0.4853710000000  0.5692130000000  0.4749080000000 1.0
C      1  0.4284060000000  0.5077030000000  0.4682440000000 1.0
C      1  0.5274230000000  0.5697290000000  0.5007390000000 1.0
C      1  0.5717530000000  0.4982530000000  0.4939530000000 1.0
C      1  0.5201210000000  0.4281610000000  0.5003830000000 1.0
C      1  0.4383810000000  0.4609490000000  0.5018410000000 1.0
C      1  0.4419330000000  0.5429630000000  0.5010350000000 1.0
C      1  0.4725460000000  0.5697150000000  0.5007960000000 1.0
C      1  0.4282360000000  0.4982170000000  0.4941040000000 1.0
C      1  0.4799160000000  0.4281510000000  0.5004250000000 1.0
C      1  0.5616430000000  0.4609800000000  0.5017110000000 1.0
C      1  0.5580490000000  0.5429920000000  0.5009130000000 1.0
C      1  0.4163020000000  0.4768030000000  0.5052880000000 1.0
C      1  0.5837220000000  0.4768450000000  0.5051120000000 1.0
C      1  0.5000300000000  0.4105960000000  0.5066420000000 1.0
C      1  0.4450720000000  0.5694810000000  0.5066580000000 1.0
C      1  0.5549080000000  0.5695090000000  0.5065430000000 1.0
END
