TITL C-69476-8958-11 0.162118407024769 125000 -681.544674577183 0 0 95 (C1) n - 1
REM
REM in /rds/project/t2_vol4/rds-t2-cs072/BORA/CARBON/from-Arr/AIRSS/Generating-Clusters/GAP-ML-2020/Higher-Symm/SD-CG/HFTN-CG
REM
REM
REM
REM
REM
REM ./C.cell (b20cbc046b6831c77cfcea5457e17084)
REM AIRSS Version 0.9.1 bugfix July 2018 build 013d7b7c2542+ Fri, 06 Jul 2018 19:26:36 +0100
REM compiler GCC version 9.3.0
REM options -cpp -mtune=generic -march=x86-64 -g -O0
REM seed -1367668314 -1232420838 -1889841853 1807293912 902812131 -364330708 -1449344309 721266140 314875721 -1560668397 -651330492 -1932366391 -20450211 -754386708 -939269362 -861175256 -1394713669 1402456781 2023614863 521493797 -1588366951 -1058781345 -1341775651 -141068684 -886472525 216310825 -1302264052 -1944736449 -1726879205 464298648 1084240287 -1515403361 1495004109
REM
CELL 1.54180   50.00000   50.00000   50.00000   90.00000   90.00000   90.00000
LATT -1
SFAC C  
C      1  0.4390450000000  0.5431070000000  0.5464490000000 1.0
C      1  0.5624940000000  0.4577010000000  0.5362880000000 1.0
C      1  0.4421760000000  0.5293530000000  0.4982430000000 1.0
C      1  0.5547070000000  0.4717810000000  0.4868530000000 1.0
C      1  0.4969500000000  0.4092830000000  0.4954340000000 1.0
C      1  0.4985330000000  0.5899120000000  0.4980090000000 1.0
C      1  0.5131090000000  0.4447400000000  0.4795290000000 1.0
C      1  0.4705400000000  0.5640900000000  0.4709950000000 1.0
C      1  0.4898240000000  0.5299870000000  0.5042040000000 1.0
C      1  0.5087730000000  0.4757020000000  0.5141250000000 1.0
C      1  0.5551910000000  0.5581520000000  0.4663460000000 1.0
C      1  0.4474500000000  0.4430450000000  0.4568310000000 1.0
C      1  0.5486430000000  0.4825200000000  0.5726710000000 1.0
C      1  0.4568520000000  0.5177710000000  0.5805890000000 1.0
C      1  0.5547870000000  0.5195260000000  0.4404830000000 1.0
C      1  0.4525970000000  0.4750510000000  0.4296020000000 1.0
C      1  0.4395800000000  0.5661780000000  0.4263620000000 1.0
C      1  0.5507390000000  0.4348710000000  0.4530380000000 1.0
C      1  0.4994800000000  0.5317540000000  0.4231940000000 1.0
C      1  0.5084600000000  0.4651200000000  0.4258360000000 1.0
C      1  0.4730140000000  0.5408440000000  0.5789410000000 1.0
C      1  0.5322680000000  0.4595810000000  0.5724590000000 1.0
C      1  0.4748760000000  0.5178340000000  0.4595580000000 1.0
C      1  0.5167280000000  0.4910420000000  0.4683960000000 1.0
C      1  0.4406160000000  0.5495690000000  0.5185130000000 1.0
C      1  0.5592760000000  0.4505520000000  0.5088640000000 1.0
C      1  0.4793180000000  0.4784230000000  0.5108160000000 1.0
C      1  0.5189120000000  0.5254530000000  0.5036890000000 1.0
C      1  0.5144700000000  0.5094750000000  0.4144980000000 1.0
C      1  0.4963950000000  0.4869380000000  0.4126160000000 1.0
C      1  0.4600120000000  0.4338510000000  0.5077720000000 1.0
C      1  0.5389320000000  0.5715520000000  0.5098490000000 1.0
C      1  0.4581960000000  0.5731800000000  0.5174680000000 1.0
C      1  0.5411690000000  0.4265450000000  0.5107970000000 1.0
C      1  0.4510210000000  0.5421420000000  0.4307530000000 1.0
C      1  0.5526360000000  0.4616170000000  0.4572370000000 1.0
C      1  0.5232030000000  0.4703110000000  0.4890360000000 1.0
C      1  0.4689330000000  0.5348290000000  0.4819560000000 1.0
C      1  0.5270950000000  0.4227890000000  0.4613110000000 1.0
C      1  0.4489810000000  0.5631440000000  0.4516320000000 1.0
C      1  0.5119350000000  0.5119230000000  0.5846870000000 1.0
C      1  0.4951880000000  0.4880050000000  0.5851420000000 1.0
C      1  0.5391570000000  0.5012130000000  0.4265580000000 1.0
C      1  0.4690640000000  0.4946090000000  0.4177890000000 1.0
C      1  0.4880570000000  0.4450880000000  0.5591200000000 1.0
C      1  0.5151490000000  0.5553260000000  0.5598410000000 1.0
C      1  0.4599500000000  0.5575050000000  0.5599950000000 1.0
C      1  0.5431990000000  0.4430760000000  0.5524070000000 1.0
C      1  0.5395610000000  0.5082540000000  0.5791700000000 1.0
C      1  0.4671700000000  0.4918890000000  0.5838490000000 1.0
C      1  0.5114710000000  0.5496800000000  0.4411740000000 1.0
C      1  0.4913790000000  0.4436660000000  0.4327030000000 1.0
C      1  0.5014680000000  0.5745870000000  0.5435990000000 1.0
C      1  0.4991370000000  0.4269250000000  0.5401930000000 1.0
C      1  0.5431270000000  0.5433520000000  0.5187780000000 1.0
C      1  0.4542820000000  0.4584620000000  0.5236080000000 1.0
C      1  0.4819700000000  0.4142990000000  0.4716930000000 1.0
C      1  0.5137640000000  0.5833520000000  0.4746020000000 1.0
C      1  0.4512120000000  0.4752180000000  0.5669470000000 1.0
C      1  0.5530990000000  0.5252590000000  0.5604450000000 1.0
C      1  0.4996410000000  0.4236430000000  0.4509770000000 1.0
C      1  0.4977610000000  0.5684160000000  0.4570500000000 1.0
C      1  0.5310770000000  0.4774260000000  0.4423600000000 1.0
C      1  0.4715630000000  0.5223000000000  0.4300620000000 1.0
C      1  0.4831410000000  0.4195040000000  0.5178410000000 1.0
C      1  0.5147630000000  0.5835750000000  0.5204190000000 1.0
C      1  0.4714360000000  0.5823690000000  0.4946790000000 1.0
C      1  0.5241960000000  0.4168100000000  0.4904750000000 1.0
C      1  0.5042430000000  0.4624110000000  0.5756800000000 1.0
C      1  0.5012810000000  0.5376470000000  0.5780190000000 1.0
C      1  0.4633880000000  0.4485400000000  0.4330640000000 1.0
C      1  0.5364900000000  0.5389950000000  0.4536360000000 1.0
C      1  0.5769030000000  0.5428770000000  0.4730470000000 1.0
C      1  0.4365450000000  0.4710540000000  0.4545740000000 1.0
C      1  0.5600970000000  0.5042080000000  0.4876620000000 1.0
C      1  0.4332750000000  0.5014020000000  0.5001060000000 1.0
C      1  0.5281040000000  0.4258500000000  0.5365250000000 1.0
C      1  0.4728880000000  0.5746260000000  0.5423210000000 1.0
C      1  0.5735790000000  0.5167440000000  0.4636920000000 1.0
C      1  0.4421100000000  0.4852300000000  0.4782860000000 1.0
C      1  0.4713400000000  0.4806910000000  0.4836040000000 1.0
C      1  0.5313650000000  0.5159200000000  0.4785540000000 1.0
C      1  0.5394560000000  0.5459030000000  0.5485940000000 1.0
C      1  0.4618830000000  0.4541840000000  0.5525480000000 1.0
C      1  0.5403610000000  0.5766180000000  0.4818370000000 1.0
C      1  0.4578430000000  0.4277880000000  0.4786600000000 1.0
C      1  0.4336650000000  0.4824300000000  0.5234450000000 1.0
C      1  0.5642470000000  0.5209220000000  0.5143520000000 1.0
C      1  0.5123830000000  0.5012440000000  0.5262020000000 1.0
C      1  0.4847850000000  0.5087820000000  0.5242080000000 1.0
C      1  0.4366120000000  0.5181840000000  0.5600830000000 1.0
C      1  0.5660620000000  0.4826640000000  0.5496340000000 1.0
C      1  0.4340270000000  0.4914550000000  0.5502130000000 1.0
C      1  0.5675710000000  0.5097950000000  0.5404160000000 1.0
C      1  0.4883320000000  0.4944370000000  0.4667530000000 1.0
END
