TITL C-69779-1866-1 -0.204286382832315 125000 -980.03614039056 0 0 137 (C1) n - 1
REM
REM in /rds/project/t2_vol4/rds-t2-cs072/BORA/CARBON/from-Arr/AIRSS/Generating-Clusters/GAP-ML-2020/Higher-Symm/SD-CG/HFTN-CG
REM
REM
REM
REM
REM
REM ./C.cell (b20cbc046b6831c77cfcea5457e17084)
REM AIRSS Version 0.9.1 bugfix July 2018 build 013d7b7c2542+ Fri, 06 Jul 2018 19:26:36 +0100
REM compiler GCC version 9.3.0
REM options -cpp -mtune=generic -march=x86-64 -g -O0
REM seed -1263168484 -990986247 982731796 159473870 1430975719 -892260416 1820048600 1298370017 -929551663 -1923090276 -12223470 1549364395 631796657 1178462353 1942226408 1554148666 -1653417693 823775940 1107368550 669048331 893001074 47888189 754814823 -1649359071 602675882 -1135018986 -1572296374 406785612 127283300 217740080 1892559381 740835746 -417498072
REM
CELL 1.54180   50.00000   50.00000   50.00000   90.00000   90.00000   90.00000
LATT -1
SFAC C  
C      1  0.5494030000000  0.4721070000000  0.4992020000000 1.0
C      1  0.5188160000000  0.4891650000000  0.5301700000000 1.0
C      1  0.4625110000000  0.4743890000000  0.5371250000000 1.0
C      1  0.4619890000000  0.4776980000000  0.4914660000000 1.0
C      1  0.5002540000000  0.4854640000000  0.4678340000000 1.0
C      1  0.5321650000000  0.5130020000000  0.4907960000000 1.0
C      1  0.5162340000000  0.5295940000000  0.5448790000000 1.0
C      1  0.4770330000000  0.5128360000000  0.5248900000000 1.0
C      1  0.4615880000000  0.5178600000000  0.4684740000000 1.0
C      1  0.5134340000000  0.5276880000000  0.4511140000000 1.0
C      1  0.4170940000000  0.4453610000000  0.5204990000000 1.0
C      1  0.4560530000000  0.4483690000000  0.4303850000000 1.0
C      1  0.5520600000000  0.4503030000000  0.4380390000000 1.0
C      1  0.5772950000000  0.4448660000000  0.5326700000000 1.0
C      1  0.4933610000000  0.4478900000000  0.5807750000000 1.0
C      1  0.4218440000000  0.5505320000000  0.5184640000000 1.0
C      1  0.4564810000000  0.5539550000000  0.4275040000000 1.0
C      1  0.5545560000000  0.5552580000000  0.4370920000000 1.0
C      1  0.5753840000000  0.5502230000000  0.5311890000000 1.0
C      1  0.4929450000000  0.5539990000000  0.5833330000000 1.0
C      1  0.4887410000000  0.5156690000000  0.4098480000000 1.0
C      1  0.5826870000000  0.5158240000000  0.4620420000000 1.0
C      1  0.5608570000000  0.5133600000000  0.5653420000000 1.0
C      1  0.4550460000000  0.5152050000000  0.5796270000000 1.0
C      1  0.4127360000000  0.5132280000000  0.4821550000000 1.0
C      1  0.4887120000000  0.4861680000000  0.4098240000000 1.0
C      1  0.5805240000000  0.4864300000000  0.4623390000000 1.0
C      1  0.5618060000000  0.4836110000000  0.5670610000000 1.0
C      1  0.4559410000000  0.4855110000000  0.5797320000000 1.0
C      1  0.4095280000000  0.4839980000000  0.4815460000000 1.0
C      1  0.4377080000000  0.5741060000000  0.5112310000000 1.0
C      1  0.4687480000000  0.5772330000000  0.4403730000000 1.0
C      1  0.5449910000000  0.5782510000000  0.4524570000000 1.0
C      1  0.5583900000000  0.5738570000000  0.5284660000000 1.0
C      1  0.4918560000000  0.5772210000000  0.5657270000000 1.0
C      1  0.4332800000000  0.4220230000000  0.5131590000000 1.0
C      1  0.4680440000000  0.4260650000000  0.4449850000000 1.0
C      1  0.5440560000000  0.4271360000000  0.4538780000000 1.0
C      1  0.5600730000000  0.4216020000000  0.5286080000000 1.0
C      1  0.4913210000000  0.4230460000000  0.5651460000000 1.0
C      1  0.5346680000000  0.5836210000000  0.5405950000000 1.0
C      1  0.4741610000000  0.5869640000000  0.5455030000000 1.0
C      1  0.4494980000000  0.5860320000000  0.4878200000000 1.0
C      1  0.4954420000000  0.5858460000000  0.4462940000000 1.0
C      1  0.5471740000000  0.5869140000000  0.4797770000000 1.0
C      1  0.5355630000000  0.4114400000000  0.5399170000000 1.0
C      1  0.4721380000000  0.4119820000000  0.5459210000000 1.0
C      1  0.4476190000000  0.4157140000000  0.4894490000000 1.0
C      1  0.4941470000000  0.4156660000000  0.4506620000000 1.0
C      1  0.5487860000000  0.4164660000000  0.4797660000000 1.0
C      1  0.5363790000000  0.4883620000000  0.4041640000000 1.0
C      1  0.5998030000000  0.4839840000000  0.5059920000000 1.0
C      1  0.5261490000000  0.4866200000000  0.5979170000000 1.0
C      1  0.4139470000000  0.4845550000000  0.5550130000000 1.0
C      1  0.4192050000000  0.4864370000000  0.4340840000000 1.0
C      1  0.5365680000000  0.5167160000000  0.4060580000000 1.0
C      1  0.6023170000000  0.5123210000000  0.5055220000000 1.0
C      1  0.5248770000000  0.5148840000000  0.5955310000000 1.0
C      1  0.4136430000000  0.5129820000000  0.5553100000000 1.0
C      1  0.4216720000000  0.5147750000000  0.4346170000000 1.0
C      1  0.5794700000000  0.4714140000000  0.4893640000000 1.0
C      1  0.5408070000000  0.4697000000000  0.5818680000000 1.0
C      1  0.4388870000000  0.4710100000000  0.5592830000000 1.0
C      1  0.4164250000000  0.4704700000000  0.4564590000000 1.0
C      1  0.5144270000000  0.4724590000000  0.4098020000000 1.0
C      1  0.5907350000000  0.5288630000000  0.4866130000000 1.0
C      1  0.5347440000000  0.5283160000000  0.5717850000000 1.0
C      1  0.4346580000000  0.5286470000000  0.5639720000000 1.0
C      1  0.4302340000000  0.5253500000000  0.4603190000000 1.0
C      1  0.5144420000000  0.5297660000000  0.4195980000000 1.0
C      1  0.4789230000000  0.4710650000000  0.5899730000000 1.0
C      1  0.4059910000000  0.4688860000000  0.5071810000000 1.0
C      1  0.4637800000000  0.4716600000000  0.4149410000000 1.0
C      1  0.5688170000000  0.4732290000000  0.4398680000000 1.0
C      1  0.5795680000000  0.4687850000000  0.5491740000000 1.0
C      1  0.4775950000000  0.5303770000000  0.5906470000000 1.0
C      1  0.4093500000000  0.5273060000000  0.5070840000000 1.0
C      1  0.4638340000000  0.5301400000000  0.4126110000000 1.0
C      1  0.5707370000000  0.5311480000000  0.4399680000000 1.0
C      1  0.5786930000000  0.5270070000000  0.5475370000000 1.0
C      1  0.4775230000000  0.5921240000000  0.4926650000000 1.0
C      1  0.4985560000000  0.5790070000000  0.4749580000000 1.0
C      1  0.5208200000000  0.5916410000000  0.4915100000000 1.0
C      1  0.5150710000000  0.5787790000000  0.5193520000000 1.0
C      1  0.4893510000000  0.5942270000000  0.5216390000000 1.0
C      1  0.4756630000000  0.4209590000000  0.4960710000000 1.0
C      1  0.4978030000000  0.4097080000000  0.4789350000000 1.0
C      1  0.5231550000000  0.4214780000000  0.4930690000000 1.0
C      1  0.5174220000000  0.4052520000000  0.5177430000000 1.0
C      1  0.4856280000000  0.4060700000000  0.5206200000000 1.0
C      1  0.4011560000000  0.5127990000000  0.5293960000000 1.0
C      1  0.4407280000000  0.5148230000000  0.4130160000000 1.0
C      1  0.5629240000000  0.5165590000000  0.4176520000000 1.0
C      1  0.5980660000000  0.5121970000000  0.5340460000000 1.0
C      1  0.4970280000000  0.5148310000000  0.6029890000000 1.0
C      1  0.4002600000000  0.4843520000000  0.5295030000000 1.0
C      1  0.4401700000000  0.4864920000000  0.4139240000000 1.0
C      1  0.5620750000000  0.4881960000000  0.4173830000000 1.0
C      1  0.5979410000000  0.4838090000000  0.5347270000000 1.0
C      1  0.4979160000000  0.4864500000000  0.6031650000000 1.0
C      1  0.5809100000000  0.5510120000000  0.5021120000000 1.0
C      1  0.5230410000000  0.5550900000000  0.5814070000000 1.0
C      1  0.4339060000000  0.5509220000000  0.5456420000000 1.0
C      1  0.4358140000000  0.5535040000000  0.4487140000000 1.0
C      1  0.5294320000000  0.5568020000000  0.4207050000000 1.0
C      1  0.5842570000000  0.4441940000000  0.5033620000000 1.0
C      1  0.5228780000000  0.4473220000000  0.5780030000000 1.0
C      1  0.4300400000000  0.4443400000000  0.5474830000000 1.0
C      1  0.4327330000000  0.4477250000000  0.4490790000000 1.0
C      1  0.5258780000000  0.4500430000000  0.4240450000000 1.0
C      1  0.5213030000000  0.5784990000000  0.5646590000000 1.0
C      1  0.4493680000000  0.5746910000000  0.5381720000000 1.0
C      1  0.4470180000000  0.5771800000000  0.4608010000000 1.0
C      1  0.5208600000000  0.5801260000000  0.4355420000000 1.0
C      1  0.5642240000000  0.5749930000000  0.4996520000000 1.0
C      1  0.5206410000000  0.4226640000000  0.5619700000000 1.0
C      1  0.4455580000000  0.4209580000000  0.5400120000000 1.0
C      1  0.4449110000000  0.4248810000000  0.4628170000000 1.0
C      1  0.5182150000000  0.4267120000000  0.4399420000000 1.0
C      1  0.5679760000000  0.4207240000000  0.4998800000000 1.0
C      1  0.4825350000000  0.5360750000000  0.5112870000000 1.0
C      1  0.4779910000000  0.5353200000000  0.4837740000000 1.0
C      1  0.5035410000000  0.5459830000000  0.4729760000000 1.0
C      1  0.5216120000000  0.5381270000000  0.4956480000000 1.0
C      1  0.5096180000000  0.5468210000000  0.5205710000000 1.0
C      1  0.4831230000000  0.4574580000000  0.5261010000000 1.0
C      1  0.4788460000000  0.4534700000000  0.4967210000000 1.0
C      1  0.5035860000000  0.4618540000000  0.4823500000000 1.0
C      1  0.5252560000000  0.4539380000000  0.4996040000000 1.0
C      1  0.5105700000000  0.4636710000000  0.5241550000000 1.0
C      1  0.5209310000000  0.5040890000000  0.4652110000000 1.0
C      1  0.5007020000000  0.5066610000000  0.5411050000000 1.0
C      1  0.4592450000000  0.4931680000000  0.5164830000000 1.0
C      1  0.4721530000000  0.4924370000000  0.4698380000000 1.0
C      1  0.5401270000000  0.4960440000000  0.5109490000000 1.0
C      1  0.4996610000000  0.3890960000000  0.5016520000000 1.0
C      1  0.4990400000000  0.6110110000000  0.5003810000000 1.0
END
