TITL C-69477-8758-1 0.210205311977593 125000 -578.33692751229 0 0 82 (C2) n - 1
REM
REM in /rds/project/t2_vol4/rds-t2-cs072/BORA/CARBON/from-Arr/AIRSS/Generating-Clusters/GAP-ML-2020/Higher-Symm/SD-CG/HFTN-CG
REM
REM
REM
REM
REM
REM ./C.cell (b20cbc046b6831c77cfcea5457e17084)
REM AIRSS Version 0.9.1 bugfix July 2018 build 013d7b7c2542+ Fri, 06 Jul 2018 19:26:36 +0100
REM compiler GCC version 9.3.0
REM options -cpp -mtune=generic -march=x86-64 -g -O0
REM seed 1524225778 1158966804 1450253998 1201620441 -2120801738 982427782 343613734 -1648802515 -1886913827 1425557810 2075489451 -571510826 -1491222924 1703507858 416796137 2034956969 -848175548 1636756692 1332556708 -997784544 -261923231 -6510746 21240541 395274808 -1116729360 -796536111 1802352740 -1827468505 1540523090 -1067824993 -865456048 -1291044376 -468131225
REM
CELL 1.54180   50.00000   50.00000   50.00000   90.00000   90.00000   90.00000
LATT -1
SFAC C  
C      1  0.4537940000000  0.4785260000000  0.5368400000000 1.0
C      1  0.4584160000000  0.5212280000000  0.4578880000000 1.0
C      1  0.4759330000000  0.5395750000000  0.5653640000000 1.0
C      1  0.4841490000000  0.4603140000000  0.4322390000000 1.0
C      1  0.5287580000000  0.4535810000000  0.5408250000000 1.0
C      1  0.5331780000000  0.5465920000000  0.4628950000000 1.0
C      1  0.5297060000000  0.4968480000000  0.5154300000000 1.0
C      1  0.5313210000000  0.5033230000000  0.4882350000000 1.0
C      1  0.4930120000000  0.5150020000000  0.5188000000000 1.0
C      1  0.4953960000000  0.4849650000000  0.4805040000000 1.0
C      1  0.4751840000000  0.4684710000000  0.5782820000000 1.0
C      1  0.4845560000000  0.5314160000000  0.4193000000000 1.0
C      1  0.4176310000000  0.5169120000000  0.4842390000000 1.0
C      1  0.4164320000000  0.4826250000000  0.5057960000000 1.0
C      1  0.5217930000000  0.4815580000000  0.4731230000000 1.0
C      1  0.5183160000000  0.5185540000000  0.5292860000000 1.0
C      1  0.4480130000000  0.5526220000000  0.4954920000000 1.0
C      1  0.4481410000000  0.4470880000000  0.4982720000000 1.0
C      1  0.5551430000000  0.5126100000000  0.5601170000000 1.0
C      1  0.5620110000000  0.4877180000000  0.4469180000000 1.0
C      1  0.4463770000000  0.5471130000000  0.5244750000000 1.0
C      1  0.4499540000000  0.4525970000000  0.4692990000000 1.0
C      1  0.4868460000000  0.5799800000000  0.5044090000000 1.0
C      1  0.4879140000000  0.4199500000000  0.4940750000000 1.0
C      1  0.4178110000000  0.4884980000000  0.4773470000000 1.0
C      1  0.4156280000000  0.5110370000000  0.5126500000000 1.0
C      1  0.4869680000000  0.5728260000000  0.5324890000000 1.0
C      1  0.4913560000000  0.4271130000000  0.4662090000000 1.0
C      1  0.5129390000000  0.4637780000000  0.4280110000000 1.0
C      1  0.5040280000000  0.5362690000000  0.5730080000000 1.0
C      1  0.4634980000000  0.5142850000000  0.5685930000000 1.0
C      1  0.4720500000000  0.4855350000000  0.4275360000000 1.0
C      1  0.5431260000000  0.5042250000000  0.4323580000000 1.0
C      1  0.5347430000000  0.4959920000000  0.5723190000000 1.0
C      1  0.4946870000000  0.4739070000000  0.5068310000000 1.0
C      1  0.4953970000000  0.5260650000000  0.4925740000000 1.0
C      1  0.4923630000000  0.5047780000000  0.4192870000000 1.0
C      1  0.4827850000000  0.4951530000000  0.5792210000000 1.0
C      1  0.5781970000000  0.5117000000000  0.4941290000000 1.0
C      1  0.5769970000000  0.4887330000000  0.5151920000000 1.0
C      1  0.5354140000000  0.4571070000000  0.4913570000000 1.0
C      1  0.5338860000000  0.5430870000000  0.5128050000000 1.0
C      1  0.5094590000000  0.4326860000000  0.5346640000000 1.0
C      1  0.5131650000000  0.5673780000000  0.4666950000000 1.0
C      1  0.4369400000000  0.4768890000000  0.4606570000000 1.0
C      1  0.4325570000000  0.5227470000000  0.5315050000000 1.0
C      1  0.5752600000000  0.4668610000000  0.4998640000000 1.0
C      1  0.5745170000000  0.5335580000000  0.5091320000000 1.0
C      1  0.5122960000000  0.4207810000000  0.5083320000000 1.0
C      1  0.5127630000000  0.5792890000000  0.4931730000000 1.0
C      1  0.5092010000000  0.5084610000000  0.5796790000000 1.0
C      1  0.5187180000000  0.4916170000000  0.4219980000000 1.0
C      1  0.5441460000000  0.4724180000000  0.5560520000000 1.0
C      1  0.5503820000000  0.5278460000000  0.4496250000000 1.0
C      1  0.5316270000000  0.4483930000000  0.4428300000000 1.0
C      1  0.5242700000000  0.5517630000000  0.5605270000000 1.0
C      1  0.5502890000000  0.5397430000000  0.5546910000000 1.0
C      1  0.5566930000000  0.4605560000000  0.4517340000000 1.0
C      1  0.5303460000000  0.4292830000000  0.4877260000000 1.0
C      1  0.5282640000000  0.5708810000000  0.5157940000000 1.0
C      1  0.4724200000000  0.4437060000000  0.4530950000000 1.0
C      1  0.4666910000000  0.5561240000000  0.5432480000000 1.0
C      1  0.4689650000000  0.5688000000000  0.4850030000000 1.0
C      1  0.4677770000000  0.4310230000000  0.5111980000000 1.0
C      1  0.4678690000000  0.4573800000000  0.5543800000000 1.0
C      1  0.4743710000000  0.5424590000000  0.4421510000000 1.0
C      1  0.5193070000000  0.4299220000000  0.4612000000000 1.0
C      1  0.5141350000000  0.5701710000000  0.5408080000000 1.0
C      1  0.5234050000000  0.4688060000000  0.5162450000000 1.0
C      1  0.5250070000000  0.5313300000000  0.4866630000000 1.0
C      1  0.4388670000000  0.5330880000000  0.4767190000000 1.0
C      1  0.4367050000000  0.4665650000000  0.5158090000000 1.0
C      1  0.4510330000000  0.4949540000000  0.4438660000000 1.0
C      1  0.4446390000000  0.5047550000000  0.5498690000000 1.0
C      1  0.4798480000000  0.4904350000000  0.5232430000000 1.0
C      1  0.4827220000000  0.5094600000000  0.4745090000000 1.0
C      1  0.4804410000000  0.4373440000000  0.5373730000000 1.0
C      1  0.4847060000000  0.5625590000000  0.4605340000000 1.0
C      1  0.5588630000000  0.5442710000000  0.5272130000000 1.0
C      1  0.5619420000000  0.4560670000000  0.4800420000000 1.0
C      1  0.5654510000000  0.4904840000000  0.5432230000000 1.0
C      1  0.5700990000000  0.5098940000000  0.4649180000000 1.0
END
