TITL C-69476-8958-1 -0.115387375531539 125000 -563.096993973143 0 0 83 (C1) n - 1
REM
REM in /rds/project/t2_vol4/rds-t2-cs072/BORA/CARBON/from-Arr/AIRSS/Generating-Clusters/GAP-ML-2020/Higher-Symm/SD-CG/HFTN-CG
REM
REM
REM
REM
REM
REM ./C.cell (b20cbc046b6831c77cfcea5457e17084)
REM AIRSS Version 0.9.1 bugfix July 2018 build 013d7b7c2542+ Fri, 06 Jul 2018 19:26:36 +0100
REM compiler GCC version 9.3.0
REM options -cpp -mtune=generic -march=x86-64 -g -O0
REM seed 414110985 -1360745245 -883899473 -1572099262 -1448027136 -888113486 -302539088 761816311 1998561540 -568021665 117767803 2054314965 392935951 -816564895 -870371738 -1085215807 -992055316 1126873892 -1071635172 1891218176 -1820043637 -1635866063 845924487 -1822082465 576179205 -123177544 -779466725 -526448726 -793030585 530640969 -1995433600 1804281473 951564038
REM
CELL 1.54180   50.00000   50.00000   50.00000   90.00000   90.00000   90.00000
LATT -1
SFAC C  
C      1  0.5550090000000  0.4514430000000  0.4698720000000 1.0
C      1  0.4905830000000  0.4517490000000  0.4364100000000 1.0
C      1  0.4460160000000  0.4516710000000  0.4920840000000 1.0
C      1  0.4722770000000  0.4502600000000  0.5535770000000 1.0
C      1  0.5396070000000  0.4559740000000  0.5399780000000 1.0
C      1  0.4652390000000  0.5247630000000  0.5365390000000 1.0
C      1  0.5099420000000  0.5285480000000  0.5254070000000 1.0
C      1  0.5265840000000  0.5259950000000  0.5008650000000 1.0
C      1  0.5083910000000  0.5215410000000  0.4768790000000 1.0
C      1  0.4806130000000  0.5217010000000  0.4882970000000 1.0
C      1  0.5115680000000  0.4744890000000  0.5738920000000 1.0
C      1  0.5758530000000  0.4697420000000  0.5074550000000 1.0
C      1  0.5326430000000  0.4689440000000  0.4276540000000 1.0
C      1  0.4479720000000  0.4728150000000  0.4512810000000 1.0
C      1  0.4344900000000  0.4728900000000  0.5355440000000 1.0
C      1  0.5038210000000  0.4735080000000  0.4227500000000 1.0
C      1  0.4453840000000  0.4804610000000  0.4801300000000 1.0
C      1  0.4597830000000  0.4787550000000  0.5502830000000 1.0
C      1  0.5277010000000  0.4850680000000  0.5519710000000 1.0
C      1  0.5734700000000  0.4735150000000  0.4789970000000 1.0
C      1  0.4939340000000  0.5753020000000  0.4690040000000 1.0
C      1  0.4677620000000  0.5797550000000  0.5050720000000 1.0
C      1  0.4858260000000  0.5793600000000  0.5286110000000 1.0
C      1  0.5346390000000  0.5762350000000  0.5215080000000 1.0
C      1  0.5217630000000  0.5753810000000  0.4769080000000 1.0
C      1  0.5131810000000  0.5639440000000  0.4531280000000 1.0
C      1  0.4684030000000  0.5686140000000  0.4788290000000 1.0
C      1  0.4585960000000  0.5716790000000  0.5298440000000 1.0
C      1  0.5129570000000  0.5722570000000  0.5374220000000 1.0
C      1  0.5416250000000  0.5685440000000  0.4962580000000 1.0
C      1  0.5757590000000  0.4959180000000  0.4361370000000 1.0
C      1  0.4622410000000  0.4974500000000  0.4109090000000 1.0
C      1  0.4048520000000  0.4978080000000  0.5028470000000 1.0
C      1  0.4748090000000  0.4902890000000  0.5972440000000 1.0
C      1  0.5749840000000  0.4975650000000  0.5489640000000 1.0
C      1  0.5868780000000  0.4880720000000  0.5258420000000 1.0
C      1  0.5546650000000  0.4858370000000  0.4205030000000 1.0
C      1  0.4427480000000  0.4891980000000  0.4286960000000 1.0
C      1  0.4139250000000  0.4897460000000  0.5288020000000 1.0
C      1  0.5028540000000  0.4917490000000  0.5952820000000 1.0
C      1  0.4419360000000  0.4485080000000  0.5199020000000 1.0
C      1  0.4993780000000  0.4501030000000  0.5626770000000 1.0
C      1  0.5555940000000  0.4510660000000  0.5168200000000 1.0
C      1  0.5355010000000  0.4498220000000  0.4488640000000 1.0
C      1  0.4648690000000  0.4504330000000  0.4491490000000 1.0
C      1  0.5242220000000  0.4949920000000  0.5055410000000 1.0
C      1  0.5148950000000  0.4917700000000  0.4794470000000 1.0
C      1  0.4726420000000  0.4916970000000  0.4963230000000 1.0
C      1  0.4744630000000  0.4950290000000  0.5272170000000 1.0
C      1  0.5070460000000  0.4975560000000  0.5299070000000 1.0
C      1  0.5180540000000  0.5449090000000  0.5498550000000 1.0
C      1  0.5531560000000  0.5404240000000  0.4964480000000 1.0
C      1  0.5152520000000  0.5350800000000  0.4488990000000 1.0
C      1  0.4590730000000  0.5404310000000  0.4715160000000 1.0
C      1  0.4455870000000  0.5464680000000  0.5304090000000 1.0
C      1  0.5198680000000  0.4398800000000  0.5470760000000 1.0
C      1  0.5454140000000  0.4391910000000  0.4932060000000 1.0
C      1  0.5093510000000  0.4404410000000  0.4554610000000 1.0
C      1  0.4669910000000  0.4396830000000  0.4757800000000 1.0
C      1  0.4590790000000  0.4333800000000  0.5366020000000 1.0
C      1  0.5450300000000  0.5290920000000  0.4464700000000 1.0
C      1  0.4653570000000  0.5320980000000  0.4428910000000 1.0
C      1  0.4261130000000  0.5381490000000  0.5119180000000 1.0
C      1  0.5016680000000  0.5328900000000  0.5726980000000 1.0
C      1  0.5639210000000  0.5355110000000  0.5247240000000 1.0
C      1  0.4898650000000  0.4987880000000  0.4183270000000 1.0
C      1  0.4253400000000  0.5023910000000  0.4831420000000 1.0
C      1  0.4647190000000  0.4981690000000  0.5732280000000 1.0
C      1  0.5488900000000  0.5055490000000  0.5571550000000 1.0
C      1  0.5754720000000  0.4993280000000  0.4652870000000 1.0
C      1  0.4917240000000  0.5237410000000  0.4332920000000 1.0
C      1  0.4335020000000  0.5301510000000  0.4848420000000 1.0
C      1  0.4752470000000  0.5232630000000  0.5641100000000 1.0
C      1  0.5459840000000  0.5335230000000  0.5479220000000 1.0
C      1  0.5617760000000  0.5257720000000  0.4698410000000 1.0
C      1  0.5117880000000  0.5187660000000  0.5938090000000 1.0
C      1  0.5842350000000  0.5163670000000  0.5295780000000 1.0
C      1  0.5568690000000  0.5141700000000  0.4253020000000 1.0
C      1  0.4473350000000  0.5173030000000  0.4270820000000 1.0
C      1  0.4083260000000  0.5173940000000  0.5222460000000 1.0
C      1  0.4955760000000  0.4440480000000  0.4810900000000 1.0
C      1  0.4951950000000  0.4743480000000  0.4870770000000 1.0
C      1  0.4837120000000  0.5339150000000  0.5151200000000 1.0
END
