TITL C-69766-1755-1 55.4318125723241 125000 -398.600637431107 0 0 60 (C1) n - 1
REM
REM in /rds/project/t2_vol4/rds-t2-cs072/BORA/CARBON/from-Arr/AIRSS/Generating-Clusters/GAP-ML-2020/Higher-Symm/SD-CG/HFTN-CG
REM
REM
REM
REM
REM
REM ./C.cell (b20cbc046b6831c77cfcea5457e17084)
REM AIRSS Version 0.9.1 bugfix July 2018 build 013d7b7c2542+ Fri, 06 Jul 2018 19:26:36 +0100
REM compiler GCC version 9.3.0
REM options -cpp -mtune=generic -march=x86-64 -g -O0
REM seed 1299140543 -1266077866 1502899012 1792089868 161870273 312461723 867773542 -73527427 -1705201350 2060654372 -2114692494 63827270 -1022845400 -2075318197 1351252828 -644266221 1958914859 515325996 -44426586 1370985127 -1070091009 1103853299 -634676863 1734789127 247280498 1650845336 -1231415860 -202310442 -1424678798 -1172666457 -106371121 1327939369 -531485980
REM
CELL 1.54180   50.00000   50.00000   50.00000   90.00000   90.00000   90.00000
LATT -1
SFAC C  
C      1  0.4484500000000  0.5155450000000  0.4575000000000 1.0
C      1  0.4658520000000  0.5678240000000  0.5234990000000 1.0
C      1  0.5656480000000  0.4950160000000  0.4650550000000 1.0
C      1  0.5318660000000  0.4380220000000  0.5049280000000 1.0
C      1  0.5295230000000  0.4901320000000  0.5256380000000 1.0
C      1  0.5023240000000  0.4929910000000  0.4287250000000 1.0
C      1  0.5373330000000  0.5561550000000  0.5379760000000 1.0
C      1  0.5202270000000  0.5026370000000  0.4722020000000 1.0
C      1  0.4570930000000  0.4960800000000  0.5512100000000 1.0
C      1  0.5100090000000  0.4300650000000  0.4876600000000 1.0
C      1  0.4521340000000  0.4681870000000  0.4673380000000 1.0
C      1  0.4827350000000  0.4722350000000  0.4320060000000 1.0
C      1  0.5443630000000  0.4611930000000  0.4888570000000 1.0
C      1  0.4879280000000  0.4703780000000  0.5287970000000 1.0
C      1  0.4942860000000  0.4710290000000  0.4999890000000 1.0
C      1  0.5408750000000  0.4861560000000  0.4516330000000 1.0
C      1  0.4988770000000  0.5091250000000  0.4527410000000 1.0
C      1  0.4618730000000  0.5193430000000  0.5323080000000 1.0
C      1  0.5376070000000  0.4675480000000  0.5445700000000 1.0
C      1  0.4986340000000  0.5287740000000  0.5039790000000 1.0
C      1  0.5395690000000  0.5290940000000  0.5510800000000 1.0
C      1  0.5511670000000  0.5551560000000  0.5144770000000 1.0
C      1  0.4912280000000  0.5213040000000  0.5309200000000 1.0
C      1  0.4800140000000  0.4326120000000  0.4921710000000 1.0
C      1  0.5045920000000  0.4516330000000  0.5463000000000 1.0
C      1  0.5025820000000  0.4953360000000  0.5376310000000 1.0
C      1  0.4447670000000  0.4617670000000  0.5126240000000 1.0
C      1  0.4404480000000  0.5015900000000  0.4355370000000 1.0
C      1  0.4856350000000  0.5803160000000  0.4699830000000 1.0
C      1  0.5102410000000  0.5642440000000  0.5409130000000 1.0
C      1  0.5230040000000  0.5287010000000  0.4877410000000 1.0
C      1  0.5385250000000  0.4577640000000  0.4610870000000 1.0
C      1  0.5012060000000  0.5395960000000  0.5526690000000 1.0
C      1  0.4922270000000  0.4541560000000  0.4518870000000 1.0
C      1  0.5496930000000  0.5278440000000  0.5033360000000 1.0
C      1  0.5183590000000  0.5229140000000  0.5684450000000 1.0
C      1  0.5667350000000  0.4806760000000  0.4895160000000 1.0
C      1  0.4933230000000  0.5747800000000  0.5202240000000 1.0
C      1  0.5154400000000  0.4414140000000  0.4604640000000 1.0
C      1  0.5295000000000  0.4902260000000  0.4262850000000 1.0
C      1  0.4761270000000  0.4962880000000  0.5708910000000 1.0
C      1  0.4370280000000  0.4783330000000  0.4892330000000 1.0
C      1  0.5156830000000  0.5550440000000  0.4756780000000 1.0
C      1  0.4513280000000  0.5458790000000  0.5258310000000 1.0
C      1  0.5180850000000  0.4691280000000  0.5658690000000 1.0
C      1  0.4904960000000  0.5549050000000  0.4603910000000 1.0
C      1  0.4593130000000  0.4723340000000  0.5342350000000 1.0
C      1  0.5034050000000  0.5765090000000  0.4924420000000 1.0
C      1  0.5208930000000  0.4823180000000  0.4960110000000 1.0
C      1  0.4385810000000  0.5066830000000  0.4847160000000 1.0
C      1  0.4573100000000  0.4358520000000  0.5068390000000 1.0
C      1  0.4774480000000  0.5270460000000  0.4600480000000 1.0
C      1  0.5675280000000  0.5084490000000  0.4887050000000 1.0
C      1  0.5459340000000  0.5130440000000  0.5290050000000 1.0
C      1  0.4779660000000  0.4592300000000  0.4765390000000 1.0
C      1  0.5283500000000  0.4432850000000  0.5318720000000 1.0
C      1  0.4556800000000  0.4797140000000  0.4411260000000 1.0
C      1  0.4524280000000  0.5230240000000  0.5037510000000 1.0
C      1  0.4758660000000  0.5276340000000  0.4888530000000 1.0
C      1  0.5046600000000  0.4957380000000  0.5680650000000 1.0
END
