TITL C-69490-9028-8 0.0158732223420454 125000 -142.002170289013 0 0 22 (C2) n - 1
REM
REM in /rds/project/t2_vol4/rds-t2-cs072/BORA/CARBON/from-Arr/AIRSS/Generating-Clusters/GAP-ML-2020/Higher-Symm/SD-CG/HFTN-CG
REM
REM
REM
REM
REM
REM ./C.cell (b20cbc046b6831c77cfcea5457e17084)
REM AIRSS Version 0.9.1 bugfix July 2018 build 013d7b7c2542+ Fri, 06 Jul 2018 19:26:36 +0100
REM compiler GCC version 9.3.0
REM options -cpp -mtune=generic -march=x86-64 -g -O0
REM seed 295836299 -1144906754 1527583035 -752474017 -905344938 2085744162 1170282679 577114532 -749815654 1989141870 2029161631 1317751914 -306809423 2106826851 -736266814 -1258220122 1693051384 -390157491 253529648 1689946816 -2146550377 2091407785 802298726 -1895710680 -821025109 -238373314 202540258 1225546543 1391530182 -1712615996 -1132752908 1175741488 1426956856
REM
CELL 1.54180   50.00000   50.00000   50.00000   90.00000   90.00000   90.00000
LATT -1
SFAC C  
C      1  0.4939140000000  0.4438070000000  0.4748630000000 1.0
C      1  0.4936980000000  0.5563240000000  0.5247850000000 1.0
C      1  0.5167250000000  0.4409740000000  0.4597050000000 1.0
C      1  0.5157280000000  0.5587170000000  0.5411280000000 1.0
C      1  0.4764030000000  0.4739340000000  0.5056450000000 1.0
C      1  0.4772500000000  0.5265290000000  0.4931060000000 1.0
C      1  0.5193270000000  0.4727310000000  0.5059780000000 1.0
C      1  0.5201470000000  0.5268920000000  0.4950400000000 1.0
C      1  0.5280410000000  0.4823620000000  0.4786000000000 1.0
C      1  0.5272130000000  0.5171050000000  0.5228360000000 1.0
C      1  0.4720450000000  0.4814300000000  0.4772740000000 1.0
C      1  0.4712540000000  0.5191340000000  0.5212030000000 1.0
C      1  0.4725420000000  0.4569140000000  0.4640290000000 1.0
C      1  0.4715310000000  0.5436430000000  0.5344690000000 1.0
C      1  0.5324210000000  0.4617680000000  0.4615320000000 1.0
C      1  0.5310880000000  0.5376190000000  0.5401210000000 1.0
C      1  0.5146670000000  0.5067510000000  0.4750600000000 1.0
C      1  0.5131960000000  0.4929850000000  0.5256520000000 1.0
C      1  0.4847710000000  0.5063520000000  0.4730750000000 1.0
C      1  0.4832500000000  0.4939700000000  0.5260560000000 1.0
C      1  0.4979980000000  0.5456960000000  0.4965730000000 1.0
C      1  0.4969270000000  0.4543630000000  0.5032690000000 1.0
END
