TITL C-69776-1726-4 185.106465238643 125000 -663.729112501795 0 0 98 (D2) n - 1
REM
REM in /rds/project/t2_vol4/rds-t2-cs072/BORA/CARBON/from-Arr/AIRSS/Generating-Clusters/GAP-ML-2020/Higher-Symm/SD-CG/HFTN-CG
REM
REM
REM
REM
REM
REM ./C.cell (b20cbc046b6831c77cfcea5457e17084)
REM AIRSS Version 0.9.1 bugfix July 2018 build 013d7b7c2542+ Fri, 06 Jul 2018 19:26:36 +0100
REM compiler GCC version 9.3.0
REM options -cpp -mtune=generic -march=x86-64 -g -O0
REM seed -458134207 1442323239 938223101 426236964 415052425 229880604 -1864244273 1343685517 -1108471745 911854115 355836534 -14989659 128952382 766195955 -539979635 -233724576 1721275133 1684028338 554559835 484754708 1225924292 -229446438 1010411723 1837106029 -1413068834 1347155167 1964897521 -1189882195 -1308537903 187460598 -1945512991 -903406801 -157964719
REM
CELL 1.54180   50.00000   50.00000   50.00000   90.00000   90.00000   90.00000
LATT -1
SFAC C  
C      1  0.4642540000000  0.4740490000000  0.5725000000000 1.0
C      1  0.5357700000000  0.4739630000000  0.4275420000000 1.0
C      1  0.4696600000000  0.5319630000000  0.5691640000000 1.0
C      1  0.5303100000000  0.5318770000000  0.4307840000000 1.0
C      1  0.4700170000000  0.4680650000000  0.4306940000000 1.0
C      1  0.5300130000000  0.4682070000000  0.5693580000000 1.0
C      1  0.4645730000000  0.5259740000000  0.4273320000000 1.0
C      1  0.5354030000000  0.5261260000000  0.5726260000000 1.0
C      1  0.5135500000000  0.4485220000000  0.5298400000000 1.0
C      1  0.4864980000000  0.4484610000000  0.4702450000000 1.0
C      1  0.5145600000000  0.5523350000000  0.5220620000000 1.0
C      1  0.4853910000000  0.5522850000000  0.4778530000000 1.0
C      1  0.5147130000000  0.4477350000000  0.4780080000000 1.0
C      1  0.4853350000000  0.4477580000000  0.5220780000000 1.0
C      1  0.5136430000000  0.5515460000000  0.4702250000000 1.0
C      1  0.4863090000000  0.5515830000000  0.5296910000000 1.0
C      1  0.4462930000000  0.5180250000000  0.5564260000000 1.0
C      1  0.5536910000000  0.5179830000000  0.4435440000000 1.0
C      1  0.4444470000000  0.4896610000000  0.5582410000000 1.0
C      1  0.5555630000000  0.4896180000000  0.4417760000000 1.0
C      1  0.4447130000000  0.5103430000000  0.4414970000000 1.0
C      1  0.5552780000000  0.5104900000000  0.5584860000000 1.0
C      1  0.4465760000000  0.4819810000000  0.4433210000000 1.0
C      1  0.5534400000000  0.4821230000000  0.5567090000000 1.0
C      1  0.4793240000000  0.5235680000000  0.4859180000000 1.0
C      1  0.5206540000000  0.5236100000000  0.5140440000000 1.0
C      1  0.4797200000000  0.4771030000000  0.4843220000000 1.0
C      1  0.5203010000000  0.4771470000000  0.5157150000000 1.0
C      1  0.4796250000000  0.5229340000000  0.5155820000000 1.0
C      1  0.5203540000000  0.5229280000000  0.4843810000000 1.0
C      1  0.4792800000000  0.4764690000000  0.5139850000000 1.0
C      1  0.5207420000000  0.4764650000000  0.4860540000000 1.0
C      1  0.5489580000000  0.5143830000000  0.5160460000000 1.0
C      1  0.4510290000000  0.5143110000000  0.4839300000000 1.0
C      1  0.5487400000000  0.4854160000000  0.5156020000000 1.0
C      1  0.4512740000000  0.4853450000000  0.4844220000000 1.0
C      1  0.5487990000000  0.5146860000000  0.4846280000000 1.0
C      1  0.4511870000000  0.5146660000000  0.5153480000000 1.0
C      1  0.5490470000000  0.4857190000000  0.4841850000000 1.0
C      1  0.4509670000000  0.4856990000000  0.5158390000000 1.0
C      1  0.5683970000000  0.5289590000000  0.4677810000000 1.0
C      1  0.4315760000000  0.5289480000000  0.5321710000000 1.0
C      1  0.5692140000000  0.4751350000000  0.4641400000000 1.0
C      1  0.4308090000000  0.4751290000000  0.5359010000000 1.0
C      1  0.5690210000000  0.5249860000000  0.5361860000000 1.0
C      1  0.4309560000000  0.5248620000000  0.4637730000000 1.0
C      1  0.5682710000000  0.4711610000000  0.5325410000000 1.0
C      1  0.4317560000000  0.4710440000000  0.4675060000000 1.0
C      1  0.4911160000000  0.5480660000000  0.5578790000000 1.0
C      1  0.5088400000000  0.5479790000000  0.4420430000000 1.0
C      1  0.4791950000000  0.4513090000000  0.5622630000000 1.0
C      1  0.5208500000000  0.4512270000000  0.4378170000000 1.0
C      1  0.4794440000000  0.5487280000000  0.4376400000000 1.0
C      1  0.5205110000000  0.5488490000000  0.5622800000000 1.0
C      1  0.4914340000000  0.4519820000000  0.4420800000000 1.0
C      1  0.5086110000000  0.4520860000000  0.5579990000000 1.0
C      1  0.4372440000000  0.4420150000000  0.4737420000000 1.0
C      1  0.5628100000000  0.4421170000000  0.5263530000000 1.0
C      1  0.4365890000000  0.5537070000000  0.4606230000000 1.0
C      1  0.5633610000000  0.5538310000000  0.5392890000000 1.0
C      1  0.4364540000000  0.4462900000000  0.5390770000000 1.0
C      1  0.5635960000000  0.4462850000000  0.4610110000000 1.0
C      1  0.4370670000000  0.5579820000000  0.5259620000000 1.0
C      1  0.5628790000000  0.5579980000000  0.4739430000000 1.0
C      1  0.5135800000000  0.5163760000000  0.4147300000000 1.0
C      1  0.4864050000000  0.5165030000000  0.5852430000000 1.0
C      1  0.5161770000000  0.4879790000000  0.4141110000000 1.0
C      1  0.4838340000000  0.4881050000000  0.5859080000000 1.0
C      1  0.5157600000000  0.5120920000000  0.5859640000000 1.0
C      1  0.4842290000000  0.5119370000000  0.4140160000000 1.0
C      1  0.5131930000000  0.4836930000000  0.5853330000000 1.0
C      1  0.4868230000000  0.4835410000000  0.4146940000000 1.0
C      1  0.5545900000000  0.5738550000000  0.4959220000000 1.0
C      1  0.4453410000000  0.5738100000000  0.5039570000000 1.0
C      1  0.5571720000000  0.4249700000000  0.4757690000000 1.0
C      1  0.4428980000000  0.4249570000000  0.5243550000000 1.0
C      1  0.5569860000000  0.5751390000000  0.5245010000000 1.0
C      1  0.4429440000000  0.5750460000000  0.4753760000000 1.0
C      1  0.5546400000000  0.4262530000000  0.5043350000000 1.0
C      1  0.4454290000000  0.4261950000000  0.4957860000000 1.0
C      1  0.5371750000000  0.5685970000000  0.4751460000000 1.0
C      1  0.4627610000000  0.5686030000000  0.5247420000000 1.0
C      1  0.5342450000000  0.4381960000000  0.4596120000000 1.0
C      1  0.4658120000000  0.4382310000000  0.5404890000000 1.0
C      1  0.5339970000000  0.5618920000000  0.5405490000000 1.0
C      1  0.4659460000000  0.5617940000000  0.4593500000000 1.0
C      1  0.5371210000000  0.4314940000000  0.5250290000000 1.0
C      1  0.4629430000000  0.4314180000000  0.4750830000000 1.0
C      1  0.4100390000000  0.5147800000000  0.5147110000000 1.0
C      1  0.5899470000000  0.5148390000000  0.4852640000000 1.0
C      1  0.4100240000000  0.4867230000000  0.5160920000000 1.0
C      1  0.5899890000000  0.4867810000000  0.4839300000000 1.0
C      1  0.4100880000000  0.5132490000000  0.4834840000000 1.0
C      1  0.5898990000000  0.5133600000000  0.5164950000000 1.0
C      1  0.4101240000000  0.4851930000000  0.4848640000000 1.0
C      1  0.5898900000000  0.4853010000000  0.5151600000000 1.0
C      1  0.4999450000000  0.5000470000000  0.5232580000000 1.0
C      1  0.5000550000000  0.5000090000000  0.4767420000000 1.0
END
