TITL C-69495-13-12 21.6205952172163 125000 -261.130736214659 0 0 38 (C1) n - 1
REM
REM in /rds/project/t2_vol4/rds-t2-cs072/BORA/CARBON/from-Arr/AIRSS/Generating-Clusters/GAP-ML-2020/Higher-Symm/SD-CG/HFTN-CG
REM
REM
REM
REM
REM
REM ./C.cell (b20cbc046b6831c77cfcea5457e17084)
REM AIRSS Version 0.9.1 bugfix July 2018 build 013d7b7c2542+ Fri, 06 Jul 2018 19:26:36 +0100
REM compiler GCC version 9.3.0
REM options -cpp -mtune=generic -march=x86-64 -g -O0
REM seed 588353149 1929837037 -243956155 -615461556 -466512653 1512914355 -848964225 -996939946 -516145822 -272350817 -572945422 841494692 -1390588440 -1955958018 -1949851005 1318856418 -1323250823 999377856 -84162385 569385659 -532574798 -1690731391 1461038405 432191940 639700400 -1089828650 -313093485 2051879607 1787990903 1348597398 1564821608 1438581461 286904385
REM
CELL 1.54180   50.00000   50.00000   50.00000   90.00000   90.00000   90.00000
LATT -1
SFAC C  
C      1  0.4866950000000  0.4520320000000  0.4792640000000 1.0
C      1  0.4615930000000  0.4671010000000  0.4794590000000 1.0
C      1  0.4648890000000  0.4901560000000  0.4616120000000 1.0
C      1  0.4568340000000  0.5158370000000  0.4695230000000 1.0
C      1  0.4711720000000  0.5404160000000  0.4771450000000 1.0
C      1  0.4986220000000  0.5479070000000  0.4762430000000 1.0
C      1  0.5151710000000  0.5325790000000  0.4600980000000 1.0
C      1  0.5401490000000  0.5206700000000  0.4705980000000 1.0
C      1  0.5348060000000  0.4970140000000  0.4568210000000 1.0
C      1  0.5309190000000  0.4726510000000  0.4692580000000 1.0
C      1  0.5043680000000  0.4651930000000  0.4616980000000 1.0
C      1  0.4573720000000  0.5404640000000  0.5028930000000 1.0
C      1  0.5108570000000  0.5556630000000  0.5008680000000 1.0
C      1  0.5352320000000  0.5422140000000  0.5110000000000 1.0
C      1  0.5468400000000  0.5200340000000  0.4978420000000 1.0
C      1  0.5492370000000  0.4934300000000  0.5108380000000 1.0
C      1  0.5399570000000  0.4690880000000  0.4963860000000 1.0
C      1  0.5253240000000  0.4489480000000  0.5100410000000 1.0
C      1  0.4974050000000  0.4418390000000  0.5025760000000 1.0
C      1  0.4506800000000  0.4700770000000  0.5049190000000 1.0
C      1  0.4390570000000  0.4955570000000  0.5119820000000 1.0
C      1  0.4414350000000  0.5169150000000  0.4944930000000 1.0
C      1  0.5229250000000  0.5398490000000  0.5373030000000 1.0
C      1  0.5265850000000  0.5159670000000  0.5495370000000 1.0
C      1  0.5432980000000  0.4941110000000  0.5384390000000 1.0
C      1  0.5250710000000  0.4740930000000  0.5501590000000 1.0
C      1  0.5164820000000  0.4520270000000  0.5375690000000 1.0
C      1  0.4874610000000  0.4481920000000  0.5296910000000 1.0
C      1  0.4685110000000  0.4691510000000  0.5295480000000 1.0
C      1  0.4518500000000  0.4951760000000  0.5383010000000 1.0
C      1  0.4702290000000  0.5154760000000  0.5411790000000 1.0
C      1  0.4717220000000  0.5406050000000  0.5277550000000 1.0
C      1  0.4978850000000  0.5516210000000  0.5264920000000 1.0
C      1  0.4986870000000  0.5017880000000  0.5009900000000 1.0
C      1  0.5057030000000  0.4960710000000  0.5535040000000 1.0
C      1  0.5088770000000  0.5083550000000  0.4464810000000 1.0
C      1  0.4908420000000  0.4878740000000  0.4502520000000 1.0
C      1  0.4899550000000  0.4950980000000  0.5268540000000 1.0
END
