TITL C-69474-9110-8 42.921989658087 125000 -847.589870839195 0 0 125 (C5) n - 1
REM
REM in /rds/project/t2_vol4/rds-t2-cs072/BORA/CARBON/from-Arr/AIRSS/Generating-Clusters/GAP-ML-2020/Higher-Symm/SD-CG/HFTN-CG
REM
REM
REM
REM
REM
REM ./C.cell (b20cbc046b6831c77cfcea5457e17084)
REM AIRSS Version 0.9.1 bugfix July 2018 build 013d7b7c2542+ Fri, 06 Jul 2018 19:26:36 +0100
REM compiler GCC version 9.3.0
REM options -cpp -mtune=generic -march=x86-64 -g -O0
REM seed -1015399553 1374026444 -1007491386 -325640738 -1011755136 944455236 -1376693815 732728103 2053359258 -2045612930 -471230901 1346333373 -1366638658 -1442952672 -1487162012 500942053 2119710371 -547902417 1913182109 542417096 -1484176873 648668558 -363299698 -1293721746 -1994190534 -1334827830 -1843968651 1316000880 1856475623 -325899690 -1422181538 -1144109791 37794
REM
CELL 1.54180   50.00000   50.00000   50.00000   90.00000   90.00000   90.00000
LATT -1
SFAC C  
C      1  0.4757970000000  0.5731280000000  0.4671960000000 1.0
C      1  0.4757980000000  0.5537960000000  0.5594120000000 1.0
C      1  0.4757980000000  0.4601200000000  0.5695230000000 1.0
C      1  0.4757970000000  0.4215570000000  0.4835560000000 1.0
C      1  0.4757960000000  0.4913990000000  0.4203140000000 1.0
C      1  0.5158540000000  0.5279450000000  0.4213220000000 1.0
C      1  0.5158550000000  0.5834620000000  0.5022650000000 1.0
C      1  0.5158550000000  0.5236370000000  0.5800770000000 1.0
C      1  0.5158540000000  0.4311460000000  0.5472250000000 1.0
C      1  0.5158530000000  0.4338090000000  0.4491090000000 1.0
C      1  0.5081400000000  0.5823350000000  0.5294930000000 1.0
C      1  0.5081400000000  0.4973930000000  0.5874190000000 1.0
C      1  0.5081390000000  0.4160540000000  0.5245350000000 1.0
C      1  0.5081380000000  0.4507250000000  0.4277440000000 1.0
C      1  0.5081390000000  0.5534920000000  0.4308090000000 1.0
C      1  0.4483860000000  0.5698000000000  0.5224750000000 1.0
C      1  0.4483870000000  0.5001950000000  0.5733300000000 1.0
C      1  0.4483860000000  0.4303200000000  0.5228460000000 1.0
C      1  0.4483850000000  0.4567410000000  0.4407910000000 1.0
C      1  0.4483850000000  0.5429440000000  0.4405620000000 1.0
C      1  0.5427540000000  0.4379870000000  0.5564470000000 1.0
C      1  0.5427520000000  0.4271520000000  0.4584650000000 1.0
C      1  0.5427520000000  0.5169900000000  0.4178830000000 1.0
C      1  0.5427540000000  0.5833480000000  0.4907830000000 1.0
C      1  0.5427540000000  0.5345210000000  0.5764200000000 1.0
C      1  0.5194330000000  0.4905430000000  0.5225310000000 1.0
C      1  0.5194320000000  0.4756500000000  0.4979680000000 1.0
C      1  0.5194320000000  0.4944070000000  0.4762140000000 1.0
C      1  0.5194330000000  0.5208940000000  0.4873300000000 1.0
C      1  0.5194330000000  0.5185060000000  0.5159560000000 1.0
C      1  0.5657100000000  0.5245740000000  0.4357830000000 1.0
C      1  0.5657110000000  0.5686670000000  0.5035270000000 1.0
C      1  0.5657110000000  0.5178640000000  0.5663960000000 1.0
C      1  0.5657100000000  0.4423730000000  0.5375070000000 1.0
C      1  0.5657090000000  0.4465200000000  0.4567840000000 1.0
C      1  0.5495220000000  0.4886380000000  0.4773580000000 1.0
C      1  0.5495230000000  0.5180220000000  0.4821970000000 1.0
C      1  0.5495230000000  0.5225000000000  0.5116390000000 1.0
C      1  0.5495230000000  0.4958830000000  0.5249950000000 1.0
C      1  0.5495230000000  0.4749550000000  0.5038080000000 1.0
C      1  0.5545640000000  0.5511570000000  0.5223420000000 1.0
C      1  0.5545640000000  0.4945590000000  0.5555570000000 1.0
C      1  0.5545640000000  0.4454800000000  0.5119930000000 1.0
C      1  0.5545630000000  0.4717450000000  0.4518540000000 1.0
C      1  0.5545640000000  0.5370570000000  0.4582500000000 1.0
C      1  0.4505650000000  0.4160680000000  0.4725030000000 1.0
C      1  0.4505650000000  0.5002150000000  0.4116790000000 1.0
C      1  0.4505660000000  0.5840650000000  0.4729120000000 1.0
C      1  0.4505670000000  0.5517400000000  0.5715800000000 1.0
C      1  0.4505660000000  0.4479120000000  0.5713280000000 1.0
C      1  0.4852370000000  0.4524850000000  0.5156560000000 1.0
C      1  0.4852360000000  0.4704270000000  0.4596480000000 1.0
C      1  0.4852370000000  0.5292390000000  0.4594050000000 1.0
C      1  0.4852370000000  0.5476430000000  0.5152630000000 1.0
C      1  0.4852380000000  0.5002070000000  0.5500280000000 1.0
C      1  0.5082920000000  0.5429840000000  0.4734270000000 1.0
C      1  0.5082920000000  0.5385550000000  0.5326690000000 1.0
C      1  0.5082920000000  0.4808440000000  0.5467630000000 1.0
C      1  0.5082910000000  0.4496060000000  0.4962320000000 1.0
C      1  0.5082910000000  0.4880110000000  0.4509080000000 1.0
C      1  0.4642560000000  0.5186890000000  0.4801570000000 1.0
C      1  0.4642560000000  0.5246470000000  0.5116430000000 1.0
C      1  0.4642560000000  0.4965440000000  0.5270390000000 1.0
C      1  0.4642560000000  0.4732170000000  0.5050690000000 1.0
C      1  0.4642560000000  0.4869040000000  0.4760940000000 1.0
C      1  0.4164320000000  0.4961480000000  0.5258620000000 1.0
C      1  0.4164310000000  0.4742150000000  0.5043290000000 1.0
C      1  0.4164310000000  0.4879160000000  0.4768150000000 1.0
C      1  0.4164310000000  0.5183170000000  0.4813430000000 1.0
C      1  0.4164320000000  0.5234050000000  0.5116560000000 1.0
C      1  0.4398270000000  0.4336010000000  0.4529630000000 1.0
C      1  0.4398270000000  0.5242180000000  0.4223160000000 1.0
C      1  0.4398280000000  0.5813670000000  0.4990270000000 1.0
C      1  0.4398280000000  0.5260700000000  0.5770840000000 1.0
C      1  0.4398280000000  0.4347460000000  0.5486150000000 1.0
C      1  0.5718580000000  0.5590240000000  0.4669550000000 1.0
C      1  0.5718590000000  0.5496660000000  0.5459240000000 1.0
C      1  0.5718590000000  0.4716700000000  0.5614260000000 1.0
C      1  0.5718580000000  0.4328250000000  0.4920380000000 1.0
C      1  0.5718570000000  0.4868130000000  0.4336520000000 1.0
C      1  0.3860990000000  0.5179090000000  0.4815870000000 1.0
C      1  0.3861000000000  0.5230470000000  0.5113430000000 1.0
C      1  0.3861000000000  0.4963350000000  0.5254250000000 1.0
C      1  0.3860990000000  0.4746890000000  0.5043720000000 1.0
C      1  0.3860990000000  0.4880220000000  0.4772790000000 1.0
C      1  0.5957990000000  0.5118090000000  0.5223940000000 1.0
C      1  0.5957990000000  0.4823500000000  0.5181510000000 1.0
C      1  0.5957990000000  0.4772820000000  0.4888230000000 1.0
C      1  0.5957990000000  0.5036090000000  0.4749390000000 1.0
C      1  0.5957990000000  0.5249480000000  0.4956880000000 1.0
C      1  0.4374530000000  0.5404650000000  0.5252480000000 1.0
C      1  0.4374530000000  0.4884940000000  0.5462870000000 1.0
C      1  0.4374520000000  0.4524240000000  0.5033600000000 1.0
C      1  0.4374520000000  0.4821030000000  0.4557910000000 1.0
C      1  0.4374520000000  0.5365160000000  0.4693180000000 1.0
C      1  0.4313360000000  0.5638110000000  0.4782040000000 1.0
C      1  0.4313360000000  0.5404490000000  0.5539530000000 1.0
C      1  0.4313360000000  0.4611880000000  0.5551410000000 1.0
C      1  0.4313350000000  0.4355650000000  0.4801280000000 1.0
C      1  0.4313350000000  0.4989890000000  0.4325780000000 1.0
C      1  0.5273400000000  0.4723990000000  0.4329120000000 1.0
C      1  0.5273410000000  0.5552750000000  0.4530190000000 1.0
C      1  0.5273420000000  0.5617620000000  0.5380510000000 1.0
C      1  0.5273420000000  0.4828960000000  0.5704980000000 1.0
C      1  0.5273410000000  0.4276670000000  0.5055180000000 1.0
C      1  0.4953730000000  0.4414410000000  0.4707500000000 1.0
C      1  0.4953730000000  0.5097230000000  0.4352680000000 1.0
C      1  0.4953740000000  0.5645680000000  0.4892440000000 1.0
C      1  0.4953740000000  0.5301820000000  0.5580840000000 1.0
C      1  0.4953740000000  0.4540860000000  0.5466540000000 1.0
C      1  0.4771400000000  0.4886970000000  0.5766180000000 1.0
C      1  0.4771390000000  0.4236400000000  0.5129270000000 1.0
C      1  0.4771390000000  0.4641100000000  0.4313720000000 1.0
C      1  0.4771390000000  0.5541790000000  0.4446590000000 1.0
C      1  0.4771400000000  0.5693750000000  0.5344260000000 1.0
C      1  0.5859590000000  0.4632530000000  0.5390800000000 1.0
C      1  0.5859580000000  0.4514760000000  0.4771280000000 1.0
C      1  0.5859580000000  0.5067570000000  0.4467830000000 1.0
C      1  0.5859590000000  0.5526990000000  0.4899810000000 1.0
C      1  0.5859590000000  0.5258120000000  0.5470230000000 1.0
C      1  0.5468750000000  0.5748950000000  0.4645040000000 1.0
C      1  0.5468760000000  0.5569010000000  0.5602600000000 1.0
C      1  0.5468760000000  0.4602720000000  0.5727380000000 1.0
C      1  0.5468750000000  0.4185450000000  0.4846940000000 1.0
C      1  0.5468740000000  0.4893860000000  0.4178020000000 1.0
END
