TITL C-69774-1634-9 -296.769503951792 125000 -248.936052906403 0 0 38 (C1) n - 1
REM
REM in /rds/project/t2_vol4/rds-t2-cs072/BORA/CARBON/from-Arr/AIRSS/Generating-Clusters/GAP-ML-2020/Higher-Symm/SD-CG/HFTN-CG
REM
REM
REM
REM
REM
REM ./C.cell (b20cbc046b6831c77cfcea5457e17084)
REM AIRSS Version 0.9.1 bugfix July 2018 build 013d7b7c2542+ Fri, 06 Jul 2018 19:26:36 +0100
REM compiler GCC version 9.3.0
REM options -cpp -mtune=generic -march=x86-64 -g -O0
REM seed -1792268627 1633556064 1988002369 -1886233829 108377272 22501756 -857287512 -1634583067 -1891455648 -1949871166 -50871696 -977875506 2047135424 -285018720 -1181242463 376363590 100247116 34041831 -1997397394 1963370630 1681430573 -1472986433 1411125493 -2040471149 -215389231 758811705 444445219 495895830 -933504759 1676606654 -659841675 1776039328 2017020483
REM
CELL 1.54180   50.00000   50.00000   50.00000   90.00000   90.00000   90.00000
LATT -1
SFAC C  
C      1  0.4530700000000  0.4750630000000  0.5516040000000 1.0
C      1  0.4559670000000  0.5027900000000  0.5551380000000 1.0
C      1  0.4617920000000  0.5259450000000  0.5405390000000 1.0
C      1  0.4613470000000  0.5481100000000  0.5028010000000 1.0
C      1  0.4549750000000  0.5494400000000  0.4755800000000 1.0
C      1  0.4517290000000  0.5326010000000  0.4532780000000 1.0
C      1  0.4519470000000  0.5049610000000  0.4465540000000 1.0
C      1  0.4542100000000  0.4783620000000  0.4559430000000 1.0
C      1  0.4555330000000  0.4587760000000  0.4762520000000 1.0
C      1  0.4555850000000  0.4507050000000  0.5032800000000 1.0
C      1  0.4534900000000  0.4554430000000  0.5310570000000 1.0
C      1  0.5808420000000  0.5464590000000  0.4872410000000 1.0
C      1  0.5829890000000  0.5321670000000  0.4660160000000 1.0
C      1  0.5849990000000  0.5102180000000  0.4519730000000 1.0
C      1  0.5817080000000  0.4872480000000  0.4666620000000 1.0
C      1  0.5977510000000  0.4653170000000  0.4770210000000 1.0
C      1  0.5822580000000  0.4651990000000  0.5023080000000 1.0
C      1  0.5852750000000  0.4598950000000  0.5286390000000 1.0
C      1  0.5829280000000  0.4785630000000  0.5471260000000 1.0
C      1  0.5811270000000  0.5041620000000  0.5458110000000 1.0
C      1  0.5819900000000  0.5271590000000  0.5343780000000 1.0
C      1  0.5819170000000  0.5397670000000  0.5121880000000 1.0
C      1  0.4265260000000  0.5061180000000  0.5475220000000 1.0
C      1  0.4338350000000  0.5294750000000  0.5337510000000 1.0
C      1  0.4335510000000  0.5436790000000  0.5097250000000 1.0
C      1  0.4256830000000  0.5444320000000  0.4827840000000 1.0
C      1  0.4224550000000  0.5302540000000  0.4589630000000 1.0
C      1  0.4225850000000  0.5037830000000  0.4487720000000 1.0
C      1  0.4250610000000  0.4768550000000  0.4557100000000 1.0
C      1  0.4265000000000  0.4568850000000  0.4750750000000 1.0
C      1  0.4264480000000  0.4493520000000  0.5019350000000 1.0
C      1  0.4240830000000  0.4563190000000  0.5289580000000 1.0
C      1  0.4237270000000  0.4783590000000  0.5468710000000 1.0
C      1  0.5624060000000  0.4837130000000  0.4898810000000 1.0
C      1  0.5047000000000  0.5257380000000  0.5146550000000 1.0
C      1  0.5247040000000  0.5127240000000  0.5072800000000 1.0
C      1  0.4794040000000  0.5345600000000  0.5200110000000 1.0
C      1  0.5478550000000  0.5015880000000  0.5014380000000 1.0
END
