TITL C-69762-1701-3 0.246902760905472 125000 -966.891651239544 0 0 137 (S4) n - 1
REM
REM in /rds/project/t2_vol4/rds-t2-cs072/BORA/CARBON/from-Arr/AIRSS/Generating-Clusters/GAP-ML-2020/Higher-Symm/SD-CG/HFTN-CG
REM
REM
REM
REM
REM
REM ./C.cell (b20cbc046b6831c77cfcea5457e17084)
REM AIRSS Version 0.9.1 bugfix July 2018 build 013d7b7c2542+ Fri, 06 Jul 2018 19:26:36 +0100
REM compiler GCC version 9.3.0
REM options -cpp -mtune=generic -march=x86-64 -g -O0
REM seed -1759612374 -525540141 -519792285 -430307698 785184043 -983910150 -1573440019 1733187922 -1861440331 742600303 -1360657 1539915817 1358804495 1681783552 -1002515819 1487669860 1116928260 -1616171503 -1454896874 -942783371 2007072228 -723509664 -868826919 289928619 1680153404 -916794413 -646988060 -1392038358 -1242950936 -1212528561 -1426703021 -962273185 -458820809
REM
CELL 1.54180   50.00000   50.00000   50.00000   90.00000   90.00000   90.00000
LATT -1
SFAC C  
C      1  0.5069240000000  0.4787070000000  0.5454470000000 1.0
C      1  0.4930330000000  0.4543570000000  0.4788750000000 1.0
C      1  0.5070120000000  0.5209690000000  0.4544370000000 1.0
C      1  0.4931070000000  0.5452750000000  0.5210570000000 1.0
C      1  0.4486290000000  0.5504470000000  0.4415000000000 1.0
C      1  0.5514870000000  0.5583570000000  0.5506600000000 1.0
C      1  0.4485540000000  0.4491150000000  0.5585390000000 1.0
C      1  0.5513870000000  0.4413790000000  0.4493750000000 1.0
C      1  0.5119760000000  0.4051100000000  0.5070520000000 1.0
C      1  0.4880400000000  0.4927710000000  0.4052100000000 1.0
C      1  0.5120120000000  0.5945440000000  0.4929340000000 1.0
C      1  0.4880490000000  0.5068580000000  0.5946570000000 1.0
C      1  0.5612020000000  0.5011880000000  0.5562990000000 1.0
C      1  0.4388320000000  0.4434870000000  0.5013570000000 1.0
C      1  0.5611540000000  0.4984950000000  0.4437280000000 1.0
C      1  0.4388730000000  0.5560880000000  0.4986250000000 1.0
C      1  0.4682660000000  0.4661850000000  0.5741330000000 1.0
C      1  0.5317180000000  0.4257810000000  0.4664290000000 1.0
C      1  0.4683020000000  0.5334100000000  0.4258680000000 1.0
C      1  0.5317770000000  0.5739500000000  0.5335870000000 1.0
C      1  0.5200360000000  0.5259900000000  0.4252540000000 1.0
C      1  0.4800410000000  0.5744750000000  0.5260990000000 1.0
C      1  0.5200110000000  0.4737020000000  0.5746450000000 1.0
C      1  0.4800080000000  0.4251630000000  0.4738710000000 1.0
C      1  0.4621750000000  0.4282130000000  0.5434000000000 1.0
C      1  0.5377880000000  0.4564800000000  0.4284490000000 1.0
C      1  0.4622350000000  0.5713650000000  0.4566190000000 1.0
C      1  0.5378660000000  0.5432090000000  0.5715570000000 1.0
C      1  0.5368990000000  0.5788520000000  0.4604340000000 1.0
C      1  0.4632140000000  0.5393080000000  0.5789260000000 1.0
C      1  0.5368400000000  0.4208420000000  0.5395270000000 1.0
C      1  0.4631300000000  0.4602530000000  0.4209390000000 1.0
C      1  0.6002300000000  0.4737270000000  0.4942630000000 1.0
C      1  0.3998030000000  0.5055370000000  0.4738800000000 1.0
C      1  0.6002640000000  0.5259520000000  0.5057150000000 1.0
C      1  0.3997960000000  0.4940730000000  0.5261080000000 1.0
C      1  0.5654750000000  0.5504250000000  0.4874550000000 1.0
C      1  0.4345870000000  0.5123310000000  0.5505750000000 1.0
C      1  0.5653820000000  0.4493200000000  0.5125200000000 1.0
C      1  0.4346320000000  0.4872820000000  0.4494560000000 1.0
C      1  0.4660300000000  0.4345650000000  0.4317730000000 1.0
C      1  0.5340030000000  0.5680720000000  0.4347270000000 1.0
C      1  0.4660810000000  0.5650240000000  0.5681920000000 1.0
C      1  0.5339690000000  0.4316080000000  0.5652360000000 1.0
C      1  0.4334530000000  0.4411880000000  0.4712550000000 1.0
C      1  0.5665700000000  0.5285870000000  0.4413800000000 1.0
C      1  0.4334990000000  0.5583880000000  0.5287230000000 1.0
C      1  0.5665680000000  0.4710840000000  0.5586030000000 1.0
C      1  0.4511330000000  0.5257900000000  0.5016810000000 1.0
C      1  0.5488930000000  0.4981240000000  0.5261310000000 1.0
C      1  0.4511400000000  0.4736760000000  0.4982820000000 1.0
C      1  0.5489310000000  0.5015860000000  0.4739790000000 1.0
C      1  0.4953800000000  0.5721350000000  0.5686170000000 1.0
C      1  0.5046650000000  0.4311700000000  0.5723500000000 1.0
C      1  0.4953500000000  0.4274720000000  0.4313500000000 1.0
C      1  0.5046870000000  0.5684820000000  0.4276350000000 1.0
C      1  0.4908270000000  0.3874290000000  0.5044270000000 1.0
C      1  0.5092200000000  0.4954140000000  0.3875600000000 1.0
C      1  0.4908380000000  0.6121980000000  0.4955520000000 1.0
C      1  0.5091970000000  0.5042830000000  0.6123390000000 1.0
C      1  0.6003700000000  0.4915050000000  0.4719820000000 1.0
C      1  0.3996790000000  0.5278140000000  0.4916570000000 1.0
C      1  0.6003880000000  0.5081700000000  0.5279960000000 1.0
C      1  0.3996610000000  0.4717920000000  0.5083310000000 1.0
C      1  0.5218950000000  0.5470060000000  0.5252150000000 1.0
C      1  0.4781320000000  0.4745900000000  0.5471930000000 1.0
C      1  0.5218340000000  0.4527110000000  0.4749290000000 1.0
C      1  0.4782000000000  0.5249810000000  0.4527980000000 1.0
C      1  0.5750720000000  0.4534950000000  0.4601850000000 1.0
C      1  0.4249490000000  0.5396220000000  0.4536290000000 1.0
C      1  0.5751560000000  0.5462110000000  0.5398220000000 1.0
C      1  0.4248890000000  0.4599620000000  0.5463830000000 1.0
C      1  0.5810900000000  0.5368330000000  0.4648230000000 1.0
C      1  0.4189890000000  0.5349520000000  0.5369730000000 1.0
C      1  0.5810530000000  0.4628660000000  0.5351410000000 1.0
C      1  0.4189780000000  0.4646580000000  0.4630250000000 1.0
C      1  0.4012470000000  0.5220260000000  0.5193160000000 1.0
C      1  0.5988090000000  0.4805050000000  0.5222170000000 1.0
C      1  0.4012290000000  0.4775840000000  0.4806670000000 1.0
C      1  0.5988250000000  0.5191720000000  0.4777550000000 1.0
C      1  0.4673130000000  0.5173090000000  0.4799340000000 1.0
C      1  0.5329360000000  0.5200000000000  0.5175830000000 1.0
C      1  0.4670430000000  0.4821730000000  0.5202100000000 1.0
C      1  0.5326980000000  0.4798840000000  0.4825360000000 1.0
C      1  0.4167950000000  0.4519840000000  0.5197560000000 1.0
C      1  0.5831840000000  0.4800980000000  0.4522020000000 1.0
C      1  0.4168440000000  0.5476050000000  0.4802380000000 1.0
C      1  0.5832430000000  0.5195870000000  0.5477980000000 1.0
C      1  0.5402920000000  0.5273060000000  0.4884070000000 1.0
C      1  0.4597940000000  0.5113540000000  0.5273860000000 1.0
C      1  0.5402290000000  0.4723950000000  0.5116260000000 1.0
C      1  0.4597990000000  0.4881880000000  0.4725210000000 1.0
C      1  0.4866960000000  0.4769480000000  0.4601860000000 1.0
C      1  0.5134100000000  0.5395390000000  0.4771060000000 1.0
C      1  0.4867090000000  0.5226000000000  0.5395700000000 1.0
C      1  0.5132760000000  0.4601190000000  0.5228250000000 1.0
C      1  0.4171720000000  0.5115350000000  0.4524550000000 1.0
C      1  0.5829180000000  0.5473930000000  0.5117210000000 1.0
C      1  0.4171460000000  0.4880680000000  0.5475480000000 1.0
C      1  0.5828450000000  0.4523130000000  0.4882670000000 1.0
C      1  0.4905950000000  0.4701540000000  0.5048620000000 1.0
C      1  0.5093720000000  0.4949030000000  0.4700590000000 1.0
C      1  0.4907930000000  0.5295500000000  0.4949920000000 1.0
C      1  0.5093750000000  0.5047020000000  0.5296100000000 1.0
C      1  0.4473990000000  0.4841710000000  0.4227480000000 1.0
C      1  0.5526590000000  0.5770900000000  0.4843340000000 1.0
C      1  0.4474210000000  0.5154430000000  0.5772100000000 1.0
C      1  0.5526020000000  0.4226250000000  0.5156420000000 1.0
C      1  0.4557670000000  0.4233520000000  0.5157340000000 1.0
C      1  0.5442040000000  0.4841290000000  0.4236000000000 1.0
C      1  0.4558060000000  0.5762280000000  0.4842650000000 1.0
C      1  0.5442890000000  0.5155570000000  0.5764500000000 1.0
C      1  0.4899890000000  0.5280120000000  0.5731680000000 1.0
C      1  0.5100430000000  0.4265160000000  0.5282640000000 1.0
C      1  0.4899190000000  0.4715150000000  0.4265700000000 1.0
C      1  0.5101210000000  0.5731360000000  0.4717160000000 1.0
C      1  0.4554480000000  0.4294550000000  0.4575580000000 1.0
C      1  0.5446020000000  0.5422940000000  0.4295950000000 1.0
C      1  0.4554920000000  0.5701280000000  0.5424080000000 1.0
C      1  0.5445630000000  0.4573950000000  0.5703290000000 1.0
C      1  0.4733780000000  0.5910530000000  0.5014410000000 1.0
C      1  0.5266880000000  0.4983720000000  0.5912270000000 1.0
C      1  0.4733550000000  0.4085690000000  0.4985350000000 1.0
C      1  0.5266730000000  0.5013070000000  0.4087150000000 1.0
C      1  0.5363540000000  0.4129570000000  0.4932750000000 1.0
C      1  0.4636580000000  0.5065440000000  0.4130750000000 1.0
C      1  0.5363990000000  0.5867360000000  0.5067140000000 1.0
C      1  0.4636640000000  0.4930700000000  0.5868800000000 1.0
C      1  0.5103490000000  0.5494000000000  0.5764190000000 1.0
C      1  0.4896800000000  0.4233100000000  0.5496350000000 1.0
C      1  0.5103180000000  0.4501850000000  0.4234530000000 1.0
C      1  0.4897260000000  0.5763080000000  0.4503710000000 1.0
C      1  0.5038720000000  0.4171350000000  0.4554540000000 1.0
C      1  0.4961650000000  0.5444020000000  0.4172350000000 1.0
C      1  0.5038980000000  0.5825420000000  0.5445390000000 1.0
C      1  0.4961460000000  0.4552570000000  0.5827280000000 1.0
C      1  0.5001850000000  0.4996890000000  0.4995700000000 1.0
END
