TITL C-69499-8901-5 51.35967161553 125000 -309.863287198713 0 0 47 (C1) n - 1
REM
REM in /rds/project/t2_vol4/rds-t2-cs072/BORA/CARBON/from-Arr/AIRSS/Generating-Clusters/GAP-ML-2020/Higher-Symm/SD-CG/HFTN-CG
REM
REM
REM
REM
REM
REM ./C.cell (b20cbc046b6831c77cfcea5457e17084)
REM AIRSS Version 0.9.1 bugfix July 2018 build 013d7b7c2542+ Fri, 06 Jul 2018 19:26:36 +0100
REM compiler GCC version 9.3.0
REM options -cpp -mtune=generic -march=x86-64 -g -O0
REM seed -1414561160 -225811313 1767108922 1032508847 633792273 1090461877 -51485214 1767251550 -299589233 1215884971 -1266729002 1115475387 1327788160 531868823 1185276660 2110924237 1174498344 772634780 -2044599398 -208878011 148266019 -997274835 -466269930 1730166618 -1195100907 -1755430951 -263723217 -1959396308 -857494283 1554406700 1546577141 -1410341689 1029993036
REM
CELL 1.54180   50.00000   50.00000   50.00000   90.00000   90.00000   90.00000
LATT -1
SFAC C  
C      1  0.5111130000000  0.5451360000000  0.5354140000000 1.0
C      1  0.4556080000000  0.5107150000000  0.5347740000000 1.0
C      1  0.4910620000000  0.4551770000000  0.5349600000000 1.0
C      1  0.5459960000000  0.4909210000000  0.5377050000000 1.0
C      1  0.5095430000000  0.5369100000000  0.4680690000000 1.0
C      1  0.4534890000000  0.5104900000000  0.4700380000000 1.0
C      1  0.4915280000000  0.4565670000000  0.4705130000000 1.0
C      1  0.5493540000000  0.4879660000000  0.4713320000000 1.0
C      1  0.4543550000000  0.4883600000000  0.5166480000000 1.0
C      1  0.5135700000000  0.4535660000000  0.5173270000000 1.0
C      1  0.5501810000000  0.5137260000000  0.5206110000000 1.0
C      1  0.4890410000000  0.5466880000000  0.5165320000000 1.0
C      1  0.4539530000000  0.4882140000000  0.4879860000000 1.0
C      1  0.5138550000000  0.4521710000000  0.4881950000000 1.0
C      1  0.5447620000000  0.5096780000000  0.4911300000000 1.0
C      1  0.4877740000000  0.5449390000000  0.4872960000000 1.0
C      1  0.5324130000000  0.4934470000000  0.5634680000000 1.0
C      1  0.5070290000000  0.5337730000000  0.5621520000000 1.0
C      1  0.4676250000000  0.5075720000000  0.5609060000000 1.0
C      1  0.4934280000000  0.4672390000000  0.5611810000000 1.0
C      1  0.5390390000000  0.4933300000000  0.4462870000000 1.0
C      1  0.5049210000000  0.5315150000000  0.4387680000000 1.0
C      1  0.4642750000000  0.5077440000000  0.4432950000000 1.0
C      1  0.4926160000000  0.4698360000000  0.4449490000000 1.0
C      1  0.5221410000000  0.5093700000000  0.4302360000000 1.0
C      1  0.4790610000000  0.5283100000000  0.4314410000000 1.0
C      1  0.4709720000000  0.4829140000000  0.4338200000000 1.0
C      1  0.5160460000000  0.4824510000000  0.4343000000000 1.0
C      1  0.5261520000000  0.5178830000000  0.5744390000000 1.0
C      1  0.4826360000000  0.5275790000000  0.5729520000000 1.0
C      1  0.4737320000000  0.4833260000000  0.5724030000000 1.0
C      1  0.5172170000000  0.4725710000000  0.5740600000000 1.0
C      1  0.5366110000000  0.5372160000000  0.4803890000000 1.0
C      1  0.4595740000000  0.5364600000000  0.4825180000000 1.0
C      1  0.4653690000000  0.4604180000000  0.4830910000000 1.0
C      1  0.5424230000000  0.4614860000000  0.4824180000000 1.0
C      1  0.5376270000000  0.5406240000000  0.5242280000000 1.0
C      1  0.4606690000000  0.5371440000000  0.5224060000000 1.0
C      1  0.4652730000000  0.4603700000000  0.5219770000000 1.0
C      1  0.5411120000000  0.4654830000000  0.5235930000000 1.0
C      1  0.4431950000000  0.5474130000000  0.5026930000000 1.0
C      1  0.4553810000000  0.4422190000000  0.5027490000000 1.0
C      1  0.5583270000000  0.4556170000000  0.5043460000000 1.0
C      1  0.5417080000000  0.5547970000000  0.5004520000000 1.0
C      1  0.5034430000000  0.5016870000000  0.5215690000000 1.0
C      1  0.5011990000000  0.5083070000000  0.4745430000000 1.0
C      1  0.5151460000000  0.5003060000000  0.4972260000000 1.0
END
