TITL C-69763-1688-7 0.111427460678804 125000 -580.666236749421 0 0 83 (C1) n - 1
REM
REM in /rds/project/t2_vol4/rds-t2-cs072/BORA/CARBON/from-Arr/AIRSS/Generating-Clusters/GAP-ML-2020/Higher-Symm/SD-CG/HFTN-CG
REM
REM
REM
REM
REM
REM ./C.cell (b20cbc046b6831c77cfcea5457e17084)
REM AIRSS Version 0.9.1 bugfix July 2018 build 013d7b7c2542+ Fri, 06 Jul 2018 19:26:36 +0100
REM compiler GCC version 9.3.0
REM options -cpp -mtune=generic -march=x86-64 -g -O0
REM seed 1370707362 1839068586 1560184224 -1801717244 2012824404 -1473365662 -248289309 -336098385 -639068989 489236472 931652916 1214682903 592828770 -146679905 -428948255 -372287465 -1629392844 1217190888 1443138741 -1612087910 2121307425 -1905560709 1096018292 1407105025 -1742735263 -924878512 -1661469889 252525335 765678573 2015140937 256290086 -1918726806 33156741
REM
CELL 1.54180   50.00000   50.00000   50.00000   90.00000   90.00000   90.00000
LATT -1
SFAC C  
C      1  0.5447330000000  0.5601960000000  0.5072680000000 1.0
C      1  0.5078040000000  0.5368360000000  0.5673740000000 1.0
C      1  0.5697820000000  0.5031390000000  0.5431170000000 1.0
C      1  0.5456050000000  0.4421100000000  0.4920380000000 1.0
C      1  0.4584390000000  0.4351490000000  0.5092750000000 1.0
C      1  0.4609620000000  0.5622050000000  0.4922420000000 1.0
C      1  0.5113400000000  0.4642080000000  0.4332010000000 1.0
C      1  0.4872040000000  0.4604760000000  0.5713960000000 1.0
C      1  0.4887010000000  0.5375100000000  0.4294440000000 1.0
C      1  0.5723220000000  0.4986560000000  0.4562120000000 1.0
C      1  0.4274780000000  0.4919690000000  0.5441230000000 1.0
C      1  0.4284800000000  0.5082730000000  0.4574130000000 1.0
C      1  0.6089050000000  0.5053220000000  0.4888890000000 1.0
C      1  0.4967670000000  0.5945750000000  0.5010470000000 1.0
C      1  0.5089990000000  0.4915340000000  0.6017400000000 1.0
C      1  0.6079360000000  0.4963670000000  0.5120920000000 1.0
C      1  0.3936040000000  0.4911270000000  0.4903260000000 1.0
C      1  0.3896070000000  0.4998990000000  0.5138430000000 1.0
C      1  0.4956310000000  0.4060430000000  0.4970890000000 1.0
C      1  0.5150390000000  0.4145140000000  0.5099590000000 1.0
C      1  0.5159880000000  0.5894340000000  0.4861520000000 1.0
C      1  0.5095210000000  0.5085680000000  0.3968680000000 1.0
C      1  0.4960340000000  0.5124460000000  0.6080430000000 1.0
C      1  0.4912750000000  0.4905710000000  0.3977510000000 1.0
C      1  0.4178850000000  0.4882260000000  0.4750060000000 1.0
C      1  0.4754140000000  0.4254660000000  0.4876470000000 1.0
C      1  0.4883480000000  0.4771160000000  0.4231340000000 1.0
C      1  0.4140910000000  0.5113160000000  0.5276220000000 1.0
C      1  0.5879280000000  0.5163990000000  0.4719480000000 1.0
C      1  0.5869830000000  0.4855350000000  0.5289600000000 1.0
C      1  0.4767390000000  0.5758500000000  0.5117710000000 1.0
C      1  0.5323030000000  0.5659990000000  0.4812240000000 1.0
C      1  0.5302510000000  0.4375040000000  0.5164730000000 1.0
C      1  0.4858210000000  0.5257170000000  0.5828640000000 1.0
C      1  0.5121850000000  0.5265630000000  0.4183600000000 1.0
C      1  0.5105440000000  0.4735000000000  0.5808050000000 1.0
C      1  0.5062760000000  0.5584170000000  0.5473760000000 1.0
C      1  0.5457840000000  0.4970610000000  0.5589240000000 1.0
C      1  0.5690060000000  0.5444440000000  0.5090750000000 1.0
C      1  0.5089140000000  0.4431940000000  0.4532260000000 1.0
C      1  0.4938860000000  0.4445170000000  0.5486110000000 1.0
C      1  0.4955570000000  0.5533230000000  0.4519280000000 1.0
C      1  0.5492670000000  0.5043680000000  0.4389510000000 1.0
C      1  0.4475450000000  0.4956990000000  0.5665760000000 1.0
C      1  0.4502690000000  0.5036360000000  0.4384730000000 1.0
C      1  0.5702940000000  0.4575410000000  0.4910120000000 1.0
C      1  0.4352010000000  0.4533240000000  0.5074130000000 1.0
C      1  0.4359250000000  0.5454930000000  0.4948240000000 1.0
C      1  0.4706010000000  0.5591310000000  0.4654960000000 1.0
C      1  0.4595960000000  0.4683770000000  0.5706980000000 1.0
C      1  0.5720630000000  0.4707070000000  0.4644630000000 1.0
C      1  0.4684620000000  0.4367770000000  0.5364150000000 1.0
C      1  0.5357930000000  0.4406600000000  0.4649460000000 1.0
C      1  0.5329740000000  0.5606080000000  0.5341120000000 1.0
C      1  0.4611200000000  0.5297940000000  0.4303760000000 1.0
C      1  0.5339440000000  0.5242830000000  0.5652100000000 1.0
C      1  0.5377380000000  0.4765800000000  0.4331970000000 1.0
C      1  0.5696150000000  0.5309620000000  0.5352340000000 1.0
C      1  0.4301900000000  0.5358580000000  0.4665990000000 1.0
C      1  0.4296140000000  0.4639780000000  0.5344160000000 1.0
C      1  0.5334450000000  0.5293020000000  0.4375440000000 1.0
C      1  0.4248530000000  0.5342510000000  0.5168120000000 1.0
C      1  0.5210540000000  0.4511230000000  0.5403190000000 1.0
C      1  0.5302340000000  0.4724590000000  0.5596080000000 1.0
C      1  0.4707680000000  0.4843580000000  0.4437100000000 1.0
C      1  0.4606900000000  0.5180040000000  0.5747300000000 1.0
C      1  0.4376670000000  0.4724670000000  0.4867510000000 1.0
C      1  0.5806070000000  0.4635280000000  0.5147250000000 1.0
C      1  0.5804710000000  0.5380920000000  0.4859240000000 1.0
C      1  0.5235600000000  0.5505610000000  0.4578990000000 1.0
C      1  0.4833470000000  0.5679330000000  0.5370170000000 1.0
C      1  0.4850310000000  0.4360560000000  0.4642340000000 1.0
C      1  0.4835310000000  0.4872160000000  0.4716060000000 1.0
C      1  0.4646880000000  0.4863070000000  0.4919790000000 1.0
C      1  0.4717080000000  0.4943230000000  0.5167210000000 1.0
C      1  0.4906180000000  0.5104390000000  0.5247210000000 1.0
C      1  0.5267340000000  0.4999990000000  0.4952510000000 1.0
C      1  0.5135780000000  0.5138140000000  0.5132160000000 1.0
C      1  0.5487630000000  0.5429400000000  0.5495680000000 1.0
C      1  0.5521410000000  0.4580960000000  0.4491550000000 1.0
C      1  0.4481520000000  0.4508810000000  0.5514840000000 1.0
C      1  0.4501660000000  0.5471440000000  0.4497300000000 1.0
C      1  0.5094180000000  0.4903060000000  0.4780460000000 1.0
END
