TITL C-69760-3241-1 39.7580106222392 125000 -510.627329774739 0 0 81 (D3h) n - 1
REM
REM in /rds/project/t2_vol4/rds-t2-cs072/BORA/CARBON/from-Arr/AIRSS/Generating-Clusters/GAP-ML-2020/Higher-Symm/SD-CG/HFTN-CG
REM
REM
REM
REM
REM
REM ./C.cell (b20cbc046b6831c77cfcea5457e17084)
REM AIRSS Version 0.9.1 bugfix July 2018 build 013d7b7c2542+ Fri, 06 Jul 2018 19:26:36 +0100
REM compiler GCC version 9.3.0
REM options -cpp -mtune=generic -march=x86-64 -g -O0
REM seed -1172397750 819712349 1700395452 -1384366147 -238003819 -1226395379 -340749548 10903924 708335837 1882504600 1638828722 939346562 1590279813 -556151817 738850633 -1385031464 -468358418 -1890962715 -2092272196 993293960 282020435 -1882213865 1127109351 -432689590 -1785688086 2127585664 1365718422 1905955864 1311526077 828606210 -614427296 -296793052 -1471901798
REM
CELL 1.54180   50.00000   50.00000   50.00000   90.00000   90.00000   90.00000
LATT -1
SFAC C  
C      1  0.4857590000000  0.5149740000000  0.4330470000000 1.0
C      1  0.4857600000000  0.4345300000000  0.5205080000000 1.0
C      1  0.4857590000000  0.5504950000000  0.5464450000000 1.0
C      1  0.5154200000000  0.5149750000000  0.4330470000000 1.0
C      1  0.5154220000000  0.4345300000000  0.5205080000000 1.0
C      1  0.5154200000000  0.5504960000000  0.5464450000000 1.0
C      1  0.4857590000000  0.4850360000000  0.4330450000000 1.0
C      1  0.4857580000000  0.5654660000000  0.5205190000000 1.0
C      1  0.4857600000000  0.4494970000000  0.5464360000000 1.0
C      1  0.5154210000000  0.4850370000000  0.4330450000000 1.0
C      1  0.5154200000000  0.5654670000000  0.5205190000000 1.0
C      1  0.5154220000000  0.4494970000000  0.5464360000000 1.0
C      1  0.5618300000000  0.5375300000000  0.4553330000000 1.0
C      1  0.5618310000000  0.4425540000000  0.4898320000000 1.0
C      1  0.5618300000000  0.5199190000000  0.5548340000000 1.0
C      1  0.4393490000000  0.5375280000000  0.4553340000000 1.0
C      1  0.4393500000000  0.4425520000000  0.4898320000000 1.0
C      1  0.4393490000000  0.5199170000000  0.5548350000000 1.0
C      1  0.5618310000000  0.4624790000000  0.4553270000000 1.0
C      1  0.5618290000000  0.5574500000000  0.4898410000000 1.0
C      1  0.5618310000000  0.4800740000000  0.5548310000000 1.0
C      1  0.4393500000000  0.4624770000000  0.4553270000000 1.0
C      1  0.4393480000000  0.5574480000000  0.4898420000000 1.0
C      1  0.4393500000000  0.4800720000000  0.5548320000000 1.0
C      1  0.4785850000000  0.4559590000000  0.4984500000000 1.0
C      1  0.4785840000000  0.5206780000000  0.5389160000000 1.0
C      1  0.4785840000000  0.5233620000000  0.4626340000000 1.0
C      1  0.5225960000000  0.4559590000000  0.4984500000000 1.0
C      1  0.5225950000000  0.5206790000000  0.5389150000000 1.0
C      1  0.5225950000000  0.5233630000000  0.4626340000000 1.0
C      1  0.4785840000000  0.5440410000000  0.4984580000000 1.0
C      1  0.4785850000000  0.4793150000000  0.5389120000000 1.0
C      1  0.4785850000000  0.4766430000000  0.4626300000000 1.0
C      1  0.5225950000000  0.5440420000000  0.4984580000000 1.0
C      1  0.5225960000000  0.4793150000000  0.5389120000000 1.0
C      1  0.5225960000000  0.4766440000000  0.4626300000000 1.0
C      1  0.4516420000000  0.4694660000000  0.5005550000000 1.0
C      1  0.4516410000000  0.5157470000000  0.5261650000000 1.0
C      1  0.4516410000000  0.5147850000000  0.4732800000000 1.0
C      1  0.5495390000000  0.4694670000000  0.5005550000000 1.0
C      1  0.5495390000000  0.5157480000000  0.5261650000000 1.0
C      1  0.5495380000000  0.5147870000000  0.4732790000000 1.0
C      1  0.4516410000000  0.5305320000000  0.5005610000000 1.0
C      1  0.4516420000000  0.4842470000000  0.5261630000000 1.0
C      1  0.4516410000000  0.4852180000000  0.4732770000000 1.0
C      1  0.5495380000000  0.5305340000000  0.5005600000000 1.0
C      1  0.5495390000000  0.4842490000000  0.5261620000000 1.0
C      1  0.5495390000000  0.4852190000000  0.4732770000000 1.0
C      1  0.5149490000000  0.5462720000000  0.4307670000000 1.0
C      1  0.5149510000000  0.4169070000000  0.4945440000000 1.0
C      1  0.5149500000000  0.5368220000000  0.5746890000000 1.0
C      1  0.4862290000000  0.5462720000000  0.4307670000000 1.0
C      1  0.4862310000000  0.4169070000000  0.4945440000000 1.0
C      1  0.4862300000000  0.5368210000000  0.5746890000000 1.0
C      1  0.5149500000000  0.4537400000000  0.4307590000000 1.0
C      1  0.5149480000000  0.5830940000000  0.4945580000000 1.0
C      1  0.5149510000000  0.4631660000000  0.5746830000000 1.0
C      1  0.4862310000000  0.4537390000000  0.4307600000000 1.0
C      1  0.4862290000000  0.5830940000000  0.4945580000000 1.0
C      1  0.4862310000000  0.4631660000000  0.5746830000000 1.0
C      1  0.4675940000000  0.5154890000000  0.5679610000000 1.0
C      1  0.4675930000000  0.5511100000000  0.4526050000000 1.0
C      1  0.4675950000000  0.4333990000000  0.4794350000000 1.0
C      1  0.5335860000000  0.5154910000000  0.5679610000000 1.0
C      1  0.5335850000000  0.5511110000000  0.4526050000000 1.0
C      1  0.5335870000000  0.4334000000000  0.4794340000000 1.0
C      1  0.4675950000000  0.4844980000000  0.5679580000000 1.0
C      1  0.4675950000000  0.4488970000000  0.4525970000000 1.0
C      1  0.4675930000000  0.5666040000000  0.4794460000000 1.0
C      1  0.5335860000000  0.4844990000000  0.5679580000000 1.0
C      1  0.5335860000000  0.4488980000000  0.4525960000000 1.0
C      1  0.5335850000000  0.5666050000000  0.4794450000000 1.0
C      1  0.4227430000000  0.5539550000000  0.4688550000000 1.0
C      1  0.4227450000000  0.4999930000000  0.5623010000000 1.0
C      1  0.5784360000000  0.4460500000000  0.4688450000000 1.0
C      1  0.5784360000000  0.4999960000000  0.5623000000000 1.0
C      1  0.5784340000000  0.5539580000000  0.4688540000000 1.0
C      1  0.4227450000000  0.4460480000000  0.4688460000000 1.0
C      1  0.5005900000000  0.4714630000000  0.4835210000000 1.0
C      1  0.5005890000000  0.5285390000000  0.4835260000000 1.0
C      1  0.5005900000000  0.4999970000000  0.5329530000000 1.0
END
