TITL C-69769-1713-6 0.0212668616713415 125000 -343.996292712459 0 0 50 (C5) n - 1
REM
REM in /rds/project/t2_vol4/rds-t2-cs072/BORA/CARBON/from-Arr/AIRSS/Generating-Clusters/GAP-ML-2020/Higher-Symm/SD-CG/HFTN-CG
REM
REM
REM
REM
REM
REM ./C.cell (b20cbc046b6831c77cfcea5457e17084)
REM AIRSS Version 0.9.1 bugfix July 2018 build 013d7b7c2542+ Fri, 06 Jul 2018 19:26:36 +0100
REM compiler GCC version 9.3.0
REM options -cpp -mtune=generic -march=x86-64 -g -O0
REM seed 1903316935 -1131340750 -804131653 -1985440839 -521990889 1611588880 -884757068 -1476553986 -767247041 -1989570211 -1013146373 2011561080 787464468 1094432025 541139566 61749560 -538323186 -1827799782 1543819254 -1859821760 -1406767361 92729602 1924761361 -552315565 -1603015457 -1938113612 568342112 456138498 147261234 -1652883910 -1304719447 -1151149100 -693285942
REM
CELL 1.54180   50.00000   50.00000   50.00000   90.00000   90.00000   90.00000
LATT -1
SFAC C  
C      1  0.5250570000000  0.5550610000000  0.5322810000000 1.0
C      1  0.5246820000000  0.5480780000000  0.4577990000000 1.0
C      1  0.5254810000000  0.4750880000000  0.4414190000000 1.0
C      1  0.5263490000000  0.4369600000000  0.5057770000000 1.0
C      1  0.5260870000000  0.4863860000000  0.5619340000000 1.0
C      1  0.5035320000000  0.5144120000000  0.5213280000000 1.0
C      1  0.5032280000000  0.5247870000000  0.4929120000000 1.0
C      1  0.5034060000000  0.5009680000000  0.4742610000000 1.0
C      1  0.5038200000000  0.4758720000000  0.4911500000000 1.0
C      1  0.5038980000000  0.4841810000000  0.5202390000000 1.0
C      1  0.5019390000000  0.5652500000000  0.5208920000000 1.0
C      1  0.5017760000000  0.5400640000000  0.4444170000000 1.0
C      1  0.5027710000000  0.4595550000000  0.4447340000000 1.0
C      1  0.5035480000000  0.4349840000000  0.5214050000000 1.0
C      1  0.5030340000000  0.5003070000000  0.5684730000000 1.0
C      1  0.5256640000000  0.5260850000000  0.4416610000000 1.0
C      1  0.5266630000000  0.4529580000000  0.4573540000000 1.0
C      1  0.5272170000000  0.4452900000000  0.5317570000000 1.0
C      1  0.5265620000000  0.5136780000000  0.5620480000000 1.0
C      1  0.5256010000000  0.5636130000000  0.5063650000000 1.0
C      1  0.4760360000000  0.5589950000000  0.5122280000000 1.0
C      1  0.4759990000000  0.5295190000000  0.4474960000000 1.0
C      1  0.4769200000000  0.4588520000000  0.4555220000000 1.0
C      1  0.4775260000000  0.4446530000000  0.5252150000000 1.0
C      1  0.4769800000000  0.5065440000000  0.5602610000000 1.0
C      1  0.5508660000000  0.4864890000000  0.5190590000000 1.0
C      1  0.5505190000000  0.5146800000000  0.5191190000000 1.0
C      1  0.5502450000000  0.5234450000000  0.4923240000000 1.0
C      1  0.5504230000000  0.5006720000000  0.4757050000000 1.0
C      1  0.5508070000000  0.4778320000000  0.4922280000000 1.0
C      1  0.4619850000000  0.4881950000000  0.5447100000000 1.0
C      1  0.4612430000000  0.5383190000000  0.5247610000000 1.0
C      1  0.4609530000000  0.5348320000000  0.4709210000000 1.0
C      1  0.4615150000000  0.4825530000000  0.4575960000000 1.0
C      1  0.4621530000000  0.4537300000000  0.5032010000000 1.0
C      1  0.4432400000000  0.4934280000000  0.5242370000000 1.0
C      1  0.4428420000000  0.5201980000000  0.5133170000000 1.0
C      1  0.4426900000000  0.5180840000000  0.4844810000000 1.0
C      1  0.4429930000000  0.4900080000000  0.4775790000000 1.0
C      1  0.4433330000000  0.4747690000000  0.5021490000000 1.0
C      1  0.4805630000000  0.5237950000000  0.5389310000000 1.0
C      1  0.4800060000000  0.5440950000000  0.4892570000000 1.0
C      1  0.4802970000000  0.5031270000000  0.4545950000000 1.0
C      1  0.4810340000000  0.4575070000000  0.4828470000000 1.0
C      1  0.4811990000000  0.4702810000000  0.5349690000000 1.0
C      1  0.5288620000000  0.5424770000000  0.4865690000000 1.0
C      1  0.5291850000000  0.5007750000000  0.4556680000000 1.0
C      1  0.5298930000000  0.4585040000000  0.4857800000000 1.0
C      1  0.5300070000000  0.4740820000000  0.5352920000000 1.0
C      1  0.5293700000000  0.5259800000000  0.5357790000000 1.0
END
