TITL C-69499-8901-8 -0.00796742387411913 125000 -73.1440644080124 0 0 11 (Cs) n - 1
REM
REM in /rds/project/t2_vol4/rds-t2-cs072/BORA/CARBON/from-Arr/AIRSS/Generating-Clusters/GAP-ML-2020/Higher-Symm/SD-CG/HFTN-CG
REM
REM
REM
REM
REM
REM ./C.cell (b20cbc046b6831c77cfcea5457e17084)
REM AIRSS Version 0.9.1 bugfix July 2018 build 013d7b7c2542+ Fri, 06 Jul 2018 19:26:36 +0100
REM compiler GCC version 9.3.0
REM options -cpp -mtune=generic -march=x86-64 -g -O0
REM seed 1830349061 1509035465 1278917852 99417383 642600364 -593571354 754231207 -352012101 1345449731 1907475407 -1366823798 -56357410 -1644410355 267077312 376752136 1259008153 1724594971 1416090070 -483449304 -1269518722 1401413641 -884802355 -676166214 -593764335 965290412 -1044466062 -953423619 -378834201 1970031690 544459378 -208258104 74497148 -2034009072
REM
CELL 1.54180   50.00000   50.00000   50.00000   90.00000   90.00000   90.00000
LATT -1
SFAC C  
C      1  0.4890120000000  0.5000000000000  0.4550320000000 1.0
C      1  0.5150680000000  0.5000000000000  0.4562300000000 1.0
C      1  0.5363400000000  0.5000000000000  0.4713250000000 1.0
C      1  0.5460740000000  0.5000000000000  0.4955240000000 1.0
C      1  0.5411800000000  0.5000000000000  0.5211440000000 1.0
C      1  0.5232120000000  0.5000000000000  0.5400510000000 1.0
C      1  0.4978740000000  0.5000000000000  0.5462420000000 1.0
C      1  0.4732110000000  0.5000000000000  0.5377520000000 1.0
C      1  0.4570540000000  0.5000000000000  0.5172760000000 1.0
C      1  0.4545310000000  0.5000000000000  0.4913150000000 1.0
C      1  0.4664450000000  0.5000000000000  0.4681110000000 1.0
END
