TITL C-69763-1688-3 536.605050693467 125000 -611.192762234391 0 0 91 (C1) n - 1
REM
REM in /rds/project/t2_vol4/rds-t2-cs072/BORA/CARBON/from-Arr/AIRSS/Generating-Clusters/GAP-ML-2020/Higher-Symm/SD-CG/HFTN-CG
REM
REM
REM
REM
REM
REM ./C.cell (b20cbc046b6831c77cfcea5457e17084)
REM AIRSS Version 0.9.1 bugfix July 2018 build 013d7b7c2542+ Fri, 06 Jul 2018 19:26:36 +0100
REM compiler GCC version 9.3.0
REM options -cpp -mtune=generic -march=x86-64 -g -O0
REM seed -1429971881 513737111 -1963199651 -1042455086 -82746700 -1584369536 228071153 -1813355656 -1122249408 -1047159120 1356382029 -172807942 -381965832 2126575944 -1137965989 409728375 1997377061 1082755577 -1404243823 -487428400 -556454071 524318165 -204459045 1102549283 449901640 725100005 -939681302 1340361061 -1967160515 1903804021 -1539547446 1880326885 -301132785
REM
CELL 1.54180   50.00000   50.00000   50.00000   90.00000   90.00000   90.00000
LATT -1
SFAC C  
C      1  0.5417260000000  0.4199470000000  0.5140070000000 1.0
C      1  0.4586440000000  0.4165750000000  0.4848090000000 1.0
C      1  0.5382600000000  0.5820790000000  0.5115510000000 1.0
C      1  0.4600970000000  0.5838190000000  0.4897110000000 1.0
C      1  0.5386840000000  0.4167070000000  0.4884980000000 1.0
C      1  0.4604480000000  0.4148890000000  0.5107410000000 1.0
C      1  0.5417370000000  0.5799450000000  0.4860420000000 1.0
C      1  0.4569300000000  0.5839900000000  0.5157550000000 1.0
C      1  0.4668530000000  0.4846480000000  0.5739000000000 1.0
C      1  0.5335810000000  0.4833140000000  0.4259920000000 1.0
C      1  0.4662210000000  0.5127260000000  0.5754950000000 1.0
C      1  0.5339170000000  0.5113970000000  0.4250570000000 1.0
C      1  0.4658720000000  0.4868240000000  0.4239420000000 1.0
C      1  0.5346080000000  0.4878080000000  0.5746510000000 1.0
C      1  0.4665610000000  0.5149770000000  0.4256230000000 1.0
C      1  0.5338330000000  0.5157100000000  0.5747290000000 1.0
C      1  0.5113500000000  0.5144960000000  0.4778170000000 1.0
C      1  0.4693570000000  0.5211070000000  0.5162630000000 1.0
C      1  0.5361790000000  0.4791650000000  0.4807760000000 1.0
C      1  0.4684780000000  0.4773350000000  0.5136600000000 1.0
C      1  0.5302500000000  0.5151550000000  0.5213100000000 1.0
C      1  0.4671420000000  0.5244000000000  0.4861260000000 1.0
C      1  0.5128310000000  0.4907740000000  0.5196860000000 1.0
C      1  0.4707910000000  0.4804060000000  0.4832370000000 1.0
C      1  0.5680530000000  0.4880190000000  0.5377180000000 1.0
C      1  0.4433130000000  0.4855480000000  0.4684010000000 1.0
C      1  0.5593750000000  0.5159560000000  0.5324770000000 1.0
C      1  0.4417620000000  0.5175460000000  0.4696170000000 1.0
C      1  0.5621330000000  0.4810750000000  0.4666460000000 1.0
C      1  0.4424680000000  0.4827090000000  0.5300020000000 1.0
C      1  0.5682490000000  0.5102530000000  0.4613890000000 1.0
C      1  0.4426820000000  0.5147460000000  0.5316100000000 1.0
C      1  0.5369920000000  0.4507180000000  0.5559060000000 1.0
C      1  0.4642330000000  0.4487090000000  0.4424930000000 1.0
C      1  0.5329850000000  0.5525570000000  0.5551350000000 1.0
C      1  0.4680980000000  0.5533250000000  0.4441960000000 1.0
C      1  0.5322710000000  0.4456180000000  0.4442510000000 1.0
C      1  0.4686960000000  0.4468070000000  0.5546440000000 1.0
C      1  0.5367890000000  0.5482360000000  0.4445760000000 1.0
C      1  0.4642470000000  0.5512680000000  0.5580560000000 1.0
C      1  0.5843810000000  0.4719270000000  0.5179860000000 1.0
C      1  0.4192940000000  0.4702080000000  0.4821280000000 1.0
C      1  0.5808730000000  0.5311870000000  0.5145260000000 1.0
C      1  0.4175110000000  0.5307780000000  0.4852010000000 1.0
C      1  0.5841670000000  0.4673340000000  0.4847890000000 1.0
C      1  0.4185950000000  0.4687890000000  0.5143330000000 1.0
C      1  0.5827720000000  0.5272120000000  0.4815110000000 1.0
C      1  0.4182390000000  0.5295350000000  0.5175950000000 1.0
C      1  0.5136600000000  0.4593580000000  0.5154620000000 1.0
C      1  0.4860170000000  0.4549490000000  0.4821360000000 1.0
C      1  0.5149840000000  0.5415440000000  0.5161240000000 1.0
C      1  0.4831210000000  0.5503620000000  0.4862580000000 1.0
C      1  0.5168710000000  0.4573510000000  0.4839890000000 1.0
C      1  0.4849350000000  0.4523310000000  0.5142740000000 1.0
C      1  0.5117070000000  0.5433720000000  0.4845770000000 1.0
C      1  0.4843680000000  0.5466500000000  0.5179720000000 1.0
C      1  0.4503100000000  0.4697990000000  0.5555730000000 1.0
C      1  0.5517310000000  0.4680470000000  0.4422960000000 1.0
C      1  0.4476150000000  0.5267210000000  0.5583050000000 1.0
C      1  0.5536340000000  0.5241000000000  0.4424070000000 1.0
C      1  0.4476970000000  0.4731610000000  0.4418770000000 1.0
C      1  0.5543950000000  0.4744750000000  0.5580310000000 1.0
C      1  0.4500230000000  0.5301430000000  0.4438250000000 1.0
C      1  0.5520020000000  0.5302790000000  0.5576390000000 1.0
C      1  0.5159440000000  0.5351690000000  0.4275520000000 1.0
C      1  0.4848230000000  0.5366620000000  0.5731870000000 1.0
C      1  0.5129510000000  0.4614930000000  0.4283050000000 1.0
C      1  0.4875640000000  0.4622690000000  0.5720560000000 1.0
C      1  0.5134480000000  0.5375510000000  0.5714390000000 1.0
C      1  0.4873030000000  0.5375880000000  0.4272220000000 1.0
C      1  0.5161220000000  0.4644410000000  0.5722010000000 1.0
C      1  0.4843350000000  0.4628030000000  0.4264330000000 1.0
C      1  0.6044410000000  0.4594430000000  0.5298780000000 1.0
C      1  0.3980900000000  0.4621690000000  0.4682490000000 1.0
C      1  0.6004190000000  0.5448990000000  0.5263430000000 1.0
C      1  0.3970400000000  0.5413490000000  0.4725570000000 1.0
C      1  0.6022780000000  0.4514210000000  0.4737050000000 1.0
C      1  0.3978810000000  0.4583280000000  0.5267760000000 1.0
C      1  0.6033810000000  0.5399890000000  0.4707440000000 1.0
C      1  0.3968130000000  0.5372410000000  0.5311930000000 1.0
C      1  0.4704820000000  0.5709860000000  0.4683790000000 1.0
C      1  0.5287770000000  0.5642070000000  0.5295000000000 1.0
C      1  0.4698330000000  0.4347680000000  0.4673070000000 1.0
C      1  0.5321940000000  0.4402170000000  0.5299010000000 1.0
C      1  0.4686530000000  0.5664270000000  0.5337060000000 1.0
C      1  0.5316710000000  0.5599490000000  0.4700900000000 1.0
C      1  0.4716050000000  0.4307050000000  0.5299330000000 1.0
C      1  0.5284720000000  0.4335250000000  0.4699540000000 1.0
C      1  0.4856760000000  0.4978920000000  0.5223430000000 1.0
C      1  0.4852370000000  0.5046970000000  0.4763940000000 1.0
C      1  0.5284650000000  0.5013490000000  0.4954640000000 1.0
END
