TITL C-69500-8879-4 0.106841640840192 125000 -178.505751010777 0 0 27 (C1) n - 1
REM
REM in /rds/project/t2_vol4/rds-t2-cs072/BORA/CARBON/from-Arr/AIRSS/Generating-Clusters/GAP-ML-2020/Higher-Symm/SD-CG/HFTN-CG
REM
REM
REM
REM
REM
REM ./C.cell (b20cbc046b6831c77cfcea5457e17084)
REM AIRSS Version 0.9.1 bugfix July 2018 build 013d7b7c2542+ Fri, 06 Jul 2018 19:26:36 +0100
REM compiler GCC version 9.3.0
REM options -cpp -mtune=generic -march=x86-64 -g -O0
REM seed 243006087 -1929575227 -1133725962 902010886 1896665109 329948569 1001362211 -1190704187 -56162381 -1486545220 -222030204 -2050078858 -272943429 1972242930 83416919 1447734533 1506967731 -101488171 -553874255 18124813 1928804149 -1192278235 -1438625737 -1344181048 -172526078 1558023145 1410806573 -1964287526 -2091684415 238086085 1080563607 939408577 993035359
REM
CELL 1.54180   50.00000   50.00000   50.00000   90.00000   90.00000   90.00000
LATT -1
SFAC C  
C      1  0.5096760000000  0.4632130000000  0.4662540000000 1.0
C      1  0.5106180000000  0.5464750000000  0.4865980000000 1.0
C      1  0.5169230000000  0.5003000000000  0.5429960000000 1.0
C      1  0.4805780000000  0.4616060000000  0.4657460000000 1.0
C      1  0.4821240000000  0.5468780000000  0.4813210000000 1.0
C      1  0.4895820000000  0.4912120000000  0.5435330000000 1.0
C      1  0.5034120000000  0.4448320000000  0.5320740000000 1.0
C      1  0.5064980000000  0.5552700000000  0.5145530000000 1.0
C      1  0.5104360000000  0.4871840000000  0.4493930000000 1.0
C      1  0.4827970000000  0.4652650000000  0.5329900000000 1.0
C      1  0.4770480000000  0.5512080000000  0.5108600000000 1.0
C      1  0.4801120000000  0.4860400000000  0.4471350000000 1.0
C      1  0.5268430000000  0.5245240000000  0.4779590000000 1.0
C      1  0.5226640000000  0.5267740000000  0.5537290000000 1.0
C      1  0.5246810000000  0.4592360000000  0.4892710000000 1.0
C      1  0.4694340000000  0.5336100000000  0.4615520000000 1.0
C      1  0.4715570000000  0.5129780000000  0.5423660000000 1.0
C      1  0.4661830000000  0.4572250000000  0.4883860000000 1.0
C      1  0.5176440000000  0.5449870000000  0.5366100000000 1.0
C      1  0.5220430000000  0.5106680000000  0.4541850000000 1.0
C      1  0.5149010000000  0.4428120000000  0.5095740000000 1.0
C      1  0.4662350000000  0.5335570000000  0.5290140000000 1.0
C      1  0.4693220000000  0.5101130000000  0.4515510000000 1.0
C      1  0.4632920000000  0.4597530000000  0.5135080000000 1.0
C      1  0.5344480000000  0.4957200000000  0.5217140000000 1.0
C      1  0.5409070000000  0.4804280000000  0.4996880000000 1.0
C      1  0.5405080000000  0.5081330000000  0.4974410000000 1.0
END
