TITL C-70310-8969-2 -0.277587496742644 125000 -1262.03333384677 0 0 178 (S4) n - 1
REM
REM in /rds/project/t2_vol4/rds-t2-cs072/BORA/CARBON/from-Arr/AIRSS/Generating-Clusters/GAP-ML-2020/Higher-Symm/SD-CG/HFTN-CG/C160-200
REM
REM
REM
REM
REM
REM ./C.cell (6b4489405718ea1b717e0baf1da4c2d9)
REM AIRSS Version 0.9.1 bugfix July 2018 build 013d7b7c2542+ Fri, 06 Jul 2018 19:26:36 +0100
REM compiler GCC version 9.3.0
REM options -cpp -mtune=generic -march=x86-64 -g -O0
REM seed 596689539 -30089004 1334195312 702934330 -1211216917 -1765204557 1352981928 -1936702660 -183719622 -1716940579 199557093 -1218674700 2018824854 646761051 -641171652 1361282967 -1923628606 57667403 1910165929 642745432 743074792 938438068 -271628075 -984607880 -2014966926 1436189700 269377043 -1032646218 1279365441 -1176118248 -1425355125 -1223390107 -1903094690
REM
CELL 1.54180   50.00000   50.00000   50.00000   90.00000   90.00000   90.00000
LATT -1
SFAC C  
C      1  0.5276960000000  0.5035890000000  0.3943640000000 1.0
C      1  0.3943350000000  0.4965680000000  0.4722780000000 1.0
C      1  0.4722530000000  0.5030830000000  0.6056620000000 1.0
C      1  0.6056330000000  0.4967600000000  0.5277210000000 1.0
C      1  0.5263040000000  0.4193700000000  0.5716620000000 1.0
C      1  0.5716820000000  0.5806790000000  0.4739600000000 1.0
C      1  0.4738860000000  0.4195850000000  0.4280250000000 1.0
C      1  0.4280440000000  0.5803660000000  0.5263770000000 1.0
C      1  0.5948260000000  0.4568810000000  0.5536410000000 1.0
C      1  0.5536390000000  0.5434160000000  0.4053090000000 1.0
C      1  0.4052570000000  0.4568250000000  0.4461970000000 1.0
C      1  0.4461950000000  0.5428780000000  0.5948770000000 1.0
C      1  0.4538970000000  0.5923630000000  0.5284240000000 1.0
C      1  0.5283440000000  0.4074610000000  0.5457680000000 1.0
C      1  0.5457950000000  0.5926100000000  0.4719620000000 1.0
C      1  0.4718810000000  0.4075650000000  0.4538710000000 1.0
C      1  0.5090600000000  0.5647690000000  0.5225580000000 1.0
C      1  0.5224930000000  0.4352500000000  0.4907010000000 1.0
C      1  0.4907110000000  0.5648330000000  0.4777160000000 1.0
C      1  0.4776520000000  0.4351480000000  0.5090500000000 1.0
C      1  0.5962790000000  0.5170720000000  0.4585230000000 1.0
C      1  0.4584860000000  0.4832860000000  0.4036480000000 1.0
C      1  0.4036300000000  0.5166260000000  0.5415570000000 1.0
C      1  0.5415210000000  0.4830170000000  0.5962970000000 1.0
C      1  0.4907770000000  0.3984660000000  0.4718400000000 1.0
C      1  0.4718710000000  0.6015170000000  0.5095600000000 1.0
C      1  0.5094750000000  0.3983810000000  0.5277620000000 1.0
C      1  0.5277940000000  0.6016360000000  0.4908620000000 1.0
C      1  0.4185260000000  0.5715640000000  0.5003090000000 1.0
C      1  0.5002410000000  0.4281550000000  0.5812110000000 1.0
C      1  0.5812260000000  0.5717990000000  0.4999930000000 1.0
C      1  0.4999240000000  0.4284830000000  0.4185120000000 1.0
C      1  0.4654050000000  0.5824090000000  0.4362040000000 1.0
C      1  0.4361290000000  0.4175090000000  0.5342950000000 1.0
C      1  0.5343160000000  0.5822500000000  0.5641410000000 1.0
C      1  0.5640660000000  0.4178320000000  0.4653850000000 1.0
C      1  0.4263010000000  0.4373210000000  0.4355660000000 1.0
C      1  0.4355760000000  0.5624610000000  0.5739010000000 1.0
C      1  0.5738380000000  0.4372740000000  0.5641930000000 1.0
C      1  0.5642020000000  0.5629440000000  0.4263650000000 1.0
C      1  0.5051200000000  0.4517620000000  0.5985630000000 1.0
C      1  0.5985630000000  0.5481990000000  0.4950320000000 1.0
C      1  0.4949770000000  0.4521450000000  0.4012560000000 1.0
C      1  0.4012560000000  0.5478940000000  0.5051740000000 1.0
C      1  0.4339350000000  0.5173350000000  0.4433080000000 1.0
C      1  0.4432710000000  0.4824690000000  0.5659900000000 1.0
C      1  0.5659730000000  0.5172960000000  0.5567740000000 1.0
C      1  0.5567370000000  0.4829000000000  0.4339530000000 1.0
C      1  0.4615290000000  0.5047390000000  0.4478980000000 1.0
C      1  0.4478680000000  0.4951580000000  0.5384400000000 1.0
C      1  0.5384160000000  0.5046390000000  0.5521330000000 1.0
C      1  0.5521030000000  0.4954640000000  0.4615530000000 1.0
C      1  0.5679300000000  0.5772170000000  0.5257980000000 1.0
C      1  0.5257260000000  0.4230030000000  0.4317880000000 1.0
C      1  0.4318050000000  0.5771250000000  0.4745260000000 1.0
C      1  0.4744550000000  0.4226550000000  0.5679130000000 1.0
C      1  0.4927760000000  0.5699700000000  0.4263380000000 1.0
C      1  0.4262710000000  0.4300480000000  0.5069670000000 1.0
C      1  0.5069800000000  0.5696920000000  0.5739560000000 1.0
C      1  0.5738890000000  0.4302900000000  0.4927630000000 1.0
C      1  0.4449000000000  0.5146190000000  0.5988590000000 1.0
C      1  0.5988230000000  0.4851330000000  0.5550340000000 1.0
C      1  0.5550150000000  0.5151770000000  0.4012140000000 1.0
C      1  0.4011780000000  0.4850710000000  0.4449180000000 1.0
C      1  0.4841920000000  0.4756490000000  0.6032950000000 1.0
C      1  0.6032820000000  0.5242370000000  0.5158770000000 1.0
C      1  0.5158350000000  0.4761120000000  0.3966200000000 1.0
C      1  0.3966070000000  0.5240020000000  0.4842330000000 1.0
C      1  0.3976550000000  0.4505110000000  0.4730870000000 1.0
C      1  0.4730890000000  0.5491500000000  0.6025010000000 1.0
C      1  0.6024450000000  0.4506980000000  0.5267260000000 1.0
C      1  0.5267270000000  0.5496410000000  0.3977110000000 1.0
C      1  0.4980620000000  0.4875210000000  0.5623470000000 1.0
C      1  0.5623270000000  0.5124360000000  0.5019660000000 1.0
C      1  0.5019320000000  0.4877790000000  0.4376150000000 1.0
C      1  0.4375950000000  0.5122640000000  0.4980960000000 1.0
C      1  0.5188770000000  0.4067400000000  0.4781680000000 1.0
C      1  0.4781940000000  0.5933370000000  0.4814320000000 1.0
C      1  0.4813510000000  0.4065990000000  0.5214680000000 1.0
C      1  0.5214950000000  0.5933240000000  0.5189580000000 1.0
C      1  0.4663190000000  0.4560610000000  0.4024350000000 1.0
C      1  0.4024340000000  0.5438780000000  0.5338180000000 1.0
C      1  0.5337660000000  0.4557650000000  0.5973990000000 1.0
C      1  0.5973970000000  0.5442960000000  0.4663720000000 1.0
C      1  0.5772630000000  0.5252780000000  0.5280260000000 1.0
C      1  0.5279840000000  0.4749730000000  0.4226350000000 1.0
C      1  0.4226220000000  0.5251680000000  0.4720890000000 1.0
C      1  0.4720470000000  0.4745800000000  0.5772760000000 1.0
C      1  0.4777400000000  0.5121700000000  0.4732840000000 1.0
C      1  0.4732500000000  0.4877680000000  0.5222030000000 1.0
C      1  0.5221830000000  0.5121260000000  0.5267770000000 1.0
C      1  0.5267430000000  0.4879350000000  0.4777600000000 1.0
C      1  0.5368520000000  0.4737910000000  0.5425500000000 1.0
C      1  0.5425370000000  0.5263120000000  0.4632240000000 1.0
C      1  0.4631810000000  0.4738560000000  0.4573570000000 1.0
C      1  0.4573450000000  0.5260410000000  0.5368950000000 1.0
C      1  0.5893420000000  0.4493180000000  0.4758770000000 1.0
C      1  0.4758790000000  0.5510050000000  0.4108190000000 1.0
C      1  0.4107630000000  0.4489630000000  0.5239300000000 1.0
C      1  0.5239330000000  0.5507140000000  0.5893990000000 1.0
C      1  0.4616640000000  0.4930470000000  0.4944950000000 1.0
C      1  0.4944720000000  0.5068230000000  0.5383450000000 1.0
C      1  0.5383140000000  0.4931360000000  0.5054900000000 1.0
C      1  0.5054660000000  0.5069940000000  0.4616950000000 1.0
C      1  0.5808850000000  0.5645100000000  0.4522500000000 1.0
C      1  0.4521860000000  0.4357980000000  0.4188780000000 1.0
C      1  0.4188880000000  0.5640830000000  0.5480220000000 1.0
C      1  0.5479580000000  0.4356090000000  0.5808750000000 1.0
C      1  0.5750810000000  0.5544230000000  0.5392600000000 1.0
C      1  0.5392020000000  0.4458140000000  0.4247160000000 1.0
C      1  0.4247200000000  0.5543640000000  0.4609720000000 1.0
C      1  0.4609130000000  0.4453980000000  0.5750770000000 1.0
C      1  0.5412240000000  0.5801340000000  0.4265200000000 1.0
C      1  0.4264470000000  0.4200510000000  0.4584850000000 1.0
C      1  0.4585040000000  0.5797180000000  0.5738150000000 1.0
C      1  0.5737420000000  0.4200970000000  0.5412050000000 1.0
C      1  0.5641870000000  0.4537700000000  0.4336670000000 1.0
C      1  0.4336670000000  0.5464900000000  0.4359590000000 1.0
C      1  0.4359050000000  0.4533180000000  0.5661580000000 1.0
C      1  0.5661570000000  0.5464220000000  0.5642410000000 1.0
C      1  0.4545860000000  0.5331620000000  0.5092280000000 1.0
C      1  0.5091820000000  0.4666750000000  0.5452840000000 1.0
C      1  0.5452760000000  0.5333300000000  0.4909180000000 1.0
C      1  0.4908720000000  0.4668320000000  0.4545940000000 1.0
C      1  0.5181130000000  0.5729910000000  0.4103140000000 1.0
C      1  0.4102440000000  0.4271240000000  0.4816200000000 1.0
C      1  0.4816350000000  0.5725750000000  0.5899930000000 1.0
C      1  0.5899240000000  0.4273100000000  0.5180980000000 1.0
C      1  0.5108840000000  0.5261470000000  0.3941970000000 1.0
C      1  0.3941550000000  0.4739520000000  0.4890120000000 1.0
C      1  0.4890000000000  0.5256880000000  0.6059200000000 1.0
C      1  0.6058780000000  0.4742130000000  0.5108960000000 1.0
C      1  0.4855500000000  0.3872980000000  0.4972600000000 1.0
C      1  0.4972980000000  0.6126530000000  0.5148250000000 1.0
C      1  0.5147330000000  0.3873300000000  0.5022970000000 1.0
C      1  0.5023350000000  0.6127190000000  0.4856420000000 1.0
C      1  0.4756520000000  0.5373810000000  0.4898010000000 1.0
C      1  0.4897520000000  0.4625410000000  0.5242040000000 1.0
C      1  0.5241980000000  0.5374090000000  0.5103630000000 1.0
C      1  0.5103140000000  0.4626690000000  0.4756570000000 1.0
C      1  0.5175440000000  0.5328710000000  0.4536580000000 1.0
C      1  0.4536120000000  0.4672170000000  0.4823280000000 1.0
C      1  0.4823200000000  0.5326320000000  0.5464870000000 1.0
C      1  0.5464410000000  0.4672800000000  0.5175520000000 1.0
C      1  0.4563350000000  0.5903370000000  0.4621310000000 1.0
C      1  0.4620510000000  0.4095340000000  0.5433370000000 1.0
C      1  0.5433620000000  0.5903090000000  0.5382470000000 1.0
C      1  0.5381670000000  0.4098200000000  0.4563100000000 1.0
C      1  0.4325880000000  0.4887790000000  0.4067740000000 1.0
C      1  0.4067540000000  0.5110420000000  0.5674360000000 1.0
C      1  0.5674020000000  0.4885970000000  0.5931920000000 1.0
C      1  0.5931720000000  0.5115830000000  0.4326220000000 1.0
C      1  0.4702970000000  0.5834780000000  0.5491160000000 1.0
C      1  0.5490410000000  0.4163920000000  0.5293990000000 1.0
C      1  0.5294200000000  0.5837600000000  0.4512340000000 1.0
C      1  0.4511590000000  0.4163700000000  0.4702760000000 1.0
C      1  0.5785020000000  0.4385330000000  0.4519830000000 1.0
C      1  0.4519910000000  0.5617660000000  0.4216970000000 1.0
C      1  0.4216340000000  0.4381130000000  0.5477810000000 1.0
C      1  0.5477890000000  0.5615880000000  0.5785650000000 1.0
C      1  0.5068040000000  0.5618950000000  0.4535110000000 1.0
C      1  0.4534480000000  0.4381560000000  0.4929680000000 1.0
C      1  0.4929760000000  0.5616860000000  0.5467510000000 1.0
C      1  0.5466890000000  0.4382630000000  0.5067950000000 1.0
C      1  0.5735840000000  0.5013270000000  0.4176050000000 1.0
C      1  0.4175770000000  0.4989760000000  0.4263970000000 1.0
C      1  0.4263710000000  0.5007820000000  0.5824110000000 1.0
C      1  0.5823840000000  0.4989160000000  0.5736110000000 1.0
C      1  0.5785440000000  0.4990120000000  0.4774900000000 1.0
C      1  0.4774630000000  0.5012730000000  0.4214450000000 1.0
C      1  0.4214170000000  0.4986940000000  0.5225180000000 1.0
C      1  0.5224920000000  0.5010210000000  0.5785720000000 1.0
C      1  0.5955410000000  0.4748830000000  0.4847850000000 1.0
C      1  0.4847720000000  0.5254570000000  0.4045320000000 1.0
C      1  0.4044900000000  0.4745460000000  0.5151250000000 1.0
C      1  0.5151130000000  0.5251150000000  0.5955830000000 1.0
C      1  0.5000510000000  0.4500600000000  0.4999050000000 1.0
C      1  0.4999070000000  0.5499400000000  0.5001070000000 1.0
END
