TITL C-70316-8489-3 -0.279604501129899 125000 -1213.54346889912 0 0 174 (C1) n - 1
REM
REM in /rds/project/t2_vol4/rds-t2-cs072/BORA/CARBON/from-Arr/AIRSS/Generating-Clusters/GAP-ML-2020/Higher-Symm/SD-CG/HFTN-CG/C160-200
REM
REM
REM
REM
REM
REM ./C.cell (6b4489405718ea1b717e0baf1da4c2d9)
REM AIRSS Version 0.9.1 bugfix July 2018 build 013d7b7c2542+ Fri, 06 Jul 2018 19:26:36 +0100
REM compiler GCC version 9.3.0
REM options -cpp -mtune=generic -march=x86-64 -g -O0
REM seed -1487552439 -10902740 22371932 1655111684 -233942390 -1905545065 -903093443 -803330795 871136211 -1070388493 1517915848 -1782647870 1418235161 -223389222 -1524806882 698872011 420481323 96792910 2065131011 559735865 -589818322 -1984211007 -550570219 -320330550 -1396609244 -700058487 -498184967 439452041 1547908717 1921823997 232304092 -1211707048 -396144008
REM
CELL 1.54180   50.00000   50.00000   50.00000   90.00000   90.00000   90.00000
LATT -1
SFAC C  
C      1  0.5556660000000  0.4336200000000  0.5475680000000 1.0
C      1  0.5289420000000  0.5761270000000  0.5518210000000 1.0
C      1  0.4179750000000  0.4964180000000  0.5432320000000 1.0
C      1  0.4463800000000  0.4342550000000  0.4485390000000 1.0
C      1  0.4694930000000  0.5782190000000  0.4485590000000 1.0
C      1  0.5839290000000  0.4873200000000  0.4485980000000 1.0
C      1  0.4815170000000  0.5608500000000  0.5529870000000 1.0
C      1  0.4546860000000  0.4572170000000  0.5410870000000 1.0
C      1  0.5671590000000  0.4828650000000  0.5408930000000 1.0
C      1  0.5165790000000  0.5645580000000  0.4593420000000 1.0
C      1  0.5500100000000  0.4509880000000  0.4562150000000 1.0
C      1  0.4355770000000  0.4822770000000  0.4575550000000 1.0
C      1  0.5700320000000  0.4970200000000  0.4254200000000 1.0
C      1  0.4692650000000  0.5629040000000  0.4239270000000 1.0
C      1  0.4613220000000  0.4406770000000  0.4244720000000 1.0
C      1  0.4116410000000  0.4948250000000  0.5731440000000 1.0
C      1  0.5316090000000  0.5608690000000  0.5766860000000 1.0
C      1  0.5436180000000  0.4393800000000  0.5728090000000 1.0
C      1  0.5422940000000  0.5938760000000  0.5077780000000 1.0
C      1  0.3919870000000  0.4947200000000  0.4983960000000 1.0
C      1  0.5604990000000  0.4109890000000  0.5031620000000 1.0
C      1  0.4508520000000  0.5934790000000  0.4903790000000 1.0
C      1  0.6051220000000  0.4930930000000  0.4940580000000 1.0
C      1  0.4417600000000  0.4151790000000  0.4960760000000 1.0
C      1  0.3932030000000  0.5071620000000  0.4724900000000 1.0
C      1  0.5484230000000  0.4043780000000  0.4780380000000 1.0
C      1  0.5539840000000  0.5891830000000  0.4814100000000 1.0
C      1  0.6059650000000  0.5060600000000  0.5197790000000 1.0
C      1  0.4533460000000  0.4098330000000  0.5218110000000 1.0
C      1  0.4459340000000  0.5732730000000  0.5113650000000 1.0
C      1  0.4558960000000  0.5438110000000  0.4974550000000 1.0
C      1  0.4886530000000  0.4536360000000  0.4960690000000 1.0
C      1  0.5458410000000  0.5170820000000  0.4959670000000 1.0
C      1  0.5311390000000  0.5380740000000  0.5080790000000 1.0
C      1  0.5142260000000  0.4471040000000  0.5071350000000 1.0
C      1  0.4553510000000  0.5203520000000  0.5172320000000 1.0
C      1  0.5535980000000  0.5399250000000  0.5757950000000 1.0
C      1  0.4253010000000  0.5029280000000  0.5928750000000 1.0
C      1  0.5146510000000  0.4314040000000  0.5766430000000 1.0
C      1  0.4477930000000  0.5414310000000  0.4233200000000 1.0
C      1  0.5614620000000  0.5256150000000  0.4258140000000 1.0
C      1  0.4902300000000  0.4338080000000  0.4255890000000 1.0
C      1  0.3984900000000  0.5356540000000  0.5257470000000 1.0
C      1  0.5202820000000  0.4048850000000  0.5350390000000 1.0
C      1  0.5698590000000  0.5598640000000  0.5344420000000 1.0
C      1  0.5868510000000  0.5319120000000  0.4668260000000 1.0
C      1  0.4833790000000  0.4103380000000  0.4679290000000 1.0
C      1  0.4255950000000  0.5631630000000  0.4605620000000 1.0
C      1  0.5888460000000  0.4486550000000  0.5165400000000 1.0
C      1  0.4901170000000  0.5962180000000  0.5234660000000 1.0
C      1  0.4141880000000  0.4545770000000  0.5169670000000 1.0
C      1  0.4090850000000  0.4487450000000  0.4783320000000 1.0
C      1  0.4975650000000  0.6008030000000  0.4831500000000 1.0
C      1  0.5914610000000  0.4473720000000  0.4775780000000 1.0
C      1  0.5002450000000  0.3916490000000  0.5151210000000 1.0
C      1  0.5932880000000  0.5541500000000  0.5148280000000 1.0
C      1  0.4003380000000  0.5575670000000  0.5069100000000 1.0
C      1  0.5008680000000  0.3921550000000  0.4865210000000 1.0
C      1  0.4015910000000  0.5560680000000  0.4781640000000 1.0
C      1  0.5916410000000  0.5556080000000  0.4864150000000 1.0
C      1  0.4458360000000  0.5383200000000  0.4705430000000 1.0
C      1  0.4899540000000  0.4406010000000  0.4716930000000 1.0
C      1  0.5563670000000  0.5244960000000  0.4715030000000 1.0
C      1  0.5480140000000  0.5369140000000  0.5299800000000 1.0
C      1  0.5083750000000  0.4359360000000  0.5317470000000 1.0
C      1  0.4382400000000  0.5201600000000  0.5436630000000 1.0
C      1  0.4842380000000  0.5302130000000  0.5547770000000 1.0
C      1  0.4810660000000  0.4714570000000  0.5485430000000 1.0
C      1  0.5398970000000  0.4940310000000  0.5479710000000 1.0
C      1  0.5134750000000  0.5353110000000  0.4535180000000 1.0
C      1  0.5246710000000  0.4682600000000  0.4517520000000 1.0
C      1  0.4637900000000  0.4953330000000  0.4537490000000 1.0
C      1  0.5379890000000  0.5828720000000  0.4581360000000 1.0
C      1  0.4101170000000  0.4956340000000  0.4524770000000 1.0
C      1  0.5508940000000  0.4223480000000  0.4557700000000 1.0
C      1  0.4633900000000  0.5801210000000  0.5362830000000 1.0
C      1  0.5930340000000  0.4940040000000  0.5424270000000 1.0
C      1  0.4512050000000  0.4289340000000  0.5436040000000 1.0
C      1  0.6022850000000  0.4652860000000  0.4969770000000 1.0
C      1  0.4745900000000  0.6058120000000  0.4985630000000 1.0
C      1  0.4203970000000  0.4326210000000  0.4991100000000 1.0
C      1  0.3979600000000  0.4675830000000  0.4974060000000 1.0
C      1  0.5154860000000  0.6016310000000  0.5054190000000 1.0
C      1  0.5821910000000  0.4281880000000  0.4979310000000 1.0
C      1  0.4510030000000  0.5062420000000  0.6068010000000 1.0
C      1  0.5197220000000  0.4702890000000  0.5966370000000 1.0
C      1  0.5198340000000  0.5203750000000  0.5966720000000 1.0
C      1  0.5287910000000  0.5034980000000  0.4055410000000 1.0
C      1  0.4893450000000  0.4739320000000  0.4063410000000 1.0
C      1  0.4842700000000  0.5234160000000  0.4062370000000 1.0
C      1  0.4654570000000  0.5302620000000  0.6091300000000 1.0
C      1  0.5029810000000  0.4484110000000  0.5986160000000 1.0
C      1  0.5476910000000  0.5174470000000  0.5958580000000 1.0
C      1  0.5388980000000  0.5294270000000  0.4056110000000 1.0
C      1  0.5061490000000  0.4516870000000  0.4054690000000 1.0
C      1  0.4567200000000  0.5189560000000  0.4043860000000 1.0
C      1  0.3994400000000  0.5345220000000  0.4357390000000 1.0
C      1  0.5195070000000  0.3961010000000  0.4424030000000 1.0
C      1  0.5768890000000  0.5707190000000  0.4443050000000 1.0
C      1  0.6009790000000  0.5342880000000  0.5570960000000 1.0
C      1  0.4813870000000  0.3989520000000  0.5579590000000 1.0
C      1  0.4230130000000  0.5687540000000  0.5509640000000 1.0
C      1  0.4294670000000  0.4547240000000  0.4593340000000 1.0
C      1  0.5760040000000  0.4613280000000  0.4582700000000 1.0
C      1  0.4920970000000  0.5742450000000  0.4695600000000 1.0
C      1  0.5632500000000  0.4571180000000  0.5294190000000 1.0
C      1  0.4344540000000  0.4735320000000  0.5285110000000 1.0
C      1  0.5035830000000  0.5708250000000  0.5362260000000 1.0
C      1  0.5989800000000  0.5076020000000  0.5673820000000 1.0
C      1  0.4478870000000  0.5782200000000  0.5619860000000 1.0
C      1  0.4621690000000  0.4176630000000  0.5681660000000 1.0
C      1  0.4054430000000  0.5077420000000  0.4267500000000 1.0
C      1  0.5526640000000  0.5808800000000  0.4331240000000 1.0
C      1  0.5403900000000  0.4124650000000  0.4311690000000 1.0
C      1  0.4511770000000  0.4916680000000  0.5079740000000 1.0
C      1  0.5371000000000  0.4645060000000  0.5100750000000 1.0
C      1  0.5028540000000  0.5440520000000  0.5134770000000 1.0
C      1  0.5345330000000  0.4902570000000  0.4958830000000 1.0
C      1  0.4782530000000  0.4818050000000  0.5003500000000 1.0
C      1  0.4851940000000  0.5487620000000  0.4900430000000 1.0
C      1  0.4604670000000  0.5153970000000  0.5622170000000 1.0
C      1  0.5056320000000  0.4540180000000  0.5552890000000 1.0
C      1  0.5374880000000  0.5237690000000  0.5540330000000 1.0
C      1  0.5395950000000  0.5196300000000  0.4481910000000 1.0
C      1  0.4971890000000  0.4549250000000  0.4474440000000 1.0
C      1  0.4612890000000  0.5256430000000  0.4476520000000 1.0
C      1  0.5157040000000  0.4854270000000  0.4736430000000 1.0
C      1  0.4964800000000  0.5255790000000  0.4762590000000 1.0
C      1  0.4870990000000  0.4972440000000  0.4759500000000 1.0
C      1  0.4935430000000  0.4905600000000  0.5256510000000 1.0
C      1  0.4858150000000  0.5204620000000  0.5276610000000 1.0
C      1  0.5231060000000  0.4880060000000  0.5240510000000 1.0
C      1  0.4945770000000  0.4076240000000  0.4399230000000 1.0
C      1  0.5814340000000  0.5436280000000  0.4398150000000 1.0
C      1  0.4212890000000  0.5515010000000  0.4333650000000 1.0
C      1  0.5082600000000  0.4052160000000  0.5626490000000 1.0
C      1  0.4170510000000  0.5415300000000  0.5472920000000 1.0
C      1  0.5782130000000  0.5497670000000  0.5614880000000 1.0
C      1  0.5247730000000  0.3903860000000  0.4710640000000 1.0
C      1  0.5783910000000  0.5769460000000  0.4731240000000 1.0
C      1  0.3904080000000  0.5340780000000  0.4637870000000 1.0
C      1  0.4759270000000  0.3941900000000  0.5296810000000 1.0
C      1  0.4189310000000  0.5737000000000  0.5223700000000 1.0
C      1  0.6071280000000  0.5332610000000  0.5281790000000 1.0
C      1  0.5502990000000  0.5823970000000  0.5332840000000 1.0
C      1  0.3979120000000  0.5076820000000  0.5230820000000 1.0
C      1  0.5486920000000  0.4113610000000  0.5300190000000 1.0
C      1  0.4459030000000  0.5845130000000  0.4636510000000 1.0
C      1  0.5969210000000  0.5041300000000  0.4684410000000 1.0
C      1  0.4543050000000  0.4152270000000  0.4695200000000 1.0
C      1  0.4654210000000  0.4822120000000  0.5958280000000 1.0
C      1  0.5459810000000  0.4649930000000  0.5885800000000 1.0
C      1  0.5105300000000  0.5474550000000  0.5922830000000 1.0
C      1  0.5479020000000  0.4830820000000  0.4106290000000 1.0
C      1  0.4619350000000  0.4673450000000  0.4105390000000 1.0
C      1  0.4918380000000  0.5507750000000  0.4092650000000 1.0
C      1  0.5349260000000  0.4556120000000  0.4037390000000 1.0
C      1  0.5216890000000  0.5532710000000  0.4035160000000 1.0
C      1  0.4457430000000  0.4918750000000  0.4018310000000 1.0
C      1  0.4748420000000  0.4546140000000  0.6016630000000 1.0
C      1  0.4800300000000  0.5513190000000  0.5993860000000 1.0
C      1  0.5615030000000  0.4910120000000  0.5959900000000 1.0
C      1  0.5865140000000  0.4989570000000  0.5897200000000 1.0
C      1  0.4689010000000  0.5687230000000  0.5788740000000 1.0
C      1  0.4632720000000  0.4326440000000  0.5905790000000 1.0
C      1  0.4198540000000  0.4990850000000  0.4053160000000 1.0
C      1  0.5396680000000  0.5723210000000  0.4108840000000 1.0
C      1  0.5410840000000  0.4303140000000  0.4106750000000 1.0
C      1  0.5104500000000  0.5261310000000  0.5687290000000 1.0
C      1  0.4691550000000  0.4889550000000  0.5692810000000 1.0
C      1  0.5258860000000  0.4739860000000  0.5663330000000 1.0
C      1  0.4894670000000  0.5304830000000  0.4355640000000 1.0
C      1  0.5316710000000  0.4930180000000  0.4355410000000 1.0
C      1  0.4802800000000  0.4771180000000  0.4353660000000 1.0
END
