TITL C-70140-662-4 127.881680911574 125000 -850.896475285772 0 0 122 (C1) n - 1
REM
REM in /rds/project/t2_vol4/rds-t2-cs072/BORA/CARBON/from-Arr/AIRSS/Generating-Clusters/GAP-ML-2020/Higher-Symm/SD-CG/HFTN-CG
REM
REM
REM
REM
REM
REM ./C.cell (b20cbc046b6831c77cfcea5457e17084)
REM AIRSS Version 0.9.1 bugfix July 2018 build 013d7b7c2542+ Fri, 06 Jul 2018 19:26:36 +0100
REM compiler GCC version 9.3.0
REM options -cpp -mtune=generic -march=x86-64 -g -O0
REM seed -948328440 379195048 -731242928 -179186553 697946497 1366209533 -1557102888 460454557 1341364941 -2000845173 -1817096452 2128732250 -1397909425 2056573498 -1075411208 1455691507 181955368 -373527749 1509270680 1405989384 2124699170 1277652569 -1706383467 -599828897 1910156208 -1578907552 -438051473 -298181328 327271646 -1497778120 -439375092 -295154350 24980414
REM
CELL 1.54180   50.00000   50.00000   50.00000   90.00000   90.00000   90.00000
LATT -1
SFAC C  
C      1  0.5608590000000  0.4796760000000  0.4418800000000 1.0
C      1  0.5400070000000  0.4441000000000  0.4770590000000 1.0
C      1  0.5381580000000  0.4469660000000  0.5233680000000 1.0
C      1  0.5616870000000  0.4762520000000  0.5613480000000 1.0
C      1  0.5433800000000  0.5331260000000  0.5461620000000 1.0
C      1  0.5603850000000  0.5735900000000  0.4985710000000 1.0
C      1  0.5719610000000  0.5449490000000  0.4632610000000 1.0
C      1  0.5322930000000  0.5692770000000  0.4579600000000 1.0
C      1  0.5518400000000  0.5055680000000  0.4321660000000 1.0
C      1  0.5356580000000  0.4373690000000  0.4476340000000 1.0
C      1  0.5282710000000  0.3975830000000  0.4989000000000 1.0
C      1  0.5396830000000  0.4593180000000  0.5720920000000 1.0
C      1  0.5386440000000  0.5234890000000  0.5767020000000 1.0
C      1  0.5385400000000  0.5871540000000  0.5113250000000 1.0
C      1  0.6131610000000  0.4697370000000  0.4950480000000 1.0
C      1  0.6195100000000  0.4639510000000  0.5191650000000 1.0
C      1  0.6025710000000  0.4842290000000  0.5295850000000 1.0
C      1  0.6008340000000  0.5320230000000  0.5381040000000 1.0
C      1  0.6009050000000  0.5577750000000  0.5293530000000 1.0
C      1  0.5993210000000  0.5127080000000  0.4923460000000 1.0
C      1  0.5993110000000  0.4874710000000  0.4781790000000 1.0
C      1  0.4525450000000  0.5805540000000  0.5187170000000 1.0
C      1  0.4438750000000  0.5689400000000  0.4419170000000 1.0
C      1  0.4347710000000  0.5032360000000  0.4093060000000 1.0
C      1  0.4513660000000  0.4409710000000  0.4465360000000 1.0
C      1  0.4499220000000  0.4089360000000  0.5124000000000 1.0
C      1  0.4545620000000  0.4612770000000  0.5648900000000 1.0
C      1  0.4521750000000  0.5335770000000  0.5761300000000 1.0
C      1  0.4146560000000  0.4380970000000  0.5135800000000 1.0
C      1  0.4212480000000  0.4998510000000  0.5485750000000 1.0
C      1  0.4284670000000  0.5272850000000  0.5443900000000 1.0
C      1  0.4239290000000  0.5582620000000  0.5021550000000 1.0
C      1  0.4234950000000  0.5272910000000  0.4522120000000 1.0
C      1  0.4124400000000  0.5010790000000  0.4508120000000 1.0
C      1  0.4161000000000  0.4389130000000  0.4839550000000 1.0
C      1  0.4677610000000  0.4720250000000  0.4852890000000 1.0
C      1  0.4666220000000  0.4793690000000  0.5109890000000 1.0
C      1  0.4817700000000  0.4989900000000  0.5251020000000 1.0
C      1  0.4748270000000  0.5280130000000  0.5204650000000 1.0
C      1  0.4885980000000  0.5353260000000  0.4932300000000 1.0
C      1  0.4728170000000  0.5220840000000  0.4682290000000 1.0
C      1  0.4790380000000  0.4925600000000  0.4657770000000 1.0
C      1  0.5225860000000  0.6002360000000  0.4926400000000 1.0
C      1  0.5320930000000  0.5470280000000  0.4391280000000 1.0
C      1  0.5240980000000  0.5039850000000  0.4235150000000 1.0
C      1  0.5259800000000  0.4118290000000  0.4569190000000 1.0
C      1  0.5315350000000  0.3987200000000  0.5261620000000 1.0
C      1  0.5306890000000  0.4822210000000  0.5877720000000 1.0
C      1  0.5411300000000  0.5529900000000  0.5803500000000 1.0
C      1  0.5248050000000  0.5793740000000  0.5355810000000 1.0
C      1  0.5122240000000  0.5813430000000  0.4749250000000 1.0
C      1  0.5110370000000  0.5299560000000  0.4298620000000 1.0
C      1  0.5171240000000  0.4749160000000  0.4236880000000 1.0
C      1  0.5072880000000  0.4024690000000  0.4781200000000 1.0
C      1  0.5246510000000  0.4380690000000  0.5607740000000 1.0
C      1  0.5153090000000  0.5061630000000  0.5879210000000 1.0
C      1  0.4725330000000  0.5651960000000  0.4396600000000 1.0
C      1  0.4630400000000  0.4996890000000  0.4109950000000 1.0
C      1  0.4811410000000  0.4420840000000  0.4484830000000 1.0
C      1  0.4773190000000  0.4119650000000  0.5195600000000 1.0
C      1  0.4833190000000  0.4643850000000  0.5659660000000 1.0
C      1  0.4801000000000  0.5386090000000  0.5704690000000 1.0
C      1  0.4806420000000  0.5825600000000  0.5118560000000 1.0
C      1  0.4452630000000  0.5277410000000  0.5208580000000 1.0
C      1  0.4294560000000  0.5302670000000  0.4972840000000 1.0
C      1  0.4438620000000  0.5272770000000  0.4718680000000 1.0
C      1  0.4052490000000  0.4917980000000  0.4764450000000 1.0
C      1  0.4029280000000  0.4649430000000  0.4849080000000 1.0
C      1  0.4032200000000  0.4649290000000  0.5143590000000 1.0
C      1  0.4081170000000  0.4912040000000  0.5242370000000 1.0
C      1  0.4410880000000  0.4868630000000  0.5666050000000 1.0
C      1  0.4355200000000  0.5493340000000  0.5600960000000 1.0
C      1  0.4357250000000  0.5807320000000  0.4943990000000 1.0
C      1  0.4276210000000  0.5470130000000  0.4321460000000 1.0
C      1  0.4237080000000  0.4856170000000  0.4290610000000 1.0
C      1  0.4374360000000  0.4271110000000  0.4680030000000 1.0
C      1  0.4337720000000  0.4249690000000  0.5295050000000 1.0
C      1  0.4379670000000  0.5322410000000  0.4105740000000 1.0
C      1  0.4445900000000  0.4656680000000  0.4346270000000 1.0
C      1  0.4538960000000  0.4113270000000  0.4843880000000 1.0
C      1  0.4512570000000  0.4363560000000  0.5500730000000 1.0
C      1  0.4578670000000  0.5059240000000  0.5802710000000 1.0
C      1  0.4525530000000  0.5666860000000  0.5435620000000 1.0
C      1  0.4465860000000  0.5829510000000  0.4676880000000 1.0
C      1  0.5185800000000  0.5255840000000  0.4987850000000 1.0
C      1  0.5251250000000  0.5067810000000  0.4808630000000 1.0
C      1  0.5086540000000  0.4869470000000  0.4735870000000 1.0
C      1  0.5127540000000  0.4604010000000  0.4857930000000 1.0
C      1  0.5156710000000  0.4638560000000  0.5148930000000 1.0
C      1  0.5111610000000  0.4903300000000  0.5288240000000 1.0
C      1  0.5311890000000  0.5132070000000  0.5235100000000 1.0
C      1  0.5404390000000  0.4607970000000  0.4331910000000 1.0
C      1  0.5437330000000  0.4136080000000  0.4810490000000 1.0
C      1  0.5349660000000  0.4228590000000  0.5384270000000 1.0
C      1  0.5545870000000  0.4975970000000  0.5793720000000 1.0
C      1  0.5358570000000  0.5610690000000  0.5544910000000 1.0
C      1  0.5572490000000  0.5680300000000  0.4712110000000 1.0
C      1  0.5568950000000  0.5324160000000  0.4418430000000 1.0
C      1  0.5706310000000  0.5304030000000  0.5327700000000 1.0
C      1  0.5789580000000  0.5537190000000  0.5094860000000 1.0
C      1  0.5863080000000  0.5365760000000  0.4858480000000 1.0
C      1  0.5761880000000  0.4749470000000  0.4664840000000 1.0
C      1  0.5631540000000  0.4589720000000  0.4860400000000 1.0
C      1  0.5622610000000  0.4588010000000  0.5142830000000 1.0
C      1  0.5727760000000  0.4796350000000  0.5328540000000 1.0
C      1  0.4772970000000  0.4251140000000  0.5451480000000 1.0
C      1  0.4937440000000  0.4902410000000  0.5527850000000 1.0
C      1  0.4804570000000  0.5528310000000  0.5446000000000 1.0
C      1  0.4890250000000  0.5672150000000  0.4874940000000 1.0
C      1  0.4824830000000  0.5365080000000  0.4367600000000 1.0
C      1  0.4701780000000  0.4819170000000  0.4337590000000 1.0
C      1  0.4869350000000  0.4463120000000  0.4781510000000 1.0
C      1  0.4888780000000  0.5102770000000  0.5751460000000 1.0
C      1  0.4973330000000  0.5750740000000  0.5336390000000 1.0
C      1  0.4752130000000  0.5786280000000  0.4649320000000 1.0
C      1  0.4668740000000  0.5281010000000  0.4131950000000 1.0
C      1  0.4919170000000  0.4628180000000  0.4306480000000 1.0
C      1  0.4840310000000  0.4177430000000  0.4888610000000 1.0
C      1  0.4964340000000  0.4397330000000  0.5610330000000 1.0
C      1  0.6074900000000  0.5104260000000  0.5200400000000 1.0
C      1  0.5611870000000  0.5056530000000  0.5199710000000 1.0
C      1  0.4096310000000  0.5072770000000  0.4999060000000 1.0
END
