TITL C-70143-634-4 -0.443425496394319 125000 -757.650230419969 0 0 109 (C1) n - 1
REM
REM in /rds/project/t2_vol4/rds-t2-cs072/BORA/CARBON/from-Arr/AIRSS/Generating-Clusters/GAP-ML-2020/Higher-Symm/SD-CG/HFTN-CG
REM
REM
REM
REM
REM
REM ./C.cell (b20cbc046b6831c77cfcea5457e17084)
REM AIRSS Version 0.9.1 bugfix July 2018 build 013d7b7c2542+ Fri, 06 Jul 2018 19:26:36 +0100
REM compiler GCC version 9.3.0
REM options -cpp -mtune=generic -march=x86-64 -g -O0
REM seed 1062990319 -24372805 1530647413 1428826937 1319499081 -1755905780 -1390626831 2068111325 -929725327 1594032878 1999627647 -1280869142 -1608697529 -535908684 -2059129792 -294830782 1425650582 -349269382 1148863098 -296406236 21507709 548213505 -939477893 2145464803 -343744473 -627355787 461016101 -1921967434 -2135132254 263994745 -850546872 -1984385441 -1315177123
REM
CELL 1.54180   50.00000   50.00000   50.00000   90.00000   90.00000   90.00000
LATT -1
SFAC C  
C      1  0.5243180000000  0.4068850000000  0.5330630000000 1.0
C      1  0.5756940000000  0.5292460000000  0.5059710000000 1.0
C      1  0.4786790000000  0.5702380000000  0.4539820000000 1.0
C      1  0.4923600000000  0.4300360000000  0.5649570000000 1.0
C      1  0.4459230000000  0.4638650000000  0.4449450000000 1.0
C      1  0.4402090000000  0.5371730000000  0.5543940000000 1.0
C      1  0.5556610000000  0.4356360000000  0.5080400000000 1.0
C      1  0.5231300000000  0.4020730000000  0.4931560000000 1.0
C      1  0.5493270000000  0.4873950000000  0.4907890000000 1.0
C      1  0.5421630000000  0.5931640000000  0.5204620000000 1.0
C      1  0.4759700000000  0.5360600000000  0.4175320000000 1.0
C      1  0.4987090000000  0.5058220000000  0.5797540000000 1.0
C      1  0.5541720000000  0.5098930000000  0.5135620000000 1.0
C      1  0.5550760000000  0.5701540000000  0.5284660000000 1.0
C      1  0.4501340000000  0.5068370000000  0.4845980000000 1.0
C      1  0.4632960000000  0.4900000000000  0.5402320000000 1.0
C      1  0.5412420000000  0.5589320000000  0.5519260000000 1.0
C      1  0.5482510000000  0.4511740000000  0.5507180000000 1.0
C      1  0.4253630000000  0.5380650000000  0.4623640000000 1.0
C      1  0.5183760000000  0.5257580000000  0.4433530000000 1.0
C      1  0.4988670000000  0.5962350000000  0.4923040000000 1.0
C      1  0.5657300000000  0.4754280000000  0.4670490000000 1.0
C      1  0.5433270000000  0.4204040000000  0.4856230000000 1.0
C      1  0.5067600000000  0.4754520000000  0.5277500000000 1.0
C      1  0.4804580000000  0.5812240000000  0.5085660000000 1.0
C      1  0.4614430000000  0.4410610000000  0.4511180000000 1.0
C      1  0.5013540000000  0.5739300000000  0.5710970000000 1.0
C      1  0.5881320000000  0.4704730000000  0.4888200000000 1.0
C      1  0.5637250000000  0.5668560000000  0.4806050000000 1.0
C      1  0.4794650000000  0.5468680000000  0.4731900000000 1.0
C      1  0.4368000000000  0.4995900000000  0.5486750000000 1.0
C      1  0.5633850000000  0.5001780000000  0.4516460000000 1.0
C      1  0.4673000000000  0.4455260000000  0.5612420000000 1.0
C      1  0.4545530000000  0.4285350000000  0.4768070000000 1.0
C      1  0.4310330000000  0.5490020000000  0.4885660000000 1.0
C      1  0.4988670000000  0.5030630000000  0.4871190000000 1.0
C      1  0.5269260000000  0.3860270000000  0.5147710000000 1.0
C      1  0.4844560000000  0.5547590000000  0.5613460000000 1.0
C      1  0.4482330000000  0.5153860000000  0.5709200000000 1.0
C      1  0.5614700000000  0.5478070000000  0.4584920000000 1.0
C      1  0.5032480000000  0.5295570000000  0.4735510000000 1.0
C      1  0.4482360000000  0.5302670000000  0.4213500000000 1.0
C      1  0.4704650000000  0.4978790000000  0.5813450000000 1.0
C      1  0.5298050000000  0.4731240000000  0.4351150000000 1.0
C      1  0.5266520000000  0.5233520000000  0.5193980000000 1.0
C      1  0.5182340000000  0.4606620000000  0.4816840000000 1.0
C      1  0.5231560000000  0.4898130000000  0.4753440000000 1.0
C      1  0.4399260000000  0.4531900000000  0.5186350000000 1.0
C      1  0.4604400000000  0.5553190000000  0.5432540000000 1.0
C      1  0.4630220000000  0.4738550000000  0.5163430000000 1.0
C      1  0.4265040000000  0.5217500000000  0.5306690000000 1.0
C      1  0.5333720000000  0.4696460000000  0.5314280000000 1.0
C      1  0.4972920000000  0.4148630000000  0.5411580000000 1.0
C      1  0.5343550000000  0.5001700000000  0.4467210000000 1.0
C      1  0.5695190000000  0.5568600000000  0.5068230000000 1.0
C      1  0.4344120000000  0.4413760000000  0.4917600000000 1.0
C      1  0.5771210000000  0.4557400000000  0.5129070000000 1.0
C      1  0.5361110000000  0.5515950000000  0.4455580000000 1.0
C      1  0.4585010000000  0.4838450000000  0.4289150000000 1.0
C      1  0.4826120000000  0.5137970000000  0.5349420000000 1.0
C      1  0.4957550000000  0.5171810000000  0.4246810000000 1.0
C      1  0.5274850000000  0.5977650000000  0.4987820000000 1.0
C      1  0.5309500000000  0.4609900000000  0.5752180000000 1.0
C      1  0.4877660000000  0.4568690000000  0.5155230000000 1.0
C      1  0.4168600000000  0.4641080000000  0.4858100000000 1.0
C      1  0.4985280000000  0.4086990000000  0.4781690000000 1.0
C      1  0.5910660000000  0.5176400000000  0.4844910000000 1.0
C      1  0.4336900000000  0.5694370000000  0.5059800000000 1.0
C      1  0.5761370000000  0.5232160000000  0.4602420000000 1.0
C      1  0.4545100000000  0.5772450000000  0.5217700000000 1.0
C      1  0.5271300000000  0.5755780000000  0.5692650000000 1.0
C      1  0.4320240000000  0.5078800000000  0.4601300000000 1.0
C      1  0.4691990000000  0.5361620000000  0.5203760000000 1.0
C      1  0.5023170000000  0.4659540000000  0.4310420000000 1.0
C      1  0.4355730000000  0.5503070000000  0.4386350000000 1.0
C      1  0.6030440000000  0.4932190000000  0.4885330000000 1.0
C      1  0.5264060000000  0.5777240000000  0.4559970000000 1.0
C      1  0.5433380000000  0.5863290000000  0.4772360000000 1.0
C      1  0.4133660000000  0.4955120000000  0.5311480000000 1.0
C      1  0.4728450000000  0.4881420000000  0.4888510000000 1.0
C      1  0.4438030000000  0.5273450000000  0.5056890000000 1.0
C      1  0.5420460000000  0.5062670000000  0.5607540000000 1.0
C      1  0.4548010000000  0.4350780000000  0.5373320000000 1.0
C      1  0.5460240000000  0.4265920000000  0.5344240000000 1.0
C      1  0.5322270000000  0.4363670000000  0.4641370000000 1.0
C      1  0.4777050000000  0.4240350000000  0.5212060000000 1.0
C      1  0.4257160000000  0.4770450000000  0.4622400000000 1.0
C      1  0.5067930000000  0.4238120000000  0.4553000000000 1.0
C      1  0.4746000000000  0.4149160000000  0.4922940000000 1.0
C      1  0.5127500000000  0.4413610000000  0.5793910000000 1.0
C      1  0.4985590000000  0.5279010000000  0.5590420000000 1.0
C      1  0.4162470000000  0.4730880000000  0.5144840000000 1.0
C      1  0.5394990000000  0.4621990000000  0.5045760000000 1.0
C      1  0.4865600000000  0.5528910000000  0.5033840000000 1.0
C      1  0.4999310000000  0.5871260000000  0.4633100000000 1.0
C      1  0.4673530000000  0.4739170000000  0.5652070000000 1.0
C      1  0.4767650000000  0.5637910000000  0.4253170000000 1.0
C      1  0.4866630000000  0.4888740000000  0.4247110000000 1.0
C      1  0.5474540000000  0.4571830000000  0.4510840000000 1.0
C      1  0.4892250000000  0.4414000000000  0.4416440000000 1.0
C      1  0.5561760000000  0.4928790000000  0.5390030000000 1.0
C      1  0.5039470000000  0.5030070000000  0.5177720000000 1.0
C      1  0.4426220000000  0.5061470000000  0.4326070000000 1.0
C      1  0.5716770000000  0.4666910000000  0.5393860000000 1.0
C      1  0.4895640000000  0.4616040000000  0.4864970000000 1.0
C      1  0.5141890000000  0.5415640000000  0.4994730000000 1.0
C      1  0.4529020000000  0.5723810000000  0.4363690000000 1.0
C      1  0.5244560000000  0.4909490000000  0.5773580000000 1.0
C      1  0.5284370000000  0.5307590000000  0.5492610000000 1.0
END
