TITL C-70309-8841-1 -32.1484327686667 125000 -1412.94079257614 0 0 199 (C1) n - 1
REM
REM in /rds/project/t2_vol4/rds-t2-cs072/BORA/CARBON/from-Arr/AIRSS/Generating-Clusters/GAP-ML-2020/Higher-Symm/SD-CG/HFTN-CG/C160-200
REM
REM
REM
REM
REM
REM ./C.cell (6b4489405718ea1b717e0baf1da4c2d9)
REM AIRSS Version 0.9.1 bugfix July 2018 build 013d7b7c2542+ Fri, 06 Jul 2018 19:26:36 +0100
REM compiler GCC version 9.3.0
REM options -cpp -mtune=generic -march=x86-64 -g -O0
REM seed -1414274516 -1993271937 -332045179 -1109079811 1122768406 488693838 -2000768305 1800614306 1600330163 615755282 846796335 -1364162103 -1426754149 918690049 -166312836 -403888001 -297235279 752060570 117219264 -560613559 -620801236 -1370994192 -1962664616 556528327 1995949378 -218375674 758810570 -201158284 -306155271 1608185268 419515855 -1372346836 -1557218416
REM
CELL 1.54180   50.00000   50.00000   50.00000   90.00000   90.00000   90.00000
LATT -1
SFAC C  
C      1  0.5098050000000  0.6037550000000  0.5458740000000 1.0
C      1  0.5459160000000  0.6050500000000  0.5077570000000 1.0
C      1  0.5186920000000  0.6169090000000  0.4547230000000 1.0
C      1  0.4614300000000  0.6156720000000  0.4667120000000 1.0
C      1  0.4610930000000  0.6057430000000  0.5218370000000 1.0
C      1  0.5229030000000  0.3809040000000  0.5444300000000 1.0
C      1  0.5566560000000  0.3833520000000  0.5003470000000 1.0
C      1  0.5234950000000  0.3870350000000  0.4521680000000 1.0
C      1  0.4691300000000  0.3930880000000  0.4688470000000 1.0
C      1  0.4620600000000  0.3945700000000  0.5225210000000 1.0
C      1  0.4692500000000  0.4925470000000  0.4428280000000 1.0
C      1  0.4349150000000  0.5138350000000  0.5125070000000 1.0
C      1  0.4890470000000  0.4795980000000  0.5923220000000 1.0
C      1  0.5637160000000  0.4752620000000  0.5375260000000 1.0
C      1  0.5465800000000  0.4977160000000  0.4387300000000 1.0
C      1  0.4762090000000  0.5173210000000  0.4280330000000 1.0
C      1  0.4056510000000  0.5290120000000  0.5209930000000 1.0
C      1  0.4907870000000  0.4992410000000  0.5670560000000 1.0
C      1  0.5598510000000  0.4986320000000  0.5217690000000 1.0
C      1  0.5636630000000  0.5231750000000  0.4308760000000 1.0
C      1  0.5712340000000  0.5394890000000  0.4566710000000 1.0
C      1  0.5036140000000  0.5260150000000  0.4273660000000 1.0
C      1  0.3987870000000  0.5426230000000  0.4945480000000 1.0
C      1  0.4693090000000  0.5182520000000  0.5566800000000 1.0
C      1  0.5411060000000  0.5136480000000  0.5414280000000 1.0
C      1  0.5587500000000  0.4875420000000  0.4656460000000 1.0
C      1  0.4969840000000  0.4783410000000  0.4375440000000 1.0
C      1  0.4323060000000  0.4938320000000  0.4893660000000 1.0
C      1  0.4614520000000  0.4657760000000  0.5893420000000 1.0
C      1  0.5616250000000  0.4683730000000  0.5901660000000 1.0
C      1  0.4277160000000  0.4659030000000  0.4351720000000 1.0
C      1  0.4135200000000  0.4698370000000  0.5466180000000 1.0
C      1  0.5146840000000  0.4648660000000  0.5954840000000 1.0
C      1  0.6013870000000  0.4633820000000  0.5058560000000 1.0
C      1  0.5401580000000  0.4595370000000  0.4076130000000 1.0
C      1  0.4232850000000  0.5325420000000  0.4363440000000 1.0
C      1  0.4140410000000  0.5432210000000  0.5453720000000 1.0
C      1  0.5160050000000  0.5332570000000  0.5933210000000 1.0
C      1  0.5942100000000  0.5302740000000  0.5066960000000 1.0
C      1  0.5332720000000  0.5521070000000  0.4023920000000 1.0
C      1  0.5050820000000  0.6243990000000  0.5248690000000 1.0
C      1  0.5239480000000  0.6248830000000  0.5041950000000 1.0
C      1  0.5094440000000  0.6277370000000  0.4791550000000 1.0
C      1  0.4811160000000  0.6282330000000  0.4843850000000 1.0
C      1  0.4794550000000  0.6258670000000  0.5126430000000 1.0
C      1  0.5118190000000  0.3709090000000  0.5204450000000 1.0
C      1  0.5301220000000  0.3707660000000  0.4981540000000 1.0
C      1  0.5136260000000  0.3722490000000  0.4747810000000 1.0
C      1  0.4856610000000  0.3733510000000  0.4830790000000 1.0
C      1  0.4841530000000  0.3743140000000  0.5116860000000 1.0
C      1  0.4237450000000  0.4419320000000  0.5418530000000 1.0
C      1  0.5103590000000  0.4358340000000  0.5906160000000 1.0
C      1  0.5931990000000  0.4346360000000  0.5057910000000 1.0
C      1  0.5364260000000  0.4349530000000  0.4215930000000 1.0
C      1  0.4383210000000  0.4391060000000  0.4415060000000 1.0
C      1  0.4221880000000  0.5704110000000  0.5413610000000 1.0
C      1  0.5130280000000  0.5579300000000  0.5752820000000 1.0
C      1  0.5787550000000  0.5582650000000  0.5085480000000 1.0
C      1  0.5311930000000  0.5768600000000  0.4169740000000 1.0
C      1  0.4335220000000  0.5620460000000  0.4433100000000 1.0
C      1  0.3921300000000  0.5207570000000  0.4766190000000 1.0
C      1  0.4515250000000  0.5363460000000  0.5760160000000 1.0
C      1  0.5582800000000  0.5244040000000  0.5662470000000 1.0
C      1  0.5947480000000  0.5212180000000  0.4590100000000 1.0
C      1  0.4812230000000  0.5454860000000  0.3953180000000 1.0
C      1  0.4112820000000  0.4701900000000  0.4812370000000 1.0
C      1  0.4435020000000  0.4874190000000  0.5862540000000 1.0
C      1  0.5787290000000  0.4549000000000  0.5734390000000 1.0
C      1  0.5833040000000  0.4689910000000  0.4597340000000 1.0
C      1  0.4908910000000  0.4680190000000  0.4073460000000 1.0
C      1  0.5387690000000  0.4834830000000  0.5937010000000 1.0
C      1  0.5996600000000  0.4806150000000  0.4831460000000 1.0
C      1  0.5170460000000  0.4675140000000  0.3957480000000 1.0
C      1  0.4106540000000  0.4814160000000  0.4524110000000 1.0
C      1  0.4298180000000  0.4940770000000  0.5600210000000 1.0
C      1  0.5385660000000  0.5145380000000  0.5889560000000 1.0
C      1  0.6008990000000  0.5111110000000  0.4845330000000 1.0
C      1  0.5081140000000  0.5384960000000  0.4007090000000 1.0
C      1  0.4071790000000  0.5127540000000  0.4526450000000 1.0
C      1  0.4248130000000  0.5258940000000  0.5647770000000 1.0
C      1  0.4820080000000  0.5000830000000  0.6123620000000 1.0
C      1  0.6005580000000  0.4817070000000  0.5287940000000 1.0
C      1  0.5586530000000  0.4784320000000  0.4194510000000 1.0
C      1  0.4456650000000  0.4864640000000  0.4227340000000 1.0
C      1  0.3943990000000  0.4797990000000  0.5280930000000 1.0
C      1  0.4917820000000  0.5263410000000  0.6071940000000 1.0
C      1  0.5887610000000  0.5099360000000  0.5270660000000 1.0
C      1  0.5549490000000  0.5366340000000  0.4075180000000 1.0
C      1  0.4379710000000  0.5156640000000  0.4180600000000 1.0
C      1  0.3866170000000  0.5070180000000  0.5222910000000 1.0
C      1  0.5271160000000  0.5582140000000  0.4616410000000 1.0
C      1  0.4797180000000  0.5666410000000  0.4564750000000 1.0
C      1  0.4732810000000  0.5494240000000  0.5140870000000 1.0
C      1  0.5094610000000  0.5519470000000  0.5435980000000 1.0
C      1  0.5490520000000  0.5537260000000  0.5067410000000 1.0
C      1  0.5285690000000  0.4424060000000  0.4690810000000 1.0
C      1  0.4796070000000  0.4416990000000  0.4664300000000 1.0
C      1  0.4600210000000  0.4432730000000  0.5124910000000 1.0
C      1  0.5257710000000  0.4159960000000  0.5760710000000 1.0
C      1  0.5477310000000  0.4377970000000  0.5180230000000 1.0
C      1  0.5150720000000  0.5245670000000  0.5070790000000 1.0
C      1  0.5320900000000  0.5155040000000  0.4848150000000 1.0
C      1  0.5098510000000  0.5064270000000  0.4683560000000 1.0
C      1  0.4628100000000  0.5249330000000  0.4761410000000 1.0
C      1  0.4965080000000  0.5094180000000  0.5245560000000 1.0
C      1  0.5188110000000  0.4707020000000  0.5329450000000 1.0
C      1  0.5237980000000  0.4747000000000  0.5022110000000 1.0
C      1  0.5023850000000  0.4804390000000  0.4819030000000 1.0
C      1  0.4737960000000  0.4819890000000  0.4908410000000 1.0
C      1  0.4729580000000  0.4893240000000  0.5206270000000 1.0
C      1  0.5375920000000  0.5966590000000  0.5553020000000 1.0
C      1  0.5605370000000  0.6014800000000  0.4827730000000 1.0
C      1  0.4984670000000  0.6068880000000  0.4359470000000 1.0
C      1  0.4399730000000  0.6002880000000  0.4778710000000 1.0
C      1  0.4608740000000  0.6017940000000  0.5502350000000 1.0
C      1  0.5500520000000  0.3894340000000  0.5474650000000 1.0
C      1  0.5661980000000  0.3987170000000  0.4782830000000 1.0
C      1  0.5038460000000  0.4003590000000  0.4356870000000 1.0
C      1  0.4426700000000  0.4029260000000  0.4779810000000 1.0
C      1  0.4578230000000  0.4042510000000  0.5511990000000 1.0
C      1  0.5766450000000  0.4396060000000  0.4593370000000 1.0
C      1  0.4864580000000  0.4391780000000  0.4162930000000 1.0
C      1  0.4186250000000  0.4416570000000  0.4865760000000 1.0
C      1  0.4580330000000  0.4388270000000  0.5821520000000 1.0
C      1  0.5738240000000  0.4287370000000  0.5584970000000 1.0
C      1  0.5724250000000  0.5686080000000  0.4559260000000 1.0
C      1  0.4794600000000  0.5696750000000  0.4109130000000 1.0
C      1  0.4094150000000  0.5682370000000  0.4904260000000 1.0
C      1  0.4584390000000  0.5648080000000  0.5751350000000 1.0
C      1  0.5611190000000  0.5560900000000  0.5610010000000 1.0
C      1  0.4385670000000  0.4034580000000  0.5060130000000 1.0
C      1  0.4808120000000  0.4035660000000  0.5685170000000 1.0
C      1  0.5662650000000  0.3941380000000  0.5250770000000 1.0
C      1  0.5490420000000  0.4008220000000  0.4556590000000 1.0
C      1  0.4763040000000  0.4020420000000  0.4420910000000 1.0
C      1  0.4367940000000  0.6010680000000  0.5061680000000 1.0
C      1  0.4863600000000  0.5985020000000  0.5628230000000 1.0
C      1  0.5576090000000  0.5963600000000  0.5351040000000 1.0
C      1  0.5442500000000  0.6043130000000  0.4577580000000 1.0
C      1  0.4710360000000  0.6032720000000  0.4432230000000 1.0
C      1  0.5755900000000  0.4232330000000  0.5273040000000 1.0
C      1  0.5498610000000  0.4297810000000  0.4478940000000 1.0
C      1  0.4670530000000  0.4304110000000  0.4372270000000 1.0
C      1  0.4299810000000  0.4322600000000  0.5133050000000 1.0
C      1  0.4823840000000  0.4250310000000  0.5868000000000 1.0
C      1  0.5710920000000  0.5703420000000  0.5365540000000 1.0
C      1  0.5456600000000  0.5789150000000  0.4442710000000 1.0
C      1  0.4611960000000  0.5744810000000  0.4352470000000 1.0
C      1  0.4184080000000  0.5817130000000  0.5147600000000 1.0
C      1  0.4861680000000  0.5744670000000  0.5772080000000 1.0
C      1  0.4794370000000  0.5787050000000  0.5119880000000 1.0
C      1  0.5070570000000  0.5780960000000  0.5282130000000 1.0
C      1  0.5300420000000  0.5774470000000  0.5076810000000 1.0
C      1  0.5137000000000  0.5694800000000  0.4853330000000 1.0
C      1  0.4877240000000  0.5797810000000  0.4822240000000 1.0
C      1  0.4782450000000  0.4189840000000  0.5128510000000 1.0
C      1  0.5075280000000  0.4019690000000  0.5574630000000 1.0
C      1  0.5250350000000  0.4209010000000  0.5127550000000 1.0
C      1  0.5163500000000  0.4206180000000  0.4857060000000 1.0
C      1  0.4879040000000  0.4187740000000  0.4842490000000 1.0
C      1  0.5101230000000  0.4233450000000  0.4200730000000 1.0
C      1  0.4296980000000  0.4256330000000  0.4659570000000 1.0
C      1  0.4425500000000  0.4273040000000  0.5593330000000 1.0
C      1  0.5527470000000  0.4109470000000  0.5664790000000 1.0
C      1  0.5837990000000  0.4224050000000  0.4806520000000 1.0
C      1  0.5040590000000  0.5863930000000  0.4171600000000 1.0
C      1  0.4254570000000  0.5772790000000  0.4671070000000 1.0
C      1  0.4430640000000  0.5814040000000  0.5580860000000 1.0
C      1  0.5394790000000  0.5727340000000  0.5707440000000 1.0
C      1  0.5771240000000  0.5786700000000  0.4821280000000 1.0
C      1  0.5897560000000  0.5075580000000  0.4347890000000 1.0
C      1  0.4639870000000  0.5192720000000  0.4025450000000 1.0
C      1  0.3801350000000  0.5020700000000  0.4941630000000 1.0
C      1  0.4625840000000  0.5316880000000  0.6023270000000 1.0
C      1  0.5826480000000  0.5088360000000  0.5573020000000 1.0
C      1  0.5852720000000  0.4802870000000  0.4312790000000 1.0
C      1  0.4671790000000  0.4883180000000  0.4015970000000 1.0
C      1  0.3890720000000  0.4759860000000  0.4991530000000 1.0
C      1  0.4542320000000  0.5050020000000  0.6062190000000 1.0
C      1  0.5854160000000  0.4790950000000  0.5558360000000 1.0
C      1  0.5461650000000  0.5398940000000  0.4765320000000 1.0
C      1  0.5012930000000  0.5470460000000  0.4496230000000 1.0
C      1  0.4526480000000  0.5347350000000  0.5003990000000 1.0
C      1  0.4847390000000  0.5344730000000  0.5371250000000 1.0
C      1  0.5317930000000  0.5374040000000  0.5269050000000 1.0
C      1  0.5411150000000  0.4540400000000  0.4937600000000 1.0
C      1  0.5034770000000  0.4593700000000  0.4606330000000 1.0
C      1  0.4639040000000  0.4557580000000  0.4863130000000 1.0
C      1  0.4732340000000  0.4622460000000  0.5312850000000 1.0
C      1  0.5427700000000  0.4571300000000  0.5395130000000 1.0
C      1  0.4504600000000  0.5024070000000  0.5365770000000 1.0
C      1  0.5132960000000  0.4969180000000  0.5458280000000 1.0
C      1  0.5164300000000  0.5016150000000  0.4398260000000 1.0
C      1  0.4573260000000  0.4973980000000  0.4725570000000 1.0
C      1  0.5474180000000  0.4922450000000  0.4938920000000 1.0
C      1  0.4985490000000  0.5445850000000  0.4949080000000 1.0
C      1  0.5022520000000  0.4242170000000  0.5304380000000 1.0
C      1  0.4980020000000  0.4522610000000  0.5371160000000 1.0
C      1  0.4906290000000  0.5302020000000  0.4709110000000 1.0
END
