TITL C-70320-9241-2 -825.106801691124 125000 -1163.57466272002 0 0 160 (C1) n - 1
REM
REM in /rds/project/t2_vol4/rds-t2-cs072/BORA/CARBON/from-Arr/AIRSS/Generating-Clusters/GAP-ML-2020/Higher-Symm/SD-CG/HFTN-CG/C160-200
REM
REM
REM
REM
REM
REM ./C.cell (6b4489405718ea1b717e0baf1da4c2d9)
REM AIRSS Version 0.9.1 bugfix July 2018 build 013d7b7c2542+ Fri, 06 Jul 2018 19:26:36 +0100
REM compiler GCC version 9.3.0
REM options -cpp -mtune=generic -march=x86-64 -g -O0
REM seed 1304230670 -1852543663 -90704577 2113840566 -603722536 1233164082 318203425 95171948 1508137712 -1586948791 120030909 1928311978 642455722 -683054461 -1744887073 1103586816 893349748 -1159822225 -347709575 1195175568 -66687004 -1485691727 748692956 -645791681 691024018 -1228626956 608207809 2107421590 1410041744 707000348 -198430077 2065140808 -2038197505
REM
CELL 1.54180   50.00000   50.00000   50.00000   90.00000   90.00000   90.00000
LATT -1
SFAC C  
C      1  0.5063720000000  0.4658090000000  0.5119140000000 1.0
C      1  0.5222870000000  0.5087700000000  0.4643960000000 1.0
C      1  0.4619820000000  0.5084170000000  0.5106660000000 1.0
C      1  0.4978470000000  0.5376740000000  0.5180430000000 1.0
C      1  0.4901090000000  0.4747130000000  0.4842640000000 1.0
C      1  0.5082200000000  0.5411850000000  0.4918620000000 1.0
C      1  0.4968920000000  0.4984630000000  0.4693190000000 1.0
C      1  0.4881560000000  0.5099850000000  0.5252610000000 1.0
C      1  0.5136190000000  0.4930280000000  0.5235720000000 1.0
C      1  0.5384100000000  0.4973510000000  0.5065000000000 1.0
C      1  0.5320870000000  0.5231950000000  0.4887540000000 1.0
C      1  0.4618080000000  0.4838350000000  0.4897480000000 1.0
C      1  0.5087020000000  0.4478000000000  0.4199550000000 1.0
C      1  0.4234150000000  0.5059930000000  0.4510800000000 1.0
C      1  0.4481160000000  0.4189970000000  0.5085210000000 1.0
C      1  0.4923900000000  0.5502190000000  0.4212020000000 1.0
C      1  0.4905270000000  0.4494550000000  0.5791620000000 1.0
C      1  0.5092350000000  0.5502930000000  0.5816930000000 1.0
C      1  0.5800430000000  0.4915050000000  0.4486460000000 1.0
C      1  0.5787650000000  0.5082430000000  0.5500700000000 1.0
C      1  0.4214280000000  0.4913230000000  0.5506700000000 1.0
C      1  0.5536590000000  0.5815840000000  0.5038570000000 1.0
C      1  0.5469710000000  0.4247960000000  0.4923930000000 1.0
C      1  0.4485960000000  0.5781520000000  0.4927150000000 1.0
C      1  0.6033540000000  0.4649660000000  0.4994800000000 1.0
C      1  0.4992770000000  0.6032760000000  0.4646740000000 1.0
C      1  0.4646720000000  0.4985470000000  0.6046150000000 1.0
C      1  0.3963510000000  0.5337600000000  0.4996270000000 1.0
C      1  0.3955580000000  0.4635170000000  0.5009540000000 1.0
C      1  0.6046000000000  0.5353260000000  0.5006680000000 1.0
C      1  0.5008830000000  0.3956490000000  0.4652990000000 1.0
C      1  0.5024010000000  0.6016470000000  0.5352860000000 1.0
C      1  0.4987030000000  0.3958990000000  0.5355580000000 1.0
C      1  0.5352280000000  0.5001060000000  0.6044790000000 1.0
C      1  0.5359400000000  0.4986360000000  0.3955040000000 1.0
C      1  0.4654630000000  0.4997600000000  0.3964630000000 1.0
C      1  0.5785700000000  0.4613630000000  0.4410190000000 1.0
C      1  0.4416670000000  0.5767280000000  0.4624860000000 1.0
C      1  0.4610450000000  0.4401950000000  0.5792770000000 1.0
C      1  0.4227550000000  0.5359080000000  0.4424940000000 1.0
C      1  0.4215040000000  0.4615390000000  0.5588380000000 1.0
C      1  0.5793320000000  0.5372760000000  0.5595560000000 1.0
C      1  0.5571960000000  0.4228650000000  0.4632040000000 1.0
C      1  0.5585320000000  0.5745320000000  0.5411610000000 1.0
C      1  0.4408650000000  0.4211640000000  0.5386660000000 1.0
C      1  0.5390650000000  0.5586170000000  0.5814440000000 1.0
C      1  0.5384450000000  0.4409830000000  0.4219540000000 1.0
C      1  0.4622960000000  0.5574480000000  0.4227660000000 1.0
C      1  0.4735460000000  0.4044330000000  0.4674580000000 1.0
C      1  0.4680500000000  0.4725410000000  0.4055010000000 1.0
C      1  0.4048330000000  0.4654560000000  0.4736930000000 1.0
C      1  0.5269730000000  0.5956660000000  0.4654010000000 1.0
C      1  0.5256420000000  0.4059690000000  0.5331030000000 1.0
C      1  0.4750960000000  0.5925930000000  0.5332090000000 1.0
C      1  0.5335160000000  0.5257760000000  0.4050320000000 1.0
C      1  0.5322460000000  0.4732010000000  0.5945400000000 1.0
C      1  0.4671600000000  0.5258290000000  0.5956550000000 1.0
C      1  0.5956850000000  0.5328750000000  0.4732680000000 1.0
C      1  0.5940970000000  0.4676480000000  0.5265220000000 1.0
C      1  0.4052520000000  0.5317530000000  0.5269940000000 1.0
C      1  0.4675220000000  0.4239940000000  0.4465320000000 1.0
C      1  0.4472070000000  0.4660510000000  0.4253510000000 1.0
C      1  0.4242840000000  0.4443570000000  0.4674680000000 1.0
C      1  0.5334890000000  0.5754450000000  0.4447600000000 1.0
C      1  0.5315530000000  0.4256790000000  0.5536510000000 1.0
C      1  0.4683650000000  0.5739300000000  0.5545840000000 1.0
C      1  0.5549170000000  0.5325040000000  0.4240680000000 1.0
C      1  0.5526750000000  0.4676160000000  0.5745240000000 1.0
C      1  0.4464150000000  0.5319090000000  0.5756920000000 1.0
C      1  0.5772950000000  0.5545240000000  0.4659040000000 1.0
C      1  0.5736540000000  0.4475350000000  0.5325610000000 1.0
C      1  0.4250200000000  0.5526510000000  0.5331890000000 1.0
C      1  0.5474040000000  0.4754620000000  0.4902110000000 1.0
C      1  0.4882490000000  0.5484910000000  0.4734660000000 1.0
C      1  0.4755570000000  0.4921850000000  0.5470950000000 1.0
C      1  0.4509710000000  0.5266460000000  0.4913170000000 1.0
C      1  0.4486440000000  0.4688780000000  0.5107440000000 1.0
C      1  0.5516050000000  0.5341810000000  0.5103190000000 1.0
C      1  0.5062620000000  0.4537730000000  0.4708710000000 1.0
C      1  0.5169350000000  0.5510450000000  0.5327690000000 1.0
C      1  0.4874940000000  0.4514190000000  0.5276200000000 1.0
C      1  0.5271140000000  0.5081930000000  0.5469580000000 1.0
C      1  0.5302170000000  0.4868330000000  0.4493580000000 1.0
C      1  0.4765910000000  0.5100850000000  0.4541110000000 1.0
C      1  0.5797150000000  0.4401390000000  0.4606920000000 1.0
C      1  0.4601600000000  0.5795160000000  0.4406980000000 1.0
C      1  0.4400350000000  0.4596990000000  0.5803270000000 1.0
C      1  0.4204950000000  0.5575480000000  0.4609090000000 1.0
C      1  0.4194240000000  0.4399510000000  0.5401180000000 1.0
C      1  0.5822140000000  0.5589710000000  0.5407940000000 1.0
C      1  0.5396140000000  0.4198540000000  0.4412780000000 1.0
C      1  0.5410990000000  0.5804770000000  0.5636430000000 1.0
C      1  0.4593530000000  0.4187100000000  0.5605990000000 1.0
C      1  0.5605770000000  0.5389910000000  0.5812760000000 1.0
C      1  0.5605590000000  0.4593310000000  0.4190910000000 1.0
C      1  0.4408910000000  0.5382230000000  0.4207630000000 1.0
C      1  0.5689700000000  0.5065660000000  0.4254850000000 1.0
C      1  0.4257720000000  0.5669600000000  0.5077130000000 1.0
C      1  0.5060390000000  0.4265720000000  0.5678280000000 1.0
C      1  0.4332230000000  0.4915810000000  0.4269900000000 1.0
C      1  0.4321400000000  0.5063500000000  0.5741410000000 1.0
C      1  0.5672990000000  0.4928550000000  0.5731960000000 1.0
C      1  0.5713980000000  0.4341700000000  0.5070650000000 1.0
C      1  0.5761440000000  0.5693470000000  0.4915980000000 1.0
C      1  0.4251640000000  0.4301790000000  0.4932960000000 1.0
C      1  0.4938120000000  0.5732430000000  0.5697320000000 1.0
C      1  0.4931950000000  0.4251500000000  0.4320330000000 1.0
C      1  0.5072830000000  0.5737740000000  0.4313790000000 1.0
C      1  0.4084330000000  0.4417700000000  0.5132960000000 1.0
C      1  0.5130910000000  0.4088330000000  0.4438190000000 1.0
C      1  0.4438250000000  0.5116680000000  0.4098280000000 1.0
C      1  0.5913820000000  0.5568940000000  0.5130670000000 1.0
C      1  0.5896920000000  0.4436010000000  0.4874580000000 1.0
C      1  0.4095230000000  0.5552620000000  0.4875510000000 1.0
C      1  0.4869550000000  0.5901340000000  0.4430440000000 1.0
C      1  0.4863630000000  0.4090030000000  0.5570390000000 1.0
C      1  0.5141080000000  0.5905380000000  0.5587230000000 1.0
C      1  0.5576940000000  0.4863220000000  0.4086620000000 1.0
C      1  0.5569440000000  0.5122200000000  0.5912290000000 1.0
C      1  0.4431490000000  0.4863440000000  0.5911450000000 1.0
C      1  0.5089720000000  0.5101880000000  0.6100830000000 1.0
C      1  0.6092360000000  0.5090220000000  0.5108330000000 1.0
C      1  0.5119080000000  0.6063580000000  0.5086770000000 1.0
C      1  0.4908770000000  0.4883690000000  0.6099210000000 1.0
C      1  0.4916760000000  0.5101540000000  0.3909560000000 1.0
C      1  0.5096810000000  0.4882240000000  0.3903070000000 1.0
C      1  0.3909980000000  0.4898770000000  0.5112440000000 1.0
C      1  0.3914620000000  0.5074590000000  0.4893500000000 1.0
C      1  0.6090810000000  0.4910520000000  0.4890830000000 1.0
C      1  0.4886450000000  0.3902020000000  0.5094230000000 1.0
C      1  0.4896250000000  0.6066380000000  0.4914940000000 1.0
C      1  0.5106730000000  0.3908670000000  0.4916400000000 1.0
C      1  0.4490350000000  0.4900920000000  0.5316540000000 1.0
C      1  0.5277150000000  0.4528110000000  0.4920330000000 1.0
C      1  0.4851720000000  0.5361750000000  0.4479500000000 1.0
C      1  0.5520940000000  0.5116660000000  0.5300210000000 1.0
C      1  0.5540920000000  0.4826260000000  0.4635350000000 1.0
C      1  0.4515500000000  0.5060460000000  0.4696100000000 1.0
C      1  0.4630280000000  0.5513370000000  0.4861070000000 1.0
C      1  0.4627660000000  0.4451190000000  0.5157160000000 1.0
C      1  0.5422730000000  0.5600480000000  0.5209300000000 1.0
C      1  0.5148350000000  0.4630360000000  0.4456570000000 1.0
C      1  0.5184640000000  0.5340680000000  0.5551680000000 1.0
C      1  0.4856350000000  0.4663760000000  0.5520850000000 1.0
C      1  0.5989730000000  0.5050180000000  0.4660970000000 1.0
C      1  0.4669210000000  0.5966490000000  0.5058110000000 1.0
C      1  0.5045920000000  0.4659070000000  0.5986280000000 1.0
C      1  0.4020450000000  0.4932700000000  0.4666750000000 1.0
C      1  0.4011070000000  0.5041160000000  0.5341810000000 1.0
C      1  0.5987830000000  0.4951410000000  0.5336430000000 1.0
C      1  0.5326400000000  0.4028740000000  0.5054740000000 1.0
C      1  0.5351340000000  0.5994480000000  0.4928150000000 1.0
C      1  0.4658070000000  0.4002010000000  0.4950820000000 1.0
C      1  0.4949720000000  0.5331200000000  0.6000310000000 1.0
C      1  0.4956000000000  0.4652150000000  0.4006670000000 1.0
C      1  0.5056450000000  0.5329110000000  0.4018320000000 1.0
C      1  0.4455240000000  0.5540030000000  0.5554720000000 1.0
C      1  0.5535000000000  0.4459860000000  0.5544210000000 1.0
C      1  0.5564690000000  0.5554940000000  0.4437020000000 1.0
C      1  0.4450400000000  0.4436070000000  0.4452470000000 1.0
END
