TITL C-70129-1740-4 -0.0233242641926935 125000 -492.954727188003 0 0 74 (Cs) n - 1
REM
REM in /rds/project/t2_vol4/rds-t2-cs072/BORA/CARBON/from-Arr/AIRSS/Generating-Clusters/GAP-ML-2020/Higher-Symm/SD-CG/HFTN-CG
REM
REM
REM
REM
REM
REM ./C.cell (b20cbc046b6831c77cfcea5457e17084)
REM AIRSS Version 0.9.1 bugfix July 2018 build 013d7b7c2542+ Fri, 06 Jul 2018 19:26:36 +0100
REM compiler GCC version 9.3.0
REM options -cpp -mtune=generic -march=x86-64 -g -O0
REM seed 691155473 161671092 1081526588 1571339871 1775149932 -693034422 -193750491 -1601900799 -1470464351 -1956463698 2050519923 -583613324 1409388804 557437075 563787616 1255755084 1089663283 466548865 2059653982 128721516 -300671685 612884477 1825311615 1317759638 -2065686473 -408236770 912158669 626773783 657146264 -755350859 -1538619994 -1968503296 1910015498
REM
CELL 1.54180   50.00000   50.00000   50.00000   90.00000   90.00000   90.00000
LATT -1
SFAC C  
C      1  0.4295790000000  0.5343210000000  0.5152920000000 1.0
C      1  0.5701940000000  0.5334650000000  0.4856020000000 1.0
C      1  0.4298000000000  0.5334580000000  0.4856150000000 1.0
C      1  0.5704200000000  0.5343290000000  0.5152790000000 1.0
C      1  0.5579660000000  0.5090380000000  0.4768440000000 1.0
C      1  0.4417000000000  0.5102870000000  0.5252320000000 1.0
C      1  0.5583030000000  0.5102930000000  0.5252210000000 1.0
C      1  0.4420280000000  0.5090320000000  0.4768550000000 1.0
C      1  0.5294680000000  0.5086350000000  0.5175690000000 1.0
C      1  0.4708110000000  0.5070840000000  0.4847030000000 1.0
C      1  0.5291850000000  0.5070870000000  0.4846970000000 1.0
C      1  0.4705340000000  0.5086320000000  0.5175750000000 1.0
C      1  0.4834510000000  0.5601060000000  0.5331730000000 1.0
C      1  0.5166320000000  0.5586850000000  0.4665950000000 1.0
C      1  0.4833550000000  0.5586830000000  0.4665980000000 1.0
C      1  0.5165480000000  0.5601080000000  0.5331700000000 1.0
C      1  0.4690720000000  0.4598490000000  0.4879030000000 1.0
C      1  0.5284120000000  0.4632980000000  0.5171920000000 1.0
C      1  0.4715950000000  0.4632950000000  0.5171970000000 1.0
C      1  0.5309300000000  0.4598530000000  0.4878980000000 1.0
C      1  0.4305440000000  0.4839400000000  0.4863320000000 1.0
C      1  0.5695460000000  0.4846240000000  0.5168090000000 1.0
C      1  0.4304590000000  0.4846160000000  0.5168220000000 1.0
C      1  0.5694550000000  0.4839470000000  0.4863190000000 1.0
C      1  0.4847940000000  0.5017360000000  0.5759980000000 1.0
C      1  0.5151730000000  0.4999090000000  0.4273420000000 1.0
C      1  0.4848140000000  0.4999080000000  0.4273440000000 1.0
C      1  0.5152200000000  0.5017380000000  0.5759950000000 1.0
C      1  0.5280830000000  0.5469320000000  0.4416790000000 1.0
C      1  0.4718940000000  0.5483380000000  0.5582660000000 1.0
C      1  0.5281120000000  0.5483410000000  0.5582610000000 1.0
C      1  0.4719020000000  0.5469290000000  0.4416850000000 1.0
C      1  0.5558030000000  0.4639260000000  0.5294740000000 1.0
C      1  0.4429990000000  0.4625970000000  0.4738850000000 1.0
C      1  0.5570000000000  0.4626030000000  0.4738740000000 1.0
C      1  0.4442060000000  0.4639200000000  0.5294850000000 1.0
C      1  0.5147020000000  0.5330010000000  0.4847730000000 1.0
C      1  0.4851720000000  0.5343030000000  0.5153860000000 1.0
C      1  0.5148280000000  0.5343050000000  0.5153830000000 1.0
C      1  0.4852920000000  0.5330000000000  0.4847760000000 1.0
C      1  0.4724310000000  0.4803000000000  0.4436830000000 1.0
C      1  0.5274670000000  0.4821800000000  0.5597290000000 1.0
C      1  0.4725460000000  0.4821770000000  0.5597340000000 1.0
C      1  0.5275600000000  0.4803030000000  0.4436780000000 1.0
C      1  0.4844570000000  0.4824900000000  0.4715800000000 1.0
C      1  0.5152030000000  0.4861400000000  0.5321380000000 1.0
C      1  0.4848050000000  0.4861390000000  0.5321410000000 1.0
C      1  0.5155400000000  0.4824920000000  0.4715770000000 1.0
C      1  0.4847210000000  0.4213000000000  0.4664860000000 1.0
C      1  0.5153500000000  0.4340980000000  0.5206260000000 1.0
C      1  0.4846610000000  0.4340960000000  0.5206290000000 1.0
C      1  0.5152810000000  0.4213010000000  0.4664830000000 1.0
C      1  0.4563970000000  0.4582740000000  0.5561570000000 1.0
C      1  0.5450650000000  0.4572570000000  0.4465110000000 1.0
C      1  0.4549300000000  0.4572520000000  0.4465190000000 1.0
C      1  0.5436180000000  0.4582790000000  0.5561490000000 1.0
C      1  0.5614880000000  0.5606520000000  0.4846390000000 1.0
C      1  0.4385510000000  0.5613920000000  0.5149770000000 1.0
C      1  0.5614460000000  0.5613980000000  0.5149660000000 1.0
C      1  0.4385030000000  0.5606450000000  0.4846510000000 1.0
C      1  0.5296150000000  0.4353080000000  0.5452970000000 1.0
C      1  0.4679610000000  0.4331320000000  0.4477490000000 1.0
C      1  0.5320370000000  0.4331350000000  0.4477440000000 1.0
C      1  0.4704000000000  0.4353050000000  0.5453020000000 1.0
C      1  0.4746800000000  0.5263770000000  0.4272350000000 1.0
C      1  0.5251260000000  0.5279380000000  0.5728370000000 1.0
C      1  0.4748840000000  0.5279350000000  0.5728410000000 1.0
C      1  0.5253040000000  0.5263790000000  0.4272300000000 1.0
C      1  0.4642170000000  0.5736040000000  0.4842470000000 1.0
C      1  0.5357200000000  0.5742210000000  0.5148700000000 1.0
C      1  0.4642750000000  0.5742170000000  0.5148770000000 1.0
C      1  0.5357730000000  0.5736080000000  0.4842400000000 1.0
C      1  0.5246980000000  0.4314210000000  0.4911890000000 1.0
C      1  0.4753070000000  0.4314180000000  0.4911940000000 1.0
END
