TITL C-70309-8841-4 -8.87972940794551 125000 -1256.38296960148 0 0 179 (C1) n - 1
REM
REM in /rds/project/t2_vol4/rds-t2-cs072/BORA/CARBON/from-Arr/AIRSS/Generating-Clusters/GAP-ML-2020/Higher-Symm/SD-CG/HFTN-CG/C160-200
REM
REM
REM
REM
REM
REM ./C.cell (6b4489405718ea1b717e0baf1da4c2d9)
REM AIRSS Version 0.9.1 bugfix July 2018 build 013d7b7c2542+ Fri, 06 Jul 2018 19:26:36 +0100
REM compiler GCC version 9.3.0
REM options -cpp -mtune=generic -march=x86-64 -g -O0
REM seed -1433610641 -357494588 -515977815 -1404206582 -1829152577 -642004619 632229067 -1708878870 1397513138 -1217603793 -1321198855 87602798 404051658 1854633828 -645157971 -1274393519 -652967504 -353009476 1050599797 -771366124 -343950331 -1483525989 -1586068271 -574550823 -2014050371 851315724 379625081 1477077406 373509014 427596576 1097241340 1688620135 647575064
REM
CELL 1.54180   50.00000   50.00000   50.00000   90.00000   90.00000   90.00000
LATT -1
SFAC C  
C      1  0.5058320000000  0.4020360000000  0.4695190000000 1.0
C      1  0.4699890000000  0.3963210000000  0.5092520000000 1.0
C      1  0.5232390000000  0.3976770000000  0.5207660000000 1.0
C      1  0.5072470000000  0.5998080000000  0.5301160000000 1.0
C      1  0.4730310000000  0.5987420000000  0.4893000000000 1.0
C      1  0.5255090000000  0.5971840000000  0.4791920000000 1.0
C      1  0.4021030000000  0.5202750000000  0.4473270000000 1.0
C      1  0.5036830000000  0.5197120000000  0.6120990000000 1.0
C      1  0.5893310000000  0.5203380000000  0.4420610000000 1.0
C      1  0.4092460000000  0.4808980000000  0.5468820000000 1.0
C      1  0.5013630000000  0.4804290000000  0.3906100000000 1.0
C      1  0.5918460000000  0.4815560000000  0.5564490000000 1.0
C      1  0.4582750000000  0.3973720000000  0.5352990000000 1.0
C      1  0.5517980000000  0.4016250000000  0.5173870000000 1.0
C      1  0.4892280000000  0.4021050000000  0.4462730000000 1.0
C      1  0.4601490000000  0.5975110000000  0.4634630000000 1.0
C      1  0.5535920000000  0.5994960000000  0.4838440000000 1.0
C      1  0.4903420000000  0.5972900000000  0.5531440000000 1.0
C      1  0.5955760000000  0.4961360000000  0.4567280000000 1.0
C      1  0.4131010000000  0.4958190000000  0.4353730000000 1.0
C      1  0.4878350000000  0.4950660000000  0.6086120000000 1.0
C      1  0.5966450000000  0.5064950000000  0.5423970000000 1.0
C      1  0.4172630000000  0.5050760000000  0.5610200000000 1.0
C      1  0.4859170000000  0.5047440000000  0.3940370000000 1.0
C      1  0.5112350000000  0.4976980000000  0.5587040000000 1.0
C      1  0.5355440000000  0.4865000000000  0.4720610000000 1.0
C      1  0.4514910000000  0.4947410000000  0.4804410000000 1.0
C      1  0.5090850000000  0.5079390000000  0.4513580000000 1.0
C      1  0.5376240000000  0.5123240000000  0.5319260000000 1.0
C      1  0.4551390000000  0.5191360000000  0.5174550000000 1.0
C      1  0.4905280000000  0.4558940000000  0.4770340000000 1.0
C      1  0.4871870000000  0.4399330000000  0.5321990000000 1.0
C      1  0.5269790000000  0.4521810000000  0.5077130000000 1.0
C      1  0.4945100000000  0.5470870000000  0.5267450000000 1.0
C      1  0.4850720000000  0.5466400000000  0.4760080000000 1.0
C      1  0.5282230000000  0.5432180000000  0.4930260000000 1.0
C      1  0.4294140000000  0.5402560000000  0.4867880000000 1.0
C      1  0.5270920000000  0.5428290000000  0.5687730000000 1.0
C      1  0.5376030000000  0.5463270000000  0.4492270000000 1.0
C      1  0.4458720000000  0.4552580000000  0.5067770000000 1.0
C      1  0.5243330000000  0.4627630000000  0.4329310000000 1.0
C      1  0.5163310000000  0.4697580000000  0.5528750000000 1.0
C      1  0.3913570000000  0.5267430000000  0.5233750000000 1.0
C      1  0.5753140000000  0.5274230000000  0.5840310000000 1.0
C      1  0.5310290000000  0.5265280000000  0.3940680000000 1.0
C      1  0.3925340000000  0.4749980000000  0.4740930000000 1.0
C      1  0.5739920000000  0.4741010000000  0.4164620000000 1.0
C      1  0.5324610000000  0.4737680000000  0.6052610000000 1.0
C      1  0.5750790000000  0.5226400000000  0.4170310000000 1.0
C      1  0.3867060000000  0.5231400000000  0.4722350000000 1.0
C      1  0.5329680000000  0.5223290000000  0.6127000000000 1.0
C      1  0.5758540000000  0.4793610000000  0.5803460000000 1.0
C      1  0.3957810000000  0.4781510000000  0.5218910000000 1.0
C      1  0.5306230000000  0.4779320000000  0.3882990000000 1.0
C      1  0.4873920000000  0.5534570000000  0.4105070000000 1.0
C      1  0.4306800000000  0.5526910000000  0.5538260000000 1.0
C      1  0.5814410000000  0.5528540000000  0.5344490000000 1.0
C      1  0.4887370000000  0.4452360000000  0.5912800000000 1.0
C      1  0.4302670000000  0.4473580000000  0.4554480000000 1.0
C      1  0.5814230000000  0.4489300000000  0.4659250000000 1.0
C      1  0.4641760000000  0.5937750000000  0.5419040000000 1.0
C      1  0.5569810000000  0.5957540000000  0.5120220000000 1.0
C      1  0.4827000000000  0.5947730000000  0.4457330000000 1.0
C      1  0.4625810000000  0.4015570000000  0.4565120000000 1.0
C      1  0.5558390000000  0.4062260000000  0.4889330000000 1.0
C      1  0.4812430000000  0.4002060000000  0.5546550000000 1.0
C      1  0.4535740000000  0.4572480000000  0.4382940000000 1.0
C      1  0.4648500000000  0.4514650000000  0.5769560000000 1.0
C      1  0.5812750000000  0.4573890000000  0.4940840000000 1.0
C      1  0.4547660000000  0.5452430000000  0.5681510000000 1.0
C      1  0.4635250000000  0.5453390000000  0.4247260000000 1.0
C      1  0.5816850000000  0.5440200000000  0.5064890000000 1.0
C      1  0.4881460000000  0.5408660000000  0.6008850000000 1.0
C      1  0.5897840000000  0.5421830000000  0.4599480000000 1.0
C      1  0.4195990000000  0.5410790000000  0.4391870000000 1.0
C      1  0.4858700000000  0.4598980000000  0.4031650000000 1.0
C      1  0.5950590000000  0.4596880000000  0.5383270000000 1.0
C      1  0.4251790000000  0.4598410000000  0.5552720000000 1.0
C      1  0.3835090000000  0.5014880000000  0.5135740000000 1.0
C      1  0.5719020000000  0.5021520000000  0.5955240000000 1.0
C      1  0.5437490000000  0.5020090000000  0.3890180000000 1.0
C      1  0.3811570000000  0.4989690000000  0.4839240000000 1.0
C      1  0.5700630000000  0.4988900000000  0.4041380000000 1.0
C      1  0.5459180000000  0.4979730000000  0.6110070000000 1.0
C      1  0.5099870000000  0.6030830000000  0.4546810000000 1.0
C      1  0.4589230000000  0.6026520000000  0.5142570000000 1.0
C      1  0.5355790000000  0.6052240000000  0.5306770000000 1.0
C      1  0.5088010000000  0.3936820000000  0.5459870000000 1.0
C      1  0.4560570000000  0.3908070000000  0.4837700000000 1.0
C      1  0.5344370000000  0.3975020000000  0.4700350000000 1.0
C      1  0.5371400000000  0.4524820000000  0.5647400000000 1.0
C      1  0.5422540000000  0.4435720000000  0.4218720000000 1.0
C      1  0.4234210000000  0.4454850000000  0.4909320000000 1.0
C      1  0.5428180000000  0.5599920000000  0.4242920000000 1.0
C      1  0.5451730000000  0.5608750000000  0.5807800000000 1.0
C      1  0.4107760000000  0.5589510000000  0.4974640000000 1.0
C      1  0.5316120000000  0.4181890000000  0.4276880000000 1.0
C      1  0.4229800000000  0.4169150000000  0.5028470000000 1.0
C      1  0.5417120000000  0.4245420000000  0.5594710000000 1.0
C      1  0.5334660000000  0.5857840000000  0.5743650000000 1.0
C      1  0.4211320000000  0.5844890000000  0.4910410000000 1.0
C      1  0.5478260000000  0.5859650000000  0.4350950000000 1.0
C      1  0.4591130000000  0.5057390000000  0.5995140000000 1.0
C      1  0.6052800000000  0.5073710000000  0.4852960000000 1.0
C      1  0.4334170000000  0.5060790000000  0.4138760000000 1.0
C      1  0.4566100000000  0.4936370000000  0.4018900000000 1.0
C      1  0.6056940000000  0.4965300000000  0.5126340000000 1.0
C      1  0.4367350000000  0.4944330000000  0.5835740000000 1.0
C      1  0.4842550000000  0.4217080000000  0.5100350000000 1.0
C      1  0.5156660000000  0.4232620000000  0.5074090000000 1.0
C      1  0.4957840000000  0.4262470000000  0.4849330000000 1.0
C      1  0.4891240000000  0.5738340000000  0.4892640000000 1.0
C      1  0.5183400000000  0.5723580000000  0.4937830000000 1.0
C      1  0.5020190000000  0.5739170000000  0.5170350000000 1.0
C      1  0.4370690000000  0.4166770000000  0.4565990000000 1.0
C      1  0.4949440000000  0.4186540000000  0.5780770000000 1.0
C      1  0.5676780000000  0.4229440000000  0.4668350000000 1.0
C      1  0.4387820000000  0.5780770000000  0.5415030000000 1.0
C      1  0.4946300000000  0.5796490000000  0.4230090000000 1.0
C      1  0.5684340000000  0.5793320000000  0.5340610000000 1.0
C      1  0.4365650000000  0.5822090000000  0.4668340000000 1.0
C      1  0.5048160000000  0.5828510000000  0.5728070000000 1.0
C      1  0.5596830000000  0.5834160000000  0.4614360000000 1.0
C      1  0.4361750000000  0.4150390000000  0.5283640000000 1.0
C      1  0.5034320000000  0.4200810000000  0.4295700000000 1.0
C      1  0.5604760000000  0.4185510000000  0.5390640000000 1.0
C      1  0.6015200000000  0.4687410000000  0.5121410000000 1.0
C      1  0.4592980000000  0.4665960000000  0.4097590000000 1.0
C      1  0.4402330000000  0.4668530000000  0.5781780000000 1.0
C      1  0.6005030000000  0.5351200000000  0.4856840000000 1.0
C      1  0.4616310000000  0.5334610000000  0.5943720000000 1.0
C      1  0.4372030000000  0.5338530000000  0.4184320000000 1.0
C      1  0.5865130000000  0.5311440000000  0.5548140000000 1.0
C      1  0.5012640000000  0.5302030000000  0.3968930000000 1.0
C      1  0.4108880000000  0.5303540000000  0.5473740000000 1.0
C      1  0.5855820000000  0.4710730000000  0.4454080000000 1.0
C      1  0.5026190000000  0.4695150000000  0.6048320000000 1.0
C      1  0.4090030000000  0.4709920000000  0.4505840000000 1.0
C      1  0.4639170000000  0.5397570000000  0.4548670000000 1.0
C      1  0.4823500000000  0.5409400000000  0.5545370000000 1.0
C      1  0.5569210000000  0.5367310000000  0.4903340000000 1.0
C      1  0.4656660000000  0.4453000000000  0.5495760000000 1.0
C      1  0.4808060000000  0.4631240000000  0.4494620000000 1.0
C      1  0.5561090000000  0.4607960000000  0.5132790000000 1.0
C      1  0.5514620000000  0.4603990000000  0.4026420000000 1.0
C      1  0.4003090000000  0.4618680000000  0.4978250000000 1.0
C      1  0.5518240000000  0.4635380000000  0.5860390000000 1.0
C      1  0.5529510000000  0.5409930000000  0.5982350000000 1.0
C      1  0.3902610000000  0.5409480000000  0.4972650000000 1.0
C      1  0.5526480000000  0.5397420000000  0.4083590000000 1.0
C      1  0.4682770000000  0.4992880000000  0.5344640000000 1.0
C      1  0.5514000000000  0.4926230000000  0.5151930000000 1.0
C      1  0.4845740000000  0.4943040000000  0.4494070000000 1.0
C      1  0.4632110000000  0.5089810000000  0.4590980000000 1.0
C      1  0.5518780000000  0.5035900000000  0.4890940000000 1.0
C      1  0.4852440000000  0.5103850000000  0.5541890000000 1.0
C      1  0.4409510000000  0.4442040000000  0.5352620000000 1.0
C      1  0.5721010000000  0.4441180000000  0.5334350000000 1.0
C      1  0.4979680000000  0.4500400000000  0.4279780000000 1.0
C      1  0.4367420000000  0.5522090000000  0.4609680000000 1.0
C      1  0.5626710000000  0.5530060000000  0.4647000000000 1.0
C      1  0.4999300000000  0.5531630000000  0.5761030000000 1.0
C      1  0.4787660000000  0.5326800000000  0.5041700000000 1.0
C      1  0.5176490000000  0.5278810000000  0.5162710000000 1.0
C      1  0.5137130000000  0.5356080000000  0.4650310000000 1.0
C      1  0.4676630000000  0.4713460000000  0.4951230000000 1.0
C      1  0.5199610000000  0.4638980000000  0.4822960000000 1.0
C      1  0.5047400000000  0.4623740000000  0.5273640000000 1.0
C      1  0.5202100000000  0.4085040000000  0.5678440000000 1.0
C      1  0.5480690000000  0.4097260000000  0.4485590000000 1.0
C      1  0.4296060000000  0.4012740000000  0.4813150000000 1.0
C      1  0.5208470000000  0.5930740000000  0.4303350000000 1.0
C      1  0.5490680000000  0.5929970000000  0.5524600000000 1.0
C      1  0.4328660000000  0.5915110000000  0.5154170000000 1.0
C      1  0.5293360000000  0.4897220000000  0.4447570000000 1.0
C      1  0.5324500000000  0.5155080000000  0.5595320000000 1.0
C      1  0.4374340000000  0.5132420000000  0.4965000000000 1.0
C      1  0.4856280000000  0.4845370000000  0.5156460000000 1.0
C      1  0.4978570000000  0.5089340000000  0.5039660000000 1.0
END
