TITL C-70307-8814-4 0.177604961258627 125000 -1195.43800005484 0 0 167 (C1) n - 1
REM
REM in /rds/project/t2_vol4/rds-t2-cs072/BORA/CARBON/from-Arr/AIRSS/Generating-Clusters/GAP-ML-2020/Higher-Symm/SD-CG/HFTN-CG/C160-200
REM
REM
REM
REM
REM
REM ./C.cell (6b4489405718ea1b717e0baf1da4c2d9)
REM AIRSS Version 0.9.1 bugfix July 2018 build 013d7b7c2542+ Fri, 06 Jul 2018 19:26:36 +0100
REM compiler GCC version 9.3.0
REM options -cpp -mtune=generic -march=x86-64 -g -O0
REM seed -879705772 1707232268 -1366494715 1732382833 -1920782653 105375942 -1668034975 1534121466 1926958373 -988692827 -1111701888 1096034566 1524551004 1173795997 594092393 1359862271 -1211657738 1613786096 1975239401 -1668749981 -611248119 1850284621 -1790714734 -1974042200 939427011 -404546053 -515383462 868488975 -1576694674 1354905042 -488933457 1471927414 -1987994899
REM
CELL 1.54180   50.00000   50.00000   50.00000   90.00000   90.00000   90.00000
LATT -1
SFAC C  
C      1  0.5724230000000  0.4338970000000  0.5328860000000 1.0
C      1  0.4276930000000  0.4338300000000  0.5330930000000 1.0
C      1  0.5513580000000  0.5083780000000  0.4498880000000 1.0
C      1  0.4480650000000  0.5075660000000  0.4487480000000 1.0
C      1  0.5563750000000  0.4984120000000  0.4776920000000 1.0
C      1  0.4427300000000  0.4978430000000  0.4762120000000 1.0
C      1  0.4289900000000  0.4227320000000  0.4733450000000 1.0
C      1  0.5707090000000  0.4231920000000  0.4733870000000 1.0
C      1  0.4865720000000  0.4949300000000  0.6141160000000 1.0
C      1  0.5147150000000  0.4952280000000  0.6135610000000 1.0
C      1  0.4130190000000  0.5452540000000  0.5191520000000 1.0
C      1  0.5860970000000  0.5449110000000  0.5177010000000 1.0
C      1  0.4044380000000  0.5112180000000  0.4451290000000 1.0
C      1  0.5952610000000  0.5115530000000  0.4455720000000 1.0
C      1  0.4614320000000  0.4549140000000  0.4148250000000 1.0
C      1  0.5382360000000  0.4552410000000  0.4150630000000 1.0
C      1  0.5307980000000  0.4725420000000  0.6064260000000 1.0
C      1  0.4705260000000  0.4722540000000  0.6068240000000 1.0
C      1  0.4856420000000  0.5757540000000  0.4250950000000 1.0
C      1  0.5150130000000  0.5767550000000  0.4245840000000 1.0
C      1  0.3979380000000  0.4939040000000  0.4663440000000 1.0
C      1  0.6018050000000  0.4939700000000  0.4664780000000 1.0
C      1  0.5364800000000  0.4240420000000  0.5611030000000 1.0
C      1  0.4643020000000  0.4242330000000  0.5609700000000 1.0
C      1  0.4151030000000  0.5113960000000  0.5571140000000 1.0
C      1  0.5854560000000  0.5117830000000  0.5564570000000 1.0
C      1  0.4623440000000  0.4815600000000  0.4040330000000 1.0
C      1  0.5375420000000  0.4818760000000  0.4043760000000 1.0
C      1  0.4856940000000  0.4010260000000  0.5164050000000 1.0
C      1  0.5144530000000  0.4011620000000  0.5164680000000 1.0
C      1  0.4458980000000  0.4812650000000  0.5929840000000 1.0
C      1  0.5546740000000  0.4817110000000  0.5919690000000 1.0
C      1  0.4852190000000  0.6003340000000  0.5246310000000 1.0
C      1  0.5146710000000  0.6012300000000  0.5239740000000 1.0
C      1  0.5739950000000  0.4953620000000  0.4324950000000 1.0
C      1  0.4252980000000  0.4948450000000  0.4314660000000 1.0
C      1  0.5938010000000  0.5215570000000  0.5310740000000 1.0
C      1  0.4061360000000  0.5213690000000  0.5319840000000 1.0
C      1  0.5286900000000  0.5826200000000  0.4495030000000 1.0
C      1  0.4726720000000  0.5800130000000  0.4502710000000 1.0
C      1  0.4396700000000  0.4408660000000  0.5586980000000 1.0
C      1  0.5608490000000  0.4408720000000  0.5585060000000 1.0
C      1  0.4833930000000  0.4904970000000  0.5646980000000 1.0
C      1  0.5115520000000  0.4873540000000  0.5657630000000 1.0
C      1  0.5690520000000  0.4661740000000  0.5717330000000 1.0
C      1  0.4315480000000  0.4658610000000  0.5723230000000 1.0
C      1  0.4861040000000  0.4492120000000  0.6013750000000 1.0
C      1  0.5152460000000  0.4490770000000  0.6015240000000 1.0
C      1  0.4374680000000  0.4450180000000  0.4286140000000 1.0
C      1  0.5619810000000  0.4456860000000  0.4292370000000 1.0
C      1  0.5263600000000  0.4679850000000  0.4558280000000 1.0
C      1  0.4728920000000  0.4672980000000  0.4550870000000 1.0
C      1  0.4712250000000  0.4198870000000  0.4462440000000 1.0
C      1  0.5284380000000  0.4203320000000  0.4464720000000 1.0
C      1  0.4466000000000  0.5102380000000  0.5926580000000 1.0
C      1  0.5545620000000  0.5107200000000  0.5920340000000 1.0
C      1  0.4721720000000  0.4015370000000  0.4905350000000 1.0
C      1  0.5277780000000  0.4017460000000  0.4905500000000 1.0
C      1  0.5335980000000  0.4994340000000  0.4992860000000 1.0
C      1  0.4653690000000  0.4976510000000  0.4964210000000 1.0
C      1  0.5557900000000  0.5259780000000  0.4024430000000 1.0
C      1  0.4441660000000  0.5257540000000  0.4019240000000 1.0
C      1  0.4465340000000  0.5841240000000  0.5005860000000 1.0
C      1  0.5525970000000  0.5847150000000  0.4993390000000 1.0
C      1  0.4728560000000  0.4858650000000  0.5403620000000 1.0
C      1  0.5253750000000  0.4806210000000  0.5426430000000 1.0
C      1  0.5366040000000  0.5722190000000  0.5661530000000 1.0
C      1  0.4635550000000  0.5716050000000  0.5670950000000 1.0
C      1  0.5154650000000  0.4289090000000  0.5800280000000 1.0
C      1  0.4854660000000  0.4291680000000  0.5798980000000 1.0
C      1  0.4039600000000  0.4652170000000  0.4637960000000 1.0
C      1  0.5957840000000  0.4653410000000  0.4640570000000 1.0
C      1  0.5807260000000  0.4526230000000  0.5116390000000 1.0
C      1  0.4186200000000  0.4523150000000  0.5118600000000 1.0
C      1  0.4450110000000  0.4097140000000  0.4936210000000 1.0
C      1  0.5549390000000  0.4099170000000  0.4935500000000 1.0
C      1  0.5333560000000  0.5047130000000  0.5291050000000 1.0
C      1  0.4642200000000  0.5069920000000  0.5248130000000 1.0
C      1  0.4091070000000  0.4434800000000  0.4830300000000 1.0
C      1  0.5906000000000  0.4437590000000  0.4830390000000 1.0
C      1  0.5542390000000  0.4588080000000  0.4956200000000 1.0
C      1  0.4440730000000  0.4587060000000  0.4948650000000 1.0
C      1  0.4389900000000  0.5532390000000  0.4102850000000 1.0
C      1  0.5611880000000  0.5534380000000  0.4102720000000 1.0
C      1  0.5950810000000  0.5001640000000  0.5132740000000 1.0
C      1  0.4048070000000  0.5000870000000  0.5138500000000 1.0
C      1  0.4755570000000  0.4943690000000  0.4434010000000 1.0
C      1  0.5241160000000  0.4950350000000  0.4441260000000 1.0
C      1  0.4630700000000  0.5339140000000  0.4437160000000 1.0
C      1  0.5364340000000  0.5347350000000  0.4438540000000 1.0
C      1  0.5550680000000  0.4701240000000  0.4683400000000 1.0
C      1  0.4435840000000  0.4694520000000  0.4671110000000 1.0
C      1  0.4736980000000  0.5332490000000  0.5249260000000 1.0
C      1  0.5203050000000  0.5257380000000  0.5437830000000 1.0
C      1  0.4177170000000  0.5399840000000  0.4861910000000 1.0
C      1  0.5813330000000  0.5402880000000  0.4857030000000 1.0
C      1  0.4835480000000  0.4443390000000  0.4333910000000 1.0
C      1  0.5159820000000  0.4446500000000  0.4335550000000 1.0
C      1  0.5137170000000  0.5176160000000  0.5715120000000 1.0
C      1  0.4842390000000  0.5184610000000  0.5750810000000 1.0
C      1  0.4401220000000  0.5533060000000  0.5630430000000 1.0
C      1  0.5596810000000  0.5531770000000  0.5615570000000 1.0
C      1  0.4689270000000  0.5590370000000  0.4090740000000 1.0
C      1  0.5314340000000  0.5596000000000  0.4087450000000 1.0
C      1  0.4432820000000  0.4247030000000  0.4480160000000 1.0
C      1  0.5563310000000  0.4251760000000  0.4482560000000 1.0
C      1  0.5288930000000  0.5302930000000  0.4141780000000 1.0
C      1  0.4710580000000  0.5298910000000  0.4139100000000 1.0
C      1  0.5581570000000  0.4127170000000  0.5216940000000 1.0
C      1  0.4420070000000  0.4127160000000  0.5217950000000 1.0
C      1  0.4856270000000  0.4047750000000  0.4655530000000 1.0
C      1  0.5141690000000  0.4050050000000  0.4656480000000 1.0
C      1  0.4709900000000  0.4663870000000  0.5013030000000 1.0
C      1  0.5273270000000  0.4664930000000  0.5021670000000 1.0
C      1  0.4727240000000  0.5954000000000  0.4984690000000 1.0
C      1  0.5282480000000  0.5992840000000  0.4967100000000 1.0
C      1  0.5126180000000  0.4607000000000  0.4793030000000 1.0
C      1  0.4862400000000  0.4602110000000  0.4789900000000 1.0
C      1  0.5684030000000  0.5274390000000  0.5733110000000 1.0
C      1  0.4326270000000  0.5268590000000  0.5738840000000 1.0
C      1  0.5271940000000  0.5192670000000  0.6003960000000 1.0
C      1  0.4736170000000  0.5188370000000  0.6027380000000 1.0
C      1  0.4091990000000  0.4756990000000  0.5273010000000 1.0
C      1  0.5908050000000  0.4758820000000  0.5268490000000 1.0
C      1  0.5155970000000  0.5666810000000  0.5850430000000 1.0
C      1  0.4852990000000  0.5662120000000  0.5852400000000 1.0
C      1  0.5718990000000  0.5554900000000  0.4371870000000 1.0
C      1  0.4280840000000  0.5550250000000  0.4371420000000 1.0
C      1  0.5310570000000  0.5427850000000  0.4968060000000 1.0
C      1  0.4697710000000  0.5439210000000  0.4969340000000 1.0
C      1  0.5548410000000  0.5572580000000  0.4836870000000 1.0
C      1  0.4437020000000  0.5570490000000  0.4844220000000 1.0
C      1  0.4861580000000  0.5450550000000  0.6054610000000 1.0
C      1  0.5154070000000  0.5455000000000  0.6052940000000 1.0
C      1  0.5848870000000  0.5078370000000  0.4868640000000 1.0
C      1  0.4144330000000  0.5079760000000  0.4871330000000 1.0
C      1  0.5894400000000  0.5391380000000  0.4534600000000 1.0
C      1  0.4100120000000  0.5388020000000  0.4528160000000 1.0
C      1  0.5110500000000  0.5561900000000  0.5097440000000 1.0
C      1  0.4895480000000  0.5636950000000  0.4922410000000 1.0
C      1  0.5712140000000  0.5608050000000  0.5362250000000 1.0
C      1  0.4273880000000  0.5614620000000  0.5379750000000 1.0
C      1  0.4158960000000  0.4823700000000  0.5549050000000 1.0
C      1  0.5847410000000  0.4826590000000  0.5544120000000 1.0
C      1  0.4652440000000  0.5895560000000  0.5436480000000 1.0
C      1  0.5349140000000  0.5900990000000  0.5428750000000 1.0
C      1  0.5159770000000  0.5961030000000  0.4713280000000 1.0
C      1  0.4877820000000  0.5878630000000  0.4740280000000 1.0
C      1  0.4836060000000  0.5190360000000  0.4865380000000 1.0
C      1  0.5159120000000  0.5196210000000  0.4877870000000 1.0
C      1  0.5569880000000  0.5829240000000  0.5265280000000 1.0
C      1  0.4420170000000  0.5831790000000  0.5277590000000 1.0
C      1  0.5487280000000  0.5617050000000  0.4546800000000 1.0
C      1  0.4511180000000  0.5608740000000  0.4552280000000 1.0
C      1  0.5343670000000  0.4084720000000  0.5363560000000 1.0
C      1  0.4660010000000  0.4085290000000  0.5363030000000 1.0
C      1  0.5616260000000  0.4988810000000  0.4058070000000 1.0
C      1  0.4381490000000  0.4986470000000  0.4050410000000 1.0
C      1  0.5155750000000  0.5004070000000  0.4147910000000 1.0
C      1  0.4843480000000  0.5001950000000  0.4144790000000 1.0
C      1  0.5142590000000  0.5205350000000  0.4580330000000 1.0
C      1  0.4856060000000  0.5196550000000  0.4571920000000 1.0
C      1  0.4237380000000  0.4667100000000  0.4427540000000 1.0
C      1  0.5751990000000  0.4673560000000  0.4438880000000 1.0
C      1  0.4844070000000  0.4643860000000  0.5261090000000 1.0
C      1  0.5124740000000  0.4622780000000  0.5261430000000 1.0
C      1  0.5005510000000  0.5402580000000  0.5312510000000 1.0
END
