TITL C-70124-640-2 -0.298724275315798 125000 -671.021767710282 0 0 95 (C1) n - 1
REM
REM in /rds/project/t2_vol4/rds-t2-cs072/BORA/CARBON/from-Arr/AIRSS/Generating-Clusters/GAP-ML-2020/Higher-Symm/SD-CG/HFTN-CG
REM
REM
REM
REM
REM
REM ./C.cell (b20cbc046b6831c77cfcea5457e17084)
REM AIRSS Version 0.9.1 bugfix July 2018 build 013d7b7c2542+ Fri, 06 Jul 2018 19:26:36 +0100
REM compiler GCC version 9.3.0
REM options -cpp -mtune=generic -march=x86-64 -g -O0
REM seed 1058079719 -970464903 -1107864186 1448331730 -1713030013 -914108750 565168864 -1051105206 -2018472349 -904459967 -607753708 777784450 1483382999 -729264255 62986629 -1889414404 -268655732 799911038 -1647311929 -1005602861 -1973985886 -706648784 -1454870678 1542042177 -224994964 455775120 -1308482123 -1347660921 -1033627447 -861461040 102822334 1978635895 -1030988699
REM
CELL 1.54180   50.00000   50.00000   50.00000   90.00000   90.00000   90.00000
LATT -1
SFAC C  
C      1  0.5318430000000  0.5541920000000  0.5516310000000 1.0
C      1  0.5213050000000  0.5572510000000  0.4406430000000 1.0
C      1  0.4444770000000  0.5581410000000  0.5010830000000 1.0
C      1  0.5452000000000  0.4328540000000  0.5437720000000 1.0
C      1  0.5202930000000  0.4447480000000  0.4499080000000 1.0
C      1  0.4383930000000  0.4407930000000  0.5157730000000 1.0
C      1  0.5204970000000  0.5769370000000  0.4615150000000 1.0
C      1  0.4657650000000  0.5776630000000  0.4942690000000 1.0
C      1  0.5199360000000  0.5751950000000  0.5362900000000 1.0
C      1  0.5175850000000  0.4244860000000  0.4696240000000 1.0
C      1  0.4570100000000  0.4254330000000  0.5011890000000 1.0
C      1  0.5267750000000  0.4164200000000  0.5296860000000 1.0
C      1  0.4724660000000  0.4759000000000  0.4211030000000 1.0
C      1  0.4537910000000  0.4709690000000  0.5705600000000 1.0
C      1  0.5864650000000  0.4687810000000  0.5098050000000 1.0
C      1  0.4706270000000  0.5281700000000  0.4169190000000 1.0
C      1  0.4420520000000  0.5357450000000  0.5637400000000 1.0
C      1  0.5821930000000  0.5259150000000  0.5188350000000 1.0
C      1  0.4916610000000  0.4384380000000  0.5550770000000 1.0
C      1  0.5628670000000  0.4401010000000  0.4812260000000 1.0
C      1  0.4552030000000  0.4451580000000  0.4532690000000 1.0
C      1  0.4772600000000  0.5658260000000  0.5589490000000 1.0
C      1  0.5589620000000  0.5579470000000  0.4916730000000 1.0
C      1  0.4597890000000  0.5622770000000  0.4477240000000 1.0
C      1  0.4416460000000  0.4713910000000  0.4575010000000 1.0
C      1  0.5096290000000  0.4604110000000  0.5626480000000 1.0
C      1  0.5637610000000  0.4662570000000  0.4679300000000 1.0
C      1  0.4444390000000  0.5389350000000  0.4549380000000 1.0
C      1  0.4878730000000  0.5415800000000  0.5715220000000 1.0
C      1  0.5636240000000  0.5316090000000  0.4784500000000 1.0
C      1  0.5661600000000  0.5012080000000  0.5627460000000 1.0
C      1  0.5222240000000  0.5132850000000  0.4248030000000 1.0
C      1  0.4151190000000  0.5077780000000  0.5306190000000 1.0
C      1  0.5605010000000  0.4750240000000  0.5576820000000 1.0
C      1  0.5257560000000  0.4856840000000  0.4268590000000 1.0
C      1  0.4188610000000  0.4808410000000  0.5308310000000 1.0
C      1  0.5580570000000  0.5481580000000  0.5441810000000 1.0
C      1  0.5018280000000  0.5553460000000  0.4200990000000 1.0
C      1  0.4354520000000  0.5555340000000  0.5275900000000 1.0
C      1  0.5701190000000  0.4372870000000  0.5316030000000 1.0
C      1  0.5008130000000  0.4467810000000  0.4303850000000 1.0
C      1  0.4413100000000  0.4411180000000  0.5443470000000 1.0
C      1  0.4842460000000  0.5226900000000  0.5235860000000 1.0
C      1  0.5227770000000  0.5269420000000  0.4993220000000 1.0
C      1  0.4813130000000  0.5144190000000  0.4768410000000 1.0
C      1  0.4796860000000  0.4786920000000  0.5266080000000 1.0
C      1  0.5252310000000  0.4818610000000  0.5049060000000 1.0
C      1  0.4874940000000  0.4697680000000  0.4815830000000 1.0
C      1  0.4918060000000  0.5795520000000  0.5393320000000 1.0
C      1  0.5351760000000  0.5748220000000  0.4864580000000 1.0
C      1  0.4722750000000  0.5796330000000  0.4666900000000 1.0
C      1  0.4986260000000  0.4197580000000  0.5334390000000 1.0
C      1  0.5409840000000  0.4210020000000  0.4849240000000 1.0
C      1  0.4650830000000  0.4272100000000  0.4733940000000 1.0
C      1  0.4501610000000  0.5609580000000  0.5523080000000 1.0
C      1  0.5687790000000  0.5525710000000  0.5174880000000 1.0
C      1  0.4741150000000  0.5566650000000  0.4240540000000 1.0
C      1  0.4650520000000  0.4451660000000  0.5607580000000 1.0
C      1  0.5779260000000  0.4412670000000  0.5046680000000 1.0
C      1  0.4725190000000  0.4485340000000  0.4315350000000 1.0
C      1  0.4241740000000  0.5307210000000  0.5399960000000 1.0
C      1  0.5719030000000  0.5221460000000  0.5467900000000 1.0
C      1  0.4997150000000  0.5261020000000  0.4124110000000 1.0
C      1  0.4295760000000  0.4659610000000  0.5541530000000 1.0
C      1  0.5793660000000  0.4642260000000  0.5385360000000 1.0
C      1  0.5022520000000  0.4731790000000  0.4177510000000 1.0
C      1  0.4661770000000  0.5219400000000  0.5733750000000 1.0
C      1  0.5791950000000  0.5129740000000  0.4931510000000 1.0
C      1  0.4508730000000  0.5176560000000  0.4351130000000 1.0
C      1  0.4710620000000  0.4937020000000  0.5717760000000 1.0
C      1  0.5786900000000  0.4846440000000  0.4875140000000 1.0
C      1  0.4513200000000  0.4894360000000  0.4367250000000 1.0
C      1  0.5180300000000  0.5825540000000  0.5078050000000 1.0
C      1  0.4968320000000  0.5914970000000  0.4604430000000 1.0
C      1  0.4883230000000  0.5851510000000  0.5108690000000 1.0
C      1  0.5383810000000  0.4045770000000  0.5071730000000 1.0
C      1  0.4921290000000  0.4177470000000  0.4805980000000 1.0
C      1  0.4835190000000  0.4159280000000  0.5091910000000 1.0
C      1  0.4268010000000  0.4664420000000  0.5066000000000 1.0
C      1  0.5375570000000  0.4560870000000  0.5597860000000 1.0
C      1  0.5374930000000  0.4710680000000  0.4524450000000 1.0
C      1  0.4394810000000  0.5348760000000  0.4831950000000 1.0
C      1  0.5137020000000  0.5337980000000  0.5619860000000 1.0
C      1  0.5317390000000  0.5311240000000  0.4449240000000 1.0
C      1  0.4952340000000  0.4866040000000  0.5552540000000 1.0
C      1  0.5270250000000  0.4912800000000  0.4735620000000 1.0
C      1  0.4346920000000  0.4822150000000  0.4833280000000 1.0
C      1  0.5089670000000  0.5109950000000  0.5429400000000 1.0
C      1  0.5374740000000  0.5198150000000  0.4715340000000 1.0
C      1  0.4511770000000  0.5073910000000  0.4909720000000 1.0
C      1  0.5272410000000  0.5063780000000  0.5192190000000 1.0
C      1  0.4651860000000  0.5024240000000  0.5183670000000 1.0
C      1  0.4966060000000  0.4922580000000  0.4689080000000 1.0
C      1  0.4985630000000  0.4702020000000  0.5070520000000 1.0
C      1  0.4946610000000  0.5291200000000  0.4977190000000 1.0
END
