TITL C-70308-941-1 -0.635284191303639 125000 -1144.6167972711 0 0 163 (C1) n - 1
REM
REM in /rds/project/t2_vol4/rds-t2-cs072/BORA/CARBON/from-Arr/AIRSS/Generating-Clusters/GAP-ML-2020/Higher-Symm/SD-CG/HFTN-CG/C160-200
REM
REM
REM
REM
REM
REM ./C.cell (6b4489405718ea1b717e0baf1da4c2d9)
REM AIRSS Version 0.9.1 bugfix July 2018 build 013d7b7c2542+ Fri, 06 Jul 2018 19:26:36 +0100
REM compiler GCC version 9.3.0
REM options -cpp -mtune=generic -march=x86-64 -g -O0
REM seed 2111868397 752450291 1010255167 -1484966581 1714611138 1011216911 1520492213 -1472392403 1670308423 2032280677 -1913804957 -1675521469 1479149406 1652654696 2096950866 -1763000079 -682595939 -1829189809 1041396899 687867318 1403939848 -1656980312 1196531952 -1190909171 882848634 1524047231 -884473451 -825100115 -1035600192 1094375321 1217083647 1902783244 820777
REM
CELL 1.54180   50.00000   50.00000   50.00000   90.00000   90.00000   90.00000
LATT -1
SFAC C  
C      1  0.4242130000000  0.4976320000000  0.5847510000000 1.0
C      1  0.5781190000000  0.4970660000000  0.5819900000000 1.0
C      1  0.4713050000000  0.4054990000000  0.5007120000000 1.0
C      1  0.5256330000000  0.4036880000000  0.4983470000000 1.0
C      1  0.4012420000000  0.5244990000000  0.5153240000000 1.0
C      1  0.5990280000000  0.5265430000000  0.5140910000000 1.0
C      1  0.5541350000000  0.5481130000000  0.4886660000000 1.0
C      1  0.4453240000000  0.5453500000000  0.4894610000000 1.0
C      1  0.4683170000000  0.4202740000000  0.5627060000000 1.0
C      1  0.5330330000000  0.4198510000000  0.5605050000000 1.0
C      1  0.4601710000000  0.6009240000000  0.4844090000000 1.0
C      1  0.5383330000000  0.6024150000000  0.4841780000000 1.0
C      1  0.4347030000000  0.4319360000000  0.4561110000000 1.0
C      1  0.5555840000000  0.4259340000000  0.4704410000000 1.0
C      1  0.5237350000000  0.5039650000000  0.4990080000000 1.0
C      1  0.4769010000000  0.5021370000000  0.4991180000000 1.0
C      1  0.5369550000000  0.5788870000000  0.5480480000000 1.0
C      1  0.4631570000000  0.5780150000000  0.5483470000000 1.0
C      1  0.4820960000000  0.4005400000000  0.4741650000000 1.0
C      1  0.5107570000000  0.3963920000000  0.4726570000000 1.0
C      1  0.5674180000000  0.4650970000000  0.4316610000000 1.0
C      1  0.4300340000000  0.4655430000000  0.4288390000000 1.0
C      1  0.4608630000000  0.5996380000000  0.5122020000000 1.0
C      1  0.5381820000000  0.6005910000000  0.5118960000000 1.0
C      1  0.4009070000000  0.5384050000000  0.4905480000000 1.0
C      1  0.5986980000000  0.5409290000000  0.4892330000000 1.0
C      1  0.5157550000000  0.4694480000000  0.5423380000000 1.0
C      1  0.4869150000000  0.4697460000000  0.5437550000000 1.0
C      1  0.5129220000000  0.3867940000000  0.5199510000000 1.0
C      1  0.4846530000000  0.3873940000000  0.5210270000000 1.0
C      1  0.5557490000000  0.4925400000000  0.5305480000000 1.0
C      1  0.4453480000000  0.4926780000000  0.5329280000000 1.0
C      1  0.5155270000000  0.4088500000000  0.5408200000000 1.0
C      1  0.4845790000000  0.4092410000000  0.5419860000000 1.0
C      1  0.5696360000000  0.4505630000000  0.5689580000000 1.0
C      1  0.4319920000000  0.4515700000000  0.5724130000000 1.0
C      1  0.5325300000000  0.4915190000000  0.4499990000000 1.0
C      1  0.4672270000000  0.4877410000000  0.4510110000000 1.0
C      1  0.5538450000000  0.5362440000000  0.5164220000000 1.0
C      1  0.4463870000000  0.5335900000000  0.5173030000000 1.0
C      1  0.4483160000000  0.5052060000000  0.5066520000000 1.0
C      1  0.5524620000000  0.5079130000000  0.5058420000000 1.0
C      1  0.5146820000000  0.5872530000000  0.4718830000000 1.0
C      1  0.4840850000000  0.5867000000000  0.4717900000000 1.0
C      1  0.4678520000000  0.5837740000000  0.4475480000000 1.0
C      1  0.5307270000000  0.5850430000000  0.4472720000000 1.0
C      1  0.4713800000000  0.4931290000000  0.5452840000000 1.0
C      1  0.5304680000000  0.4932160000000  0.5439540000000 1.0
C      1  0.5537220000000  0.4168130000000  0.4969840000000 1.0
C      1  0.4472050000000  0.4233960000000  0.5025380000000 1.0
C      1  0.4035320000000  0.4728700000000  0.4992740000000 1.0
C      1  0.5982530000000  0.4755180000000  0.4978250000000 1.0
C      1  0.4637260000000  0.5505650000000  0.5596660000000 1.0
C      1  0.5372500000000  0.5514330000000  0.5592610000000 1.0
C      1  0.4360190000000  0.4932130000000  0.4363020000000 1.0
C      1  0.5625170000000  0.4948600000000  0.4360850000000 1.0
C      1  0.4006000000000  0.4960600000000  0.5172110000000 1.0
C      1  0.6002540000000  0.4977770000000  0.5162630000000 1.0
C      1  0.5607110000000  0.4534870000000  0.4700770000000 1.0
C      1  0.4476370000000  0.4403490000000  0.4796830000000 1.0
C      1  0.4375260000000  0.5142270000000  0.4166140000000 1.0
C      1  0.5615460000000  0.5156560000000  0.4155970000000 1.0
C      1  0.5285340000000  0.5395730000000  0.5307270000000 1.0
C      1  0.4718620000000  0.5385310000000  0.5309710000000 1.0
C      1  0.4850020000000  0.4734550000000  0.4950310000000 1.0
C      1  0.5176210000000  0.4746700000000  0.4944590000000 1.0
C      1  0.5147280000000  0.5050150000000  0.4017030000000 1.0
C      1  0.4842630000000  0.5047960000000  0.4013450000000 1.0
C      1  0.4420080000000  0.5859140000000  0.5306310000000 1.0
C      1  0.5575550000000  0.5872440000000  0.5299860000000 1.0
C      1  0.5142230000000  0.5590360000000  0.5127250000000 1.0
C      1  0.4852730000000  0.5584030000000  0.5127860000000 1.0
C      1  0.5344700000000  0.4276010000000  0.4455010000000 1.0
C      1  0.4554330000000  0.4266660000000  0.4361550000000 1.0
C      1  0.5684400000000  0.5419670000000  0.5599590000000 1.0
C      1  0.4326080000000  0.5413970000000  0.5612420000000 1.0
C      1  0.4219110000000  0.5245950000000  0.5793620000000 1.0
C      1  0.5796790000000  0.5241260000000  0.5768100000000 1.0
C      1  0.4863630000000  0.4301830000000  0.5836230000000 1.0
C      1  0.5159540000000  0.4299620000000  0.5826140000000 1.0
C      1  0.5788460000000  0.5717840000000  0.5199480000000 1.0
C      1  0.4211690000000  0.5697480000000  0.5207800000000 1.0
C      1  0.5816980000000  0.5646970000000  0.4907750000000 1.0
C      1  0.4177420000000  0.5623100000000  0.4918270000000 1.0
C      1  0.5830030000000  0.5523590000000  0.4465410000000 1.0
C      1  0.4156870000000  0.5495780000000  0.4479630000000 1.0
C      1  0.4563660000000  0.5472300000000  0.4150110000000 1.0
C      1  0.5417640000000  0.5486290000000  0.4141560000000 1.0
C      1  0.5309680000000  0.4965270000000  0.6053150000000 1.0
C      1  0.4721400000000  0.4967820000000  0.6067870000000 1.0
C      1  0.4860680000000  0.5128540000000  0.5278930000000 1.0
C      1  0.5149390000000  0.5133680000000  0.5276690000000 1.0
C      1  0.5457890000000  0.4478440000000  0.4234840000000 1.0
C      1  0.4519450000000  0.4483500000000  0.4181700000000 1.0
C      1  0.5584300000000  0.4320210000000  0.5497810000000 1.0
C      1  0.4428840000000  0.4328230000000  0.5537440000000 1.0
C      1  0.4217080000000  0.5424680000000  0.5328420000000 1.0
C      1  0.5788630000000  0.5443100000000  0.5316310000000 1.0
C      1  0.4090960000000  0.4753280000000  0.4706140000000 1.0
C      1  0.5924650000000  0.4803490000000  0.4700920000000 1.0
C      1  0.5802730000000  0.5053430000000  0.4598560000000 1.0
C      1  0.4191220000000  0.5018330000000  0.4609360000000 1.0
C      1  0.4737400000000  0.5566570000000  0.4849290000000 1.0
C      1  0.5251870000000  0.5583360000000  0.4846160000000 1.0
C      1  0.5569590000000  0.4860280000000  0.5975930000000 1.0
C      1  0.4457990000000  0.4866820000000  0.6000640000000 1.0
C      1  0.5824410000000  0.4806020000000  0.5349840000000 1.0
C      1  0.4180820000000  0.4807550000000  0.5377170000000 1.0
C      1  0.4816250000000  0.4175250000000  0.4498270000000 1.0
C      1  0.5125900000000  0.4078260000000  0.4466110000000 1.0
C      1  0.4435770000000  0.5910740000000  0.4617360000000 1.0
C      1  0.5548030000000  0.5932240000000  0.4610350000000 1.0
C      1  0.4857440000000  0.4767250000000  0.3863220000000 1.0
C      1  0.5151000000000  0.4767960000000  0.3871890000000 1.0
C      1  0.4175230000000  0.4543640000000  0.4517100000000 1.0
C      1  0.5826060000000  0.4594060000000  0.4542690000000 1.0
C      1  0.4153490000000  0.4560990000000  0.5206620000000 1.0
C      1  0.5847080000000  0.4564920000000  0.5165530000000 1.0
C      1  0.5158960000000  0.5870240000000  0.5277590000000 1.0
C      1  0.4836250000000  0.5866500000000  0.5278110000000 1.0
C      1  0.4743860000000  0.5578820000000  0.4352500000000 1.0
C      1  0.5238830000000  0.5594200000000  0.4347130000000 1.0
C      1  0.5325100000000  0.4681860000000  0.4688770000000 1.0
C      1  0.4711400000000  0.4624860000000  0.4704550000000 1.0
C      1  0.5267930000000  0.4640830000000  0.4098650000000 1.0
C      1  0.4738180000000  0.4635330000000  0.4084080000000 1.0
C      1  0.4879280000000  0.4730140000000  0.6094320000000 1.0
C      1  0.5152550000000  0.4728680000000  0.6085630000000 1.0
C      1  0.5141290000000  0.4278670000000  0.5143540000000 1.0
C      1  0.4853060000000  0.4284440000000  0.5161600000000 1.0
C      1  0.4431830000000  0.5165400000000  0.4780360000000 1.0
C      1  0.5564720000000  0.5194150000000  0.4772580000000 1.0
C      1  0.5283810000000  0.5146450000000  0.4683640000000 1.0
C      1  0.4713300000000  0.5120190000000  0.4687160000000 1.0
C      1  0.5282920000000  0.4497010000000  0.5980080000000 1.0
C      1  0.4744360000000  0.4499790000000  0.5994510000000 1.0
C      1  0.5771340000000  0.5754100000000  0.4633900000000 1.0
C      1  0.4214930000000  0.5730050000000  0.4644130000000 1.0
C      1  0.4331490000000  0.4339720000000  0.5259440000000 1.0
C      1  0.5670670000000  0.4331040000000  0.5205520000000 1.0
C      1  0.4298450000000  0.5408730000000  0.4252370000000 1.0
C      1  0.5686050000000  0.5426130000000  0.4241080000000 1.0
C      1  0.5850150000000  0.4745860000000  0.5635440000000 1.0
C      1  0.4167240000000  0.4754380000000  0.5665780000000 1.0
C      1  0.4042360000000  0.5282730000000  0.4635360000000 1.0
C      1  0.5951420000000  0.5314370000000  0.4619470000000 1.0
C      1  0.4849000000000  0.4846940000000  0.4273930000000 1.0
C      1  0.5142940000000  0.4859710000000  0.4272690000000 1.0
C      1  0.5158410000000  0.5202090000000  0.5988150000000 1.0
C      1  0.4868630000000  0.5202570000000  0.5993410000000 1.0
C      1  0.5158090000000  0.5428140000000  0.5795570000000 1.0
C      1  0.4859610000000  0.5426820000000  0.5799260000000 1.0
C      1  0.5167540000000  0.4464860000000  0.4597740000000 1.0
C      1  0.4896510000000  0.4442750000000  0.4581640000000 1.0
C      1  0.4617900000000  0.5222840000000  0.4021630000000 1.0
C      1  0.5367200000000  0.5233440000000  0.4017730000000 1.0
C      1  0.5245300000000  0.4561490000000  0.5168400000000 1.0
C      1  0.4772690000000  0.4570800000000  0.5191110000000 1.0
C      1  0.4844920000000  0.5389520000000  0.4624600000000 1.0
C      1  0.5144060000000  0.5403590000000  0.4623460000000 1.0
C      1  0.5543750000000  0.4579560000000  0.5917790000000 1.0
C      1  0.4481260000000  0.4586100000000  0.5944920000000 1.0
C      1  0.4988100000000  0.5657400000000  0.4250790000000 1.0
END
