TITL C-70321-381-2 -71.9582625621738 125000 -1146.30319945967 0 0 164 (C3h) n - 1
REM
REM in /rds/project/t2_vol4/rds-t2-cs072/BORA/CARBON/from-Arr/AIRSS/Generating-Clusters/GAP-ML-2020/Higher-Symm/SD-CG/HFTN-CG/C160-200
REM
REM
REM
REM
REM
REM ./C.cell (6b4489405718ea1b717e0baf1da4c2d9)
REM AIRSS Version 0.9.1 bugfix July 2018 build 013d7b7c2542+ Fri, 06 Jul 2018 19:26:36 +0100
REM compiler GCC version 9.3.0
REM options -cpp -mtune=generic -march=x86-64 -g -O0
REM seed -872109093 2142979696 1036724443 418926405 -1755985593 1794944211 -910633634 806405882 1505930496 -1562193422 -1893829382 165688008 -2059780967 -774448754 949275552 -1491792171 556483489 1604629627 1812679674 -1293432628 -655175546 -364710846 -1299591461 436820351 661188016 -373701621 -588220777 1191392851 -2063692424 -235753593 657617926 314471847 -1470031740
REM
CELL 1.54180   50.00000   50.00000   50.00000   90.00000   90.00000   90.00000
LATT -1
SFAC C  
C      1  0.4846350000000  0.5399790000000  0.5590940000000 1.0
C      1  0.4846090000000  0.5310340000000  0.4355350000000 1.0
C      1  0.4846440000000  0.4285020000000  0.5050610000000 1.0
C      1  0.5144700000000  0.5399850000000  0.5590870000000 1.0
C      1  0.5144440000000  0.5310400000000  0.4355280000000 1.0
C      1  0.5144790000000  0.4285070000000  0.5050540000000 1.0
C      1  0.5271300000000  0.4916270000000  0.3995580000000 1.0
C      1  0.5271790000000  0.4170680000000  0.5571700000000 1.0
C      1  0.5271430000000  0.5908440000000  0.5429330000000 1.0
C      1  0.4719210000000  0.4916160000000  0.3995700000000 1.0
C      1  0.4719710000000  0.4170580000000  0.5571830000000 1.0
C      1  0.4719360000000  0.5908340000000  0.5429460000000 1.0
C      1  0.4470010000000  0.5411430000000  0.5839510000000 1.0
C      1  0.4469620000000  0.5519620000000  0.4221060000000 1.0
C      1  0.4470060000000  0.4063900000000  0.4936590000000 1.0
C      1  0.5521150000000  0.5411630000000  0.5839280000000 1.0
C      1  0.5520760000000  0.5519810000000  0.4220820000000 1.0
C      1  0.5521200000000  0.4064090000000  0.4936350000000 1.0
C      1  0.5364410000000  0.5767400000000  0.5022490000000 1.0
C      1  0.5364460000000  0.4634500000000  0.4321130000000 1.0
C      1  0.5364770000000  0.4593550000000  0.5652930000000 1.0
C      1  0.4626250000000  0.5767260000000  0.5022660000000 1.0
C      1  0.4626300000000  0.4634360000000  0.4321300000000 1.0
C      1  0.4626610000000  0.4593420000000  0.5653100000000 1.0
C      1  0.5893490000000  0.4550580000000  0.4521510000000 1.0
C      1  0.5893690000000  0.4809300000000  0.5625320000000 1.0
C      1  0.5893360000000  0.5635870000000  0.4849360000000 1.0
C      1  0.4097400000000  0.4550250000000  0.4521920000000 1.0
C      1  0.4097600000000  0.4808960000000  0.5625730000000 1.0
C      1  0.4097270000000  0.5635530000000  0.4849770000000 1.0
C      1  0.4447090000000  0.4164160000000  0.5472620000000 1.0
C      1  0.4446780000000  0.5825500000000  0.5484680000000 1.0
C      1  0.4446610000000  0.5005270000000  0.4039880000000 1.0
C      1  0.5544370000000  0.4164360000000  0.5472370000000 1.0
C      1  0.5544060000000  0.5825710000000  0.5484430000000 1.0
C      1  0.5543890000000  0.5005480000000  0.4039630000000 1.0
C      1  0.4695340000000  0.5267500000000  0.5337100000000 1.0
C      1  0.4695200000000  0.5156580000000  0.4596870000000 1.0
C      1  0.4695410000000  0.4570990000000  0.5063040000000 1.0
C      1  0.5295640000000  0.5267620000000  0.5336960000000 1.0
C      1  0.5295500000000  0.5156690000000  0.4596730000000 1.0
C      1  0.5295710000000  0.4571100000000  0.5062910000000 1.0
C      1  0.5624150000000  0.5685430000000  0.5237300000000 1.0
C      1  0.5624090000000  0.4861640000000  0.4284670000000 1.0
C      1  0.5624430000000  0.4448530000000  0.5474410000000 1.0
C      1  0.4366640000000  0.5685190000000  0.5237590000000 1.0
C      1  0.4366580000000  0.4861400000000  0.4284950000000 1.0
C      1  0.4366920000000  0.4448290000000  0.5474690000000 1.0
C      1  0.3922980000000  0.4976890000000  0.5158850000000 1.0
C      1  0.3922900000000  0.5147150000000  0.4937810000000 1.0
C      1  0.3922950000000  0.4870600000000  0.4900880000000 1.0
C      1  0.6068030000000  0.4977290000000  0.5158360000000 1.0
C      1  0.6067950000000  0.5147550000000  0.4937330000000 1.0
C      1  0.6067990000000  0.4871000000000  0.4900390000000 1.0
C      1  0.4288290000000  0.5528610000000  0.4440180000000 1.0
C      1  0.4288620000000  0.4249080000000  0.4819270000000 1.0
C      1  0.4288650000000  0.5217150000000  0.5737830000000 1.0
C      1  0.5702190000000  0.5528880000000  0.4439860000000 1.0
C      1  0.5702510000000  0.4249340000000  0.4818950000000 1.0
C      1  0.5702540000000  0.5217420000000  0.5737510000000 1.0
C      1  0.5220320000000  0.5190160000000  0.4081260000000 1.0
C      1  0.5220800000000  0.4107920000000  0.5291670000000 1.0
C      1  0.5220570000000  0.5697290000000  0.5623710000000 1.0
C      1  0.4770120000000  0.5190080000000  0.4081370000000 1.0
C      1  0.4770600000000  0.4107840000000  0.5291770000000 1.0
C      1  0.4770380000000  0.5697200000000  0.5623820000000 1.0
C      1  0.4853800000000  0.5828760000000  0.4423390000000 1.0
C      1  0.4854160000000  0.4084740000000  0.4567630000000 1.0
C      1  0.4854300000000  0.5081660000000  0.6005880000000 1.0
C      1  0.5136560000000  0.5828810000000  0.4423330000000 1.0
C      1  0.5136920000000  0.4084790000000  0.4567570000000 1.0
C      1  0.5137060000000  0.5081720000000  0.6005810000000 1.0
C      1  0.5865100000000  0.4546280000000  0.5595460000000 1.0
C      1  0.5864760000000  0.5741500000000  0.5092070000000 1.0
C      1  0.5864780000000  0.4707950000000  0.4308680000000 1.0
C      1  0.4126280000000  0.4545960000000  0.5595850000000 1.0
C      1  0.4125940000000  0.5741170000000  0.5092470000000 1.0
C      1  0.4125950000000  0.4707620000000  0.4309070000000 1.0
C      1  0.4392750000000  0.4867060000000  0.5249050000000 1.0
C      1  0.4392610000000  0.5280410000000  0.4987740000000 1.0
C      1  0.4392640000000  0.4847430000000  0.4760420000000 1.0
C      1  0.5598350000000  0.4867290000000  0.5248780000000 1.0
C      1  0.5598210000000  0.5280630000000  0.4987470000000 1.0
C      1  0.5598240000000  0.4847660000000  0.4760150000000 1.0
C      1  0.5493600000000  0.4353170000000  0.4366960000000 1.0
C      1  0.5493870000000  0.4773970000000  0.5873630000000 1.0
C      1  0.5493410000000  0.5868380000000  0.4755870000000 1.0
C      1  0.4497280000000  0.4352990000000  0.4367190000000 1.0
C      1  0.4497550000000  0.4773780000000  0.5873850000000 1.0
C      1  0.4497090000000  0.5868190000000  0.4756100000000 1.0
C      1  0.4720990000000  0.4191940000000  0.4330400000000 1.0
C      1  0.4721250000000  0.4822550000000  0.6031680000000 1.0
C      1  0.4720720000000  0.5980600000000  0.4634910000000 1.0
C      1  0.5269950000000  0.4192040000000  0.4330270000000 1.0
C      1  0.5270220000000  0.4822650000000  0.6031550000000 1.0
C      1  0.5269680000000  0.5980700000000  0.4634790000000 1.0
C      1  0.4221290000000  0.4472260000000  0.4975120000000 1.0
C      1  0.4221260000000  0.5240490000000  0.5466640000000 1.0
C      1  0.4221040000000  0.5282050000000  0.4555570000000 1.0
C      1  0.5769830000000  0.4472550000000  0.4974760000000 1.0
C      1  0.5769800000000  0.5240780000000  0.5466290000000 1.0
C      1  0.5769580000000  0.5282340000000  0.4555220000000 1.0
C      1  0.4498360000000  0.4041510000000  0.5217820000000 1.0
C      1  0.4498170000000  0.5666190000000  0.5718290000000 1.0
C      1  0.4497860000000  0.5287270000000  0.4061040000000 1.0
C      1  0.5493030000000  0.4041690000000  0.5217590000000 1.0
C      1  0.5492840000000  0.5666370000000  0.5718060000000 1.0
C      1  0.5492540000000  0.5287450000000  0.4060810000000 1.0
C      1  0.5155040000000  0.5956930000000  0.5153810000000 1.0
C      1  0.5155040000000  0.4653360000000  0.4091370000000 1.0
C      1  0.5155460000000  0.4385040000000  0.5751510000000 1.0
C      1  0.4835610000000  0.5956870000000  0.5153890000000 1.0
C      1  0.4835610000000  0.4653300000000  0.4091440000000 1.0
C      1  0.4836040000000  0.4384980000000  0.5751590000000 1.0
C      1  0.5257050000000  0.5592780000000  0.4310320000000 1.0
C      1  0.5257440000000  0.4105000000000  0.4828450000000 1.0
C      1  0.5257450000000  0.5297610000000  0.5857850000000 1.0
C      1  0.4733350000000  0.5592680000000  0.4310440000000 1.0
C      1  0.4733750000000  0.4104900000000  0.4828570000000 1.0
C      1  0.4733760000000  0.5297510000000  0.5857970000000 1.0
C      1  0.4859510000000  0.6089800000000  0.4862240000000 1.0
C      1  0.4859670000000  0.4334280000000  0.4122140000000 1.0
C      1  0.4860060000000  0.4571090000000  0.6012510000000 1.0
C      1  0.5130950000000  0.6089850000000  0.4862180000000 1.0
C      1  0.5131110000000  0.4334330000000  0.4122080000000 1.0
C      1  0.5131490000000  0.4571140000000  0.6012450000000 1.0
C      1  0.4655640000000  0.5318940000000  0.4846960000000 1.0
C      1  0.4655750000000  0.4706380000000  0.4797390000000 1.0
C      1  0.4655820000000  0.4969730000000  0.5352680000000 1.0
C      1  0.5335100000000  0.5319070000000  0.4846810000000 1.0
C      1  0.5335200000000  0.4706500000000  0.4797240000000 1.0
C      1  0.5335280000000  0.4969860000000  0.5352520000000 1.0
C      1  0.4273760000000  0.5734070000000  0.4645960000000 1.0
C      1  0.4274000000000  0.4324560000000  0.4538460000000 1.0
C      1  0.4274180000000  0.4936210000000  0.5812880000000 1.0
C      1  0.5716740000000  0.5734340000000  0.4645630000000 1.0
C      1  0.5716980000000  0.4324830000000  0.4538130000000 1.0
C      1  0.5717150000000  0.4936480000000  0.5812550000000 1.0
C      1  0.4123210000000  0.4680190000000  0.4790810000000 1.0
C      1  0.4123290000000  0.4976870000000  0.5378750000000 1.0
C      1  0.4123100000000  0.5337700000000  0.4827840000000 1.0
C      1  0.5867740000000  0.4680510000000  0.4790410000000 1.0
C      1  0.5867820000000  0.4977200000000  0.5378350000000 1.0
C      1  0.5867630000000  0.5338020000000  0.4827450000000 1.0
C      1  0.4850150000000  0.4758620000000  0.5222940000000 1.0
C      1  0.4850020000000  0.5312230000000  0.5094620000000 1.0
C      1  0.4850000000000  0.4924300000000  0.4679340000000 1.0
C      1  0.5140970000000  0.4758680000000  0.5222870000000 1.0
C      1  0.5140840000000  0.5312280000000  0.5094560000000 1.0
C      1  0.5140820000000  0.4924360000000  0.4679280000000 1.0
C      1  0.5160710000000  0.4786720000000  0.5511580000000 1.0
C      1  0.5160430000000  0.5548300000000  0.4925910000000 1.0
C      1  0.5160510000000  0.4660310000000  0.4559200000000 1.0
C      1  0.4830540000000  0.4786660000000  0.5511660000000 1.0
C      1  0.4830260000000  0.5548240000000  0.4925980000000 1.0
C      1  0.4830350000000  0.4660250000000  0.4559280000000 1.0
C      1  0.4404580000000  0.4571130000000  0.5189020000000 1.0
C      1  0.4404450000000  0.5376390000000  0.5274040000000 1.0
C      1  0.4404340000000  0.5047390000000  0.4534150000000 1.0
C      1  0.5586600000000  0.4571350000000  0.5188750000000 1.0
C      1  0.5586470000000  0.5376610000000  0.5273770000000 1.0
C      1  0.5586370000000  0.5047610000000  0.4533880000000 1.0
C      1  0.4412560000000  0.4998300000000  0.4999070000000 1.0
C      1  0.5578380000000  0.4998520000000  0.4998800000000 1.0
END
