TITL C-70134-805-10 -0.00458159623049285 125000 -302.953245748754 0 0 45 (Cs) n - 1
REM
REM in /rds/project/t2_vol4/rds-t2-cs072/BORA/CARBON/from-Arr/AIRSS/Generating-Clusters/GAP-ML-2020/Higher-Symm/SD-CG/HFTN-CG
REM
REM
REM
REM
REM
REM ./C.cell (b20cbc046b6831c77cfcea5457e17084)
REM AIRSS Version 0.9.1 bugfix July 2018 build 013d7b7c2542+ Fri, 06 Jul 2018 19:26:36 +0100
REM compiler GCC version 9.3.0
REM options -cpp -mtune=generic -march=x86-64 -g -O0
REM seed -872922025 252073273 305205362 1098200779 621912859 2048193826 1589606517 -204798302 579504753 1023990583 825724177 1719179513 -1775756325 1543968846 798490991 -281750632 639227217 -674226259 469684871 1160763166 1209675936 -1175024403 165887262 -1890217918 1034671522 1747265171 -1460217203 -496559432 -653620570 1981694932 1722927087 1801721633 -841225657
REM
CELL 1.54180   50.00000   50.00000   50.00000   90.00000   90.00000   90.00000
LATT -1
SFAC C  
C      1  0.4766230000000  0.4660460000000  0.5106620000000 1.0
C      1  0.4599600000000  0.5090870000000  0.5109840000000 1.0
C      1  0.4772940000000  0.5345140000000  0.5112070000000 1.0
C      1  0.5103620000000  0.5362720000000  0.5117400000000 1.0
C      1  0.5338640000000  0.5129450000000  0.5117390000000 1.0
C      1  0.5321940000000  0.4798770000000  0.5113170000000 1.0
C      1  0.5065600000000  0.4589180000000  0.5106400000000 1.0
C      1  0.4479250000000  0.5045930000000  0.5384990000000 1.0
C      1  0.4703890000000  0.5440150000000  0.5392470000000 1.0
C      1  0.5152660000000  0.5496520000000  0.5389700000000 1.0
C      1  0.5478340000000  0.5181520000000  0.5385860000000 1.0
C      1  0.5449670000000  0.4729330000000  0.5383950000000 1.0
C      1  0.5079940000000  0.4468800000000  0.5385180000000 1.0
C      1  0.4648380000000  0.4609050000000  0.5381720000000 1.0
C      1  0.4829230000000  0.4436950000000  0.5503390000000 1.0
C      1  0.4462150000000  0.4787400000000  0.5481560000000 1.0
C      1  0.4497690000000  0.5293330000000  0.5509820000000 1.0
C      1  0.4913780000000  0.5580640000000  0.5501160000000 1.0
C      1  0.5397850000000  0.5422650000000  0.5492240000000 1.0
C      1  0.5581730000000  0.4947690000000  0.5488680000000 1.0
C      1  0.5330260000000  0.4504850000000  0.5493090000000 1.0
C      1  0.5444590000000  0.4735830000000  0.4839310000000 1.0
C      1  0.5079720000000  0.4468340000000  0.4826530000000 1.0
C      1  0.4645050000000  0.4607690000000  0.4832130000000 1.0
C      1  0.4473090000000  0.5051860000000  0.4835460000000 1.0
C      1  0.4700600000000  0.5447630000000  0.4833870000000 1.0
C      1  0.5150530000000  0.5495400000000  0.4845010000000 1.0
C      1  0.5468970000000  0.5181920000000  0.4848610000000 1.0
C      1  0.4712570000000  0.5167520000000  0.4446640000000 1.0
C      1  0.4947510000000  0.5323680000000  0.4451740000000 1.0
C      1  0.5215300000000  0.5237700000000  0.4454510000000 1.0
C      1  0.5316990000000  0.4975030000000  0.4452540000000 1.0
C      1  0.5176880000000  0.4731200000000  0.4447300000000 1.0
C      1  0.4898010000000  0.4688510000000  0.4443050000000 1.0
C      1  0.4690590000000  0.4883570000000  0.4449650000000 1.0
C      1  0.5503040000000  0.4958900000000  0.4681760000000 1.0
C      1  0.5288370000000  0.4569450000000  0.4670980000000 1.0
C      1  0.4845120000000  0.4500950000000  0.4666630000000 1.0
C      1  0.4519430000000  0.4815550000000  0.4684080000000 1.0
C      1  0.4548300000000  0.5267640000000  0.4672380000000 1.0
C      1  0.4922160000000  0.5515400000000  0.4678070000000 1.0
C      1  0.5343150000000  0.5371910000000  0.4684860000000 1.0
C      1  0.4988840000000  0.4992150000000  0.5368030000000 1.0
C      1  0.4982650000000  0.4993830000000  0.4824920000000 1.0
C      1  0.4853610000000  0.4941690000000  0.5115700000000 1.0
END
