TITL C-70137-1782-6 -0.139840975075022 125000 -1140.30108330008 0 0 159 (C1) n - 1
REM
REM in /rds/project/t2_vol4/rds-t2-cs072/BORA/CARBON/from-Arr/AIRSS/Generating-Clusters/GAP-ML-2020/Higher-Symm/SD-CG/HFTN-CG
REM
REM
REM
REM
REM
REM ./C.cell (b20cbc046b6831c77cfcea5457e17084)
REM AIRSS Version 0.9.1 bugfix July 2018 build 013d7b7c2542+ Fri, 06 Jul 2018 19:26:36 +0100
REM compiler GCC version 9.3.0
REM options -cpp -mtune=generic -march=x86-64 -g -O0
REM seed 823218499 654266867 1551954709 -355639819 -265312554 -1284718430 1972014406 -1584880929 133322406 -26184475 -2005775582 -828237853 309302746 -1115808924 669905327 -450193583 1184019887 203450394 -1742002021 100714470 198735807 -1763295467 1793446493 1237621985 -1858432343 -157445035 343140650 -172810500 1965108169 1725534499 -1315223180 -961707000 -1279443408
REM
CELL 1.54180   50.00000   50.00000   50.00000   90.00000   90.00000   90.00000
LATT -1
SFAC C  
C      1  0.5473220000000  0.5278370000000  0.4078490000000 1.0
C      1  0.5925780000000  0.4733170000000  0.5477230000000 1.0
C      1  0.4523730000000  0.5274190000000  0.5927460000000 1.0
C      1  0.4076800000000  0.4728350000000  0.4527780000000 1.0
C      1  0.5537660000000  0.4759180000000  0.5097910000000 1.0
C      1  0.4903350000000  0.5247690000000  0.5539510000000 1.0
C      1  0.4462230000000  0.4758250000000  0.4907320000000 1.0
C      1  0.5093940000000  0.5248980000000  0.4464040000000 1.0
C      1  0.5300830000000  0.4567750000000  0.5101270000000 1.0
C      1  0.4899610000000  0.5439760000000  0.5303050000000 1.0
C      1  0.4699200000000  0.4570570000000  0.4907440000000 1.0
C      1  0.5093410000000  0.5435980000000  0.4701400000000 1.0
C      1  0.4773510000000  0.5734710000000  0.4306710000000 1.0
C      1  0.5682910000000  0.4269950000000  0.4778730000000 1.0
C      1  0.5221730000000  0.5738330000000  0.5684310000000 1.0
C      1  0.4305290000000  0.4271020000000  0.5226880000000 1.0
C      1  0.5876030000000  0.5118430000000  0.5205220000000 1.0
C      1  0.4795720000000  0.4887980000000  0.5877530000000 1.0
C      1  0.4124580000000  0.5117220000000  0.4797540000000 1.0
C      1  0.5203430000000  0.4890450000000  0.4126090000000 1.0
C      1  0.4628670000000  0.5448750000000  0.4638440000000 1.0
C      1  0.5360050000000  0.4559540000000  0.4632940000000 1.0
C      1  0.5367760000000  0.5448820000000  0.5362570000000 1.0
C      1  0.4635910000000  0.4557010000000  0.5371970000000 1.0
C      1  0.4630390000000  0.5516300000000  0.5830260000000 1.0
C      1  0.4175250000000  0.4487080000000  0.4635570000000 1.0
C      1  0.5365330000000  0.5519670000000  0.4176660000000 1.0
C      1  0.5828800000000  0.4491040000000  0.5370520000000 1.0
C      1  0.4492520000000  0.4724840000000  0.4253040000000 1.0
C      1  0.5748210000000  0.5281790000000  0.4494200000000 1.0
C      1  0.5508010000000  0.4727530000000  0.5750980000000 1.0
C      1  0.4250220000000  0.5279900000000  0.5509710000000 1.0
C      1  0.5312510000000  0.4846480000000  0.4643450000000 1.0
C      1  0.5358050000000  0.5161700000000  0.5315370000000 1.0
C      1  0.4686300000000  0.4844560000000  0.5361150000000 1.0
C      1  0.4640330000000  0.5161380000000  0.4689170000000 1.0
C      1  0.5446410000000  0.4942360000000  0.4885070000000 1.0
C      1  0.5116450000000  0.5064770000000  0.5449060000000 1.0
C      1  0.4552530000000  0.4941550000000  0.5119860000000 1.0
C      1  0.4881670000000  0.5065470000000  0.4555180000000 1.0
C      1  0.3990310000000  0.4846590000000  0.4802820000000 1.0
C      1  0.5197630000000  0.5160760000000  0.3992180000000 1.0
C      1  0.6010410000000  0.4848760000000  0.5199560000000 1.0
C      1  0.4800820000000  0.5157970000000  0.6012280000000 1.0
C      1  0.4407790000000  0.5106130000000  0.5709220000000 1.0
C      1  0.4293650000000  0.4897640000000  0.4410950000000 1.0
C      1  0.5590200000000  0.5109140000000  0.4295470000000 1.0
C      1  0.5707410000000  0.4901160000000  0.5593310000000 1.0
C      1  0.4931270000000  0.4600600000000  0.4763120000000 1.0
C      1  0.5237860000000  0.5406760000000  0.4933570000000 1.0
C      1  0.5068300000000  0.4594630000000  0.5247530000000 1.0
C      1  0.4753400000000  0.5412160000000  0.5070650000000 1.0
C      1  0.4800940000000  0.4446330000000  0.5166550000000 1.0
C      1  0.4834150000000  0.5560070000000  0.4803010000000 1.0
C      1  0.5198010000000  0.4448500000000  0.4840300000000 1.0
C      1  0.5160420000000  0.5559210000000  0.5200050000000 1.0
C      1  0.5014820000000  0.4866150000000  0.4723700000000 1.0
C      1  0.5277660000000  0.5141590000000  0.5018160000000 1.0
C      1  0.4983530000000  0.4862930000000  0.5281740000000 1.0
C      1  0.4719600000000  0.5143500000000  0.4986870000000 1.0
C      1  0.5816250000000  0.4609200000000  0.5100880000000 1.0
C      1  0.4900040000000  0.5398180000000  0.5817730000000 1.0
C      1  0.4183930000000  0.4607510000000  0.4903440000000 1.0
C      1  0.5097460000000  0.5399210000000  0.4185360000000 1.0
C      1  0.4544370000000  0.5680020000000  0.5620170000000 1.0
C      1  0.4387120000000  0.4322710000000  0.4551280000000 1.0
C      1  0.5449550000000  0.5683980000000  0.4388490000000 1.0
C      1  0.5618760000000  0.4327390000000  0.5456480000000 1.0
C      1  0.5172330000000  0.5873660000000  0.5213780000000 1.0
C      1  0.4773040000000  0.4134530000000  0.5161430000000 1.0
C      1  0.4838960000000  0.5871900000000  0.4774130000000 1.0
C      1  0.5212680000000  0.4133970000000  0.4828080000000 1.0
C      1  0.4631390000000  0.5356790000000  0.4061050000000 1.0
C      1  0.5936910000000  0.4647000000000  0.4634900000000 1.0
C      1  0.5366110000000  0.5361710000000  0.5938520000000 1.0
C      1  0.4059430000000  0.4648570000000  0.5369580000000 1.0
C      1  0.4411090000000  0.4377400000000  0.5480910000000 1.0
C      1  0.4519890000000  0.5627790000000  0.4412760000000 1.0
C      1  0.5584690000000  0.4379040000000  0.4520710000000 1.0
C      1  0.5480150000000  0.5629840000000  0.5586360000000 1.0
C      1  0.4953680000000  0.4731070000000  0.4087610000000 1.0
C      1  0.5913770000000  0.5276590000000  0.4954940000000 1.0
C      1  0.5046380000000  0.4731360000000  0.5914930000000 1.0
C      1  0.4086470000000  0.5275070000000  0.5047670000000 1.0
C      1  0.4847920000000  0.5537080000000  0.4118160000000 1.0
C      1  0.5875560000000  0.4467100000000  0.4851550000000 1.0
C      1  0.5149070000000  0.5540970000000  0.5876890000000 1.0
C      1  0.4116840000000  0.4468910000000  0.5152650000000 1.0
C      1  0.4802820000000  0.4316250000000  0.4286990000000 1.0
C      1  0.5713750000000  0.5691220000000  0.4803840000000 1.0
C      1  0.5198800000000  0.4318250000000  0.5718300000000 1.0
C      1  0.4282590000000  0.5688380000000  0.5199800000000 1.0
C      1  0.5635710000000  0.5758880000000  0.5375670000000 1.0
C      1  0.4630260000000  0.4246780000000  0.5626410000000 1.0
C      1  0.4374070000000  0.5759060000000  0.4631220000000 1.0
C      1  0.5374710000000  0.4249430000000  0.4364790000000 1.0
C      1  0.4950550000000  0.5863340000000  0.4486230000000 1.0
C      1  0.5499910000000  0.4135220000000  0.4952540000000 1.0
C      1  0.5047890000000  0.5872780000000  0.5501100000000 1.0
C      1  0.4485070000000  0.4142670000000  0.5049870000000 1.0
C      1  0.4548410000000  0.4447280000000  0.4341060000000 1.0
C      1  0.5659980000000  0.5559650000000  0.4549720000000 1.0
C      1  0.5453380000000  0.4450510000000  0.5663290000000 1.0
C      1  0.4337790000000  0.5556640000000  0.5454720000000 1.0
C      1  0.5882780000000  0.5325100000000  0.5417550000000 1.0
C      1  0.4584000000000  0.4679830000000  0.5882010000000 1.0
C      1  0.4119450000000  0.5324900000000  0.4585640000000 1.0
C      1  0.5415930000000  0.4684250000000  0.4118710000000 1.0
C      1  0.4404270000000  0.4972540000000  0.4689820000000 1.0
C      1  0.5311310000000  0.5034590000000  0.4406380000000 1.0
C      1  0.5595990000000  0.4974470000000  0.5314090000000 1.0
C      1  0.4687040000000  0.5032490000000  0.5598110000000 1.0
C      1  0.5503130000000  0.4136510000000  0.5249530000000 1.0
C      1  0.4750900000000  0.5871160000000  0.5504290000000 1.0
C      1  0.4503340000000  0.4138720000000  0.4757830000000 1.0
C      1  0.5242580000000  0.5867700000000  0.4504450000000 1.0
C      1  0.4231090000000  0.4596970000000  0.5589620000000 1.0
C      1  0.4411560000000  0.5407630000000  0.4233100000000 1.0
C      1  0.5766840000000  0.4598200000000  0.4413790000000 1.0
C      1  0.5587430000000  0.5411280000000  0.5768820000000 1.0
C      1  0.4714130000000  0.4427570000000  0.5831780000000 1.0
C      1  0.4169030000000  0.5577900000000  0.4715070000000 1.0
C      1  0.5287390000000  0.4430640000000  0.4164710000000 1.0
C      1  0.5836070000000  0.5577990000000  0.5288290000000 1.0
C      1  0.5095660000000  0.4115100000000  0.5536080000000 1.0
C      1  0.4464490000000  0.5891620000000  0.5096540000000 1.0
C      1  0.4908820000000  0.4115520000000  0.4466620000000 1.0
C      1  0.5533810000000  0.5891870000000  0.4909690000000 1.0
C      1  0.6044040000000  0.4897060000000  0.4731810000000 1.0
C      1  0.5269160000000  0.5111600000000  0.6045790000000 1.0
C      1  0.3953240000000  0.4898040000000  0.5271200000000 1.0
C      1  0.4729790000000  0.5107370000000  0.3955060000000 1.0
C      1  0.5296960000000  0.5963060000000  0.4768410000000 1.0
C      1  0.5271710000000  0.4035480000000  0.5346020000000 1.0
C      1  0.4654360000000  0.5971710000000  0.5272630000000 1.0
C      1  0.4767480000000  0.4043890000000  0.4703340000000 1.0
C      1  0.4979660000000  0.5159220000000  0.3816390000000 1.0
C      1  0.6183860000000  0.4845970000000  0.4980380000000 1.0
C      1  0.5020360000000  0.5162710000000  0.6185200000000 1.0
C      1  0.3814930000000  0.4846210000000  0.5021120000000 1.0
C      1  0.5305730000000  0.4845410000000  0.5925480000000 1.0
C      1  0.4075320000000  0.5162720000000  0.5307570000000 1.0
C      1  0.4693460000000  0.4843080000000  0.4077020000000 1.0
C      1  0.5923830000000  0.5162860000000  0.4695290000000 1.0
C      1  0.4148700000000  0.5542660000000  0.4998130000000 1.0
C      1  0.5003940000000  0.4463890000000  0.4149900000000 1.0
C      1  0.5851120000000  0.5543850000000  0.5004860000000 1.0
C      1  0.4997180000000  0.4463700000000  0.5852400000000 1.0
C      1  0.4818550000000  0.4102720000000  0.5464130000000 1.0
C      1  0.4536250000000  0.5903630000000  0.4819360000000 1.0
C      1  0.5185330000000  0.4108970000000  0.4525220000000 1.0
C      1  0.5475160000000  0.5898810000000  0.5186170000000 1.0
C      1  0.5765210000000  0.5222060000000  0.5653340000000 1.0
C      1  0.4347840000000  0.4785170000000  0.5767040000000 1.0
C      1  0.4234740000000  0.5218840000000  0.4349950000000 1.0
C      1  0.5651250000000  0.4787990000000  0.4236600000000 1.0
C      1  0.5070720000000  0.5975860000000  0.4942040000000 1.0
C      1  0.4941110000000  0.4031140000000  0.4929540000000 1.0
C      1  0.4999190000000  0.5003540000000  0.5002880000000 1.0
END
