TITL C-70137-1782-4 78.9495410426019 125000 -786.711413802822 0 0 113 (C1) n - 1
REM
REM in /rds/project/t2_vol4/rds-t2-cs072/BORA/CARBON/from-Arr/AIRSS/Generating-Clusters/GAP-ML-2020/Higher-Symm/SD-CG/HFTN-CG
REM
REM
REM
REM
REM
REM ./C.cell (b20cbc046b6831c77cfcea5457e17084)
REM AIRSS Version 0.9.1 bugfix July 2018 build 013d7b7c2542+ Fri, 06 Jul 2018 19:26:36 +0100
REM compiler GCC version 9.3.0
REM options -cpp -mtune=generic -march=x86-64 -g -O0
REM seed -658994400 280635590 2063792166 476121159 -764528170 2005128789 -1592657204 -1472653409 1052775377 -337957316 -922516788 741381580 -1245345999 -398194478 -2145288233 998033161 -663801168 -1169252489 1401477054 -1319913049 -398790924 -602955538 1234888692 503397371 2106306193 -1212915416 -23436287 742401106 -1756599367 -586179993 1747571106 -1632854075 -1934734642
REM
CELL 1.54180   50.00000   50.00000   50.00000   90.00000   90.00000   90.00000
LATT -1
SFAC C  
C      1  0.5678670000000  0.4487920000000  0.5432760000000 1.0
C      1  0.5688770000000  0.4964460000000  0.5663750000000 1.0
C      1  0.5643310000000  0.5430980000000  0.5492570000000 1.0
C      1  0.5627140000000  0.5646960000000  0.5054750000000 1.0
C      1  0.5678000000000  0.5505240000000  0.4571500000000 1.0
C      1  0.5668480000000  0.5031960000000  0.4332600000000 1.0
C      1  0.5660680000000  0.4555800000000  0.4506920000000 1.0
C      1  0.5651320000000  0.4342590000000  0.4948620000000 1.0
C      1  0.4828540000000  0.4666850000000  0.5142620000000 1.0
C      1  0.4893060000000  0.4892460000000  0.5321770000000 1.0
C      1  0.4760130000000  0.5153070000000  0.5332120000000 1.0
C      1  0.4769300000000  0.5351570000000  0.5130140000000 1.0
C      1  0.4904700000000  0.5308510000000  0.4885050000000 1.0
C      1  0.4932820000000  0.5103910000000  0.4681210000000 1.0
C      1  0.4788610000000  0.4840710000000  0.4676080000000 1.0
C      1  0.4788650000000  0.4642220000000  0.4865430000000 1.0
C      1  0.4256190000000  0.5483860000000  0.4593240000000 1.0
C      1  0.4376490000000  0.5082920000000  0.4388510000000 1.0
C      1  0.4241110000000  0.4582410000000  0.4510720000000 1.0
C      1  0.4378170000000  0.4359050000000  0.4891700000000 1.0
C      1  0.4362330000000  0.4486030000000  0.5427450000000 1.0
C      1  0.4249530000000  0.4947870000000  0.5659090000000 1.0
C      1  0.4352310000000  0.5376340000000  0.5546940000000 1.0
C      1  0.4362080000000  0.5657900000000  0.5080370000000 1.0
C      1  0.5506520000000  0.4254850000000  0.5376190000000 1.0
C      1  0.5538050000000  0.4758590000000  0.5800600000000 1.0
C      1  0.5396690000000  0.5338740000000  0.5628890000000 1.0
C      1  0.5413040000000  0.5698150000000  0.5264130000000 1.0
C      1  0.5532190000000  0.5755230000000  0.4634390000000 1.0
C      1  0.5504930000000  0.5239300000000  0.4211990000000 1.0
C      1  0.5418410000000  0.4640780000000  0.4354120000000 1.0
C      1  0.5448830000000  0.4285690000000  0.4730360000000 1.0
C      1  0.5190860000000  0.5488930000000  0.5227190000000 1.0
C      1  0.5149980000000  0.5450940000000  0.4929530000000 1.0
C      1  0.5204390000000  0.4963120000000  0.4747600000000 1.0
C      1  0.5208780000000  0.4719330000000  0.4564450000000 1.0
C      1  0.5214970000000  0.4491580000000  0.4755030000000 1.0
C      1  0.5213570000000  0.4586180000000  0.5035690000000 1.0
C      1  0.5175020000000  0.4992440000000  0.5272050000000 1.0
C      1  0.5185570000000  0.5255340000000  0.5415900000000 1.0
C      1  0.4845380000000  0.4193080000000  0.5077330000000 1.0
C      1  0.4819060000000  0.4524470000000  0.5660860000000 1.0
C      1  0.4865020000000  0.5107080000000  0.5808410000000 1.0
C      1  0.4833720000000  0.5576190000000  0.5564540000000 1.0
C      1  0.4805210000000  0.5832570000000  0.4884650000000 1.0
C      1  0.4870360000000  0.5517470000000  0.4356770000000 1.0
C      1  0.4831040000000  0.4871600000000  0.4217800000000 1.0
C      1  0.4867690000000  0.4400000000000  0.4427850000000 1.0
C      1  0.4999490000000  0.5657160000000  0.4760670000000 1.0
C      1  0.4945680000000  0.5233250000000  0.4391000000000 1.0
C      1  0.4930900000000  0.4702510000000  0.4436020000000 1.0
C      1  0.4947860000000  0.4368630000000  0.4732650000000 1.0
C      1  0.4987070000000  0.4433050000000  0.5219180000000 1.0
C      1  0.4968140000000  0.4761820000000  0.5607280000000 1.0
C      1  0.4904490000000  0.5279920000000  0.5563730000000 1.0
C      1  0.4923110000000  0.5613420000000  0.5267010000000 1.0
C      1  0.4530150000000  0.5771580000000  0.4868030000000 1.0
C      1  0.4598460000000  0.5573420000000  0.4387970000000 1.0
C      1  0.4538670000000  0.4880120000000  0.4249940000000 1.0
C      1  0.4576100000000  0.4384230000000  0.4386990000000 1.0
C      1  0.4554260000000  0.4206670000000  0.5075340000000 1.0
C      1  0.4541010000000  0.4558780000000  0.5649650000000 1.0
C      1  0.4596440000000  0.5038020000000  0.5862680000000 1.0
C      1  0.4531680000000  0.5603650000000  0.5540850000000 1.0
C      1  0.5037430000000  0.4408800000000  0.5515530000000 1.0
C      1  0.5068650000000  0.4912550000000  0.5831490000000 1.0
C      1  0.5039550000000  0.5683680000000  0.5747780000000 1.0
C      1  0.4980050000000  0.5866610000000  0.5098320000000 1.0
C      1  0.5065250000000  0.5682230000000  0.4479310000000 1.0
C      1  0.5030650000000  0.5070640000000  0.4172170000000 1.0
C      1  0.5083560000000  0.4282520000000  0.4262090000000 1.0
C      1  0.5024890000000  0.4109980000000  0.4888090000000 1.0
C      1  0.5740660000000  0.5015420000000  0.4612220000000 1.0
C      1  0.5750160000000  0.4732660000000  0.4711460000000 1.0
C      1  0.5758660000000  0.4603980000000  0.4979000000000 1.0
C      1  0.5761690000000  0.4701830000000  0.5259160000000 1.0
C      1  0.5757900000000  0.4973610000000  0.5386280000000 1.0
C      1  0.5741850000000  0.5256500000000  0.5286930000000 1.0
C      1  0.5733710000000  0.5382080000000  0.5020740000000 1.0
C      1  0.5738890000000  0.5284570000000  0.4742970000000 1.0
C      1  0.5494580000000  0.5844280000000  0.4888800000000 1.0
C      1  0.5519090000000  0.5485070000000  0.4324540000000 1.0
C      1  0.5497720000000  0.4842590000000  0.4180200000000 1.0
C      1  0.5556860000000  0.4289910000000  0.4470680000000 1.0
C      1  0.5503570000000  0.4158800000000  0.5120930000000 1.0
C      1  0.5520650000000  0.4521200000000  0.5678870000000 1.0
C      1  0.5515780000000  0.5155680000000  0.5803500000000 1.0
C      1  0.5516970000000  0.5690250000000  0.5527870000000 1.0
C      1  0.5339570000000  0.5697130000000  0.4419950000000 1.0
C      1  0.5304760000000  0.5051450000000  0.4108230000000 1.0
C      1  0.5335280000000  0.4352330000000  0.4284190000000 1.0
C      1  0.5306830000000  0.4091370000000  0.4918140000000 1.0
C      1  0.5313070000000  0.4338110000000  0.5582260000000 1.0
C      1  0.5336930000000  0.4941990000000  0.5899650000000 1.0
C      1  0.5295320000000  0.5627640000000  0.5709670000000 1.0
C      1  0.5276870000000  0.5900480000000  0.5080750000000 1.0
C      1  0.4375880000000  0.5192040000000  0.5753160000000 1.0
C      1  0.4434010000000  0.5735660000000  0.5329090000000 1.0
C      1  0.4448940000000  0.5693260000000  0.4611880000000 1.0
C      1  0.4396100000000  0.5362200000000  0.4369700000000 1.0
C      1  0.4431270000000  0.4624220000000  0.4299150000000 1.0
C      1  0.4383330000000  0.4345490000000  0.4603850000000 1.0
C      1  0.4429050000000  0.4253270000000  0.5309090000000 1.0
C      1  0.4451610000000  0.4789430000000  0.5786520000000 1.0
C      1  0.4211230000000  0.5288130000000  0.4789860000000 1.0
C      1  0.4235260000000  0.5032260000000  0.4647360000000 1.0
C      1  0.4200180000000  0.4760010000000  0.4727240000000 1.0
C      1  0.4244710000000  0.4613070000000  0.4974560000000 1.0
C      1  0.4240620000000  0.4696230000000  0.5252230000000 1.0
C      1  0.4205500000000  0.4956000000000  0.5379290000000 1.0
C      1  0.4234490000000  0.5239420000000  0.5306690000000 1.0
C      1  0.4236110000000  0.5381980000000  0.5058690000000 1.0
C      1  0.5255400000000  0.4879150000000  0.5024220000000 1.0
END
