TITL C-70124-640-9 -47.8868424722016 125000 -376.014806486139 0 0 57 (Cs) n - 1
REM
REM in /rds/project/t2_vol4/rds-t2-cs072/BORA/CARBON/from-Arr/AIRSS/Generating-Clusters/GAP-ML-2020/Higher-Symm/SD-CG/HFTN-CG
REM
REM
REM
REM
REM
REM ./C.cell (b20cbc046b6831c77cfcea5457e17084)
REM AIRSS Version 0.9.1 bugfix July 2018 build 013d7b7c2542+ Fri, 06 Jul 2018 19:26:36 +0100
REM compiler GCC version 9.3.0
REM options -cpp -mtune=generic -march=x86-64 -g -O0
REM seed 1349423858 1567706387 -1545839257 1955413557 296504339 -1954558255 1130138527 -207744001 142902674 -520709240 678610878 -1449699524 1085520284 1650744627 -1654446962 -684624344 -280596250 -472683178 -1394356524 1141783090 -1478627527 1634556479 2106144902 -187977900 -143894510 598329313 429826671 1382104570 983486234 -1233529567 1679037916 -9898643 -109328158
REM
CELL 1.54180   50.00000   50.00000   50.00000   90.00000   90.00000   90.00000
LATT -1
SFAC C  
C      1  0.5246450000000  0.5476640000000  0.5257580000000 1.0
C      1  0.5477240000000  0.4934120000000  0.5322790000000 1.0
C      1  0.5056360000000  0.4471710000000  0.5276910000000 1.0
C      1  0.4523410000000  0.4742460000000  0.5276990000000 1.0
C      1  0.4651900000000  0.5357940000000  0.5317050000000 1.0
C      1  0.5246470000000  0.5476750000000  0.4766570000000 1.0
C      1  0.5477270000000  0.4934260000000  0.4701150000000 1.0
C      1  0.5056390000000  0.4471830000000  0.4746790000000 1.0
C      1  0.4523430000000  0.4742570000000  0.4746770000000 1.0
C      1  0.4651930000000  0.5358070000000  0.4706990000000 1.0
C      1  0.5614450000000  0.5182180000000  0.5277340000000 1.0
C      1  0.5337830000000  0.4476260000000  0.5283320000000 1.0
C      1  0.4592740000000  0.4467940000000  0.5274020000000 1.0
C      1  0.4418430000000  0.5197810000000  0.5287710000000 1.0
C      1  0.5016410000000  0.5652600000000  0.5271970000000 1.0
C      1  0.5614480000000  0.5182300000000  0.4746720000000 1.0
C      1  0.5337850000000  0.4476380000000  0.4740400000000 1.0
C      1  0.4592770000000  0.4468060000000  0.4749620000000 1.0
C      1  0.4418450000000  0.5197930000000  0.4736250000000 1.0
C      1  0.5016430000000  0.5652720000000  0.4752240000000 1.0
C      1  0.5375520000000  0.4720690000000  0.5472950000000 1.0
C      1  0.4834130000000  0.4440150000000  0.5445230000000 1.0
C      1  0.4473950000000  0.4943840000000  0.5459670000000 1.0
C      1  0.4842250000000  0.5501980000000  0.5463980000000 1.0
C      1  0.5469670000000  0.5409410000000  0.5415370000000 1.0
C      1  0.5375570000000  0.4720890000000  0.4550880000000 1.0
C      1  0.4834170000000  0.4440340000000  0.4578430000000 1.0
C      1  0.4473990000000  0.4944040000000  0.4564170000000 1.0
C      1  0.4842300000000  0.5502180000000  0.4560140000000 1.0
C      1  0.5469710000000  0.5409590000000  0.4608780000000 1.0
C      1  0.5126600000000  0.4800730000000  0.4395090000000 1.0
C      1  0.4878250000000  0.4654930000000  0.4406510000000 1.0
C      1  0.4714220000000  0.4903670000000  0.4397000000000 1.0
C      1  0.5016690000000  0.5328670000000  0.4387100000000 1.0
C      1  0.5290100000000  0.5371190000000  0.4406870000000 1.0
C      1  0.5126540000000  0.4800450000000  0.5628750000000 1.0
C      1  0.4878190000000  0.4654660000000  0.5617240000000 1.0
C      1  0.4714160000000  0.4903400000000  0.5626850000000 1.0
C      1  0.5016630000000  0.5328400000000  0.5636960000000 1.0
C      1  0.5290040000000  0.5370920000000  0.5617240000000 1.0
C      1  0.4824500000000  0.5179240000000  0.4859440000000 1.0
C      1  0.5115030000000  0.5218100000000  0.4859640000000 1.0
C      1  0.5235830000000  0.4950790000000  0.4859690000000 1.0
C      1  0.5015930000000  0.4748010000000  0.4862380000000 1.0
C      1  0.4762110000000  0.4885840000000  0.4863370000000 1.0
C      1  0.4824490000000  0.5179170000000  0.5164540000000 1.0
C      1  0.5115010000000  0.5218030000000  0.5164380000000 1.0
C      1  0.5235810000000  0.4950730000000  0.5164230000000 1.0
C      1  0.5015920000000  0.4747940000000  0.5161430000000 1.0
C      1  0.4762100000000  0.4885780000000  0.5160470000000 1.0
C      1  0.4965000000000  0.5700360000000  0.5012110000000 1.0
C      1  0.5664940000000  0.5211440000000  0.5012040000000 1.0
C      1  0.4359100000000  0.5182030000000  0.5011970000000 1.0
C      1  0.5395190000000  0.4462850000000  0.5011860000000 1.0
C      1  0.4587850000000  0.4402700000000  0.5011810000000 1.0
C      1  0.4965120000000  0.5050810000000  0.4369880000000 1.0
C      1  0.4965060000000  0.5050530000000  0.5654060000000 1.0
END
