TITL C-70298-8255-2 -78.6003323376517 125000 -1296.50061862352 0 0 184 (C1) n - 1
REM
REM in /rds/project/t2_vol4/rds-t2-cs072/BORA/CARBON/from-Arr/AIRSS/Generating-Clusters/GAP-ML-2020/Higher-Symm/SD-CG/HFTN-CG/C160-200
REM
REM
REM
REM
REM
REM ./C.cell (6b4489405718ea1b717e0baf1da4c2d9)
REM AIRSS Version 0.9.1 bugfix July 2018 build 013d7b7c2542+ Fri, 06 Jul 2018 19:26:36 +0100
REM compiler GCC version 9.3.0
REM options -cpp -mtune=generic -march=x86-64 -g -O0
REM seed 381518330 -1993847611 2111270868 490256269 1052723306 1816859500 383296610 -704736061 1234939661 -1173497100 359827255 1897720575 -1637242499 -1262952413 1819007182 -1851976664 -97286452 -1438633478 153727170 -288635409 -1130448510 -858976188 -1848706032 -905520445 901071615 151828685 120860555 1181015467 1892109128 -1582328127 708069691 1967432025 -326575641
REM
CELL 1.54180   50.00000   50.00000   50.00000   90.00000   90.00000   90.00000
LATT -1
SFAC C  
C      1  0.4782720000000  0.5200300000000  0.4666630000000 1.0
C      1  0.4977470000000  0.4750990000000  0.4614020000000 1.0
C      1  0.5305890000000  0.5117550000000  0.4662740000000 1.0
C      1  0.4684400000000  0.6051640000000  0.4755850000000 1.0
C      1  0.4232000000000  0.4190950000000  0.4751800000000 1.0
C      1  0.6030720000000  0.4770680000000  0.4727690000000 1.0
C      1  0.5419950000000  0.4941320000000  0.6014000000000 1.0
C      1  0.4844170000000  0.5391880000000  0.6011780000000 1.0
C      1  0.4728610000000  0.4677960000000  0.6017560000000 1.0
C      1  0.5574120000000  0.5030490000000  0.4010180000000 1.0
C      1  0.4708730000000  0.5350430000000  0.4132960000000 1.0
C      1  0.4668500000000  0.4337480000000  0.4010960000000 1.0
C      1  0.5031320000000  0.5416950000000  0.5055250000000 1.0
C      1  0.4633130000000  0.4805290000000  0.5016640000000 1.0
C      1  0.5329360000000  0.4777200000000  0.5062730000000 1.0
C      1  0.5441590000000  0.5261870000000  0.4036070000000 1.0
C      1  0.4904940000000  0.5158410000000  0.4034830000000 1.0
C      1  0.4929650000000  0.4395760000000  0.4009880000000 1.0
C      1  0.5544890000000  0.5668870000000  0.5252880000000 1.0
C      1  0.4159220000000  0.5156420000000  0.5230190000000 1.0
C      1  0.5289810000000  0.4208490000000  0.5251090000000 1.0
C      1  0.4653600000000  0.4924690000000  0.5907190000000 1.0
C      1  0.5230380000000  0.4755970000000  0.5916140000000 1.0
C      1  0.5100750000000  0.5329040000000  0.5911270000000 1.0
C      1  0.4643000000000  0.5778540000000  0.5696050000000 1.0
C      1  0.4492200000000  0.4319460000000  0.5696040000000 1.0
C      1  0.5853020000000  0.4921480000000  0.5690380000000 1.0
C      1  0.4409810000000  0.4375170000000  0.5133480000000 1.0
C      1  0.5810040000000  0.4829250000000  0.5123140000000 1.0
C      1  0.4745140000000  0.5792040000000  0.5128710000000 1.0
C      1  0.4680980000000  0.4403360000000  0.4703240000000 1.0
C      1  0.5601910000000  0.5059160000000  0.4657040000000 1.0
C      1  0.4700030000000  0.5515000000000  0.4611930000000 1.0
C      1  0.5144170000000  0.6071420000000  0.4927810000000 1.0
C      1  0.3997970000000  0.4593310000000  0.4906480000000 1.0
C      1  0.5835510000000  0.4357510000000  0.4909180000000 1.0
C      1  0.5970110000000  0.5116450000000  0.5501100000000 1.0
C      1  0.4419050000000  0.5779770000000  0.5504700000000 1.0
C      1  0.4608210000000  0.4116100000000  0.5516400000000 1.0
C      1  0.4305230000000  0.4512690000000  0.5599820000000 1.0
C      1  0.5778410000000  0.4665850000000  0.5597380000000 1.0
C      1  0.4902310000000  0.5843520000000  0.5608920000000 1.0
C      1  0.5348740000000  0.5746000000000  0.5474480000000 1.0
C      1  0.4182790000000  0.4950860000000  0.5450480000000 1.0
C      1  0.5462260000000  0.4329800000000  0.5472620000000 1.0
C      1  0.4095840000000  0.5161920000000  0.4471030000000 1.0
C      1  0.5338080000000  0.4072450000000  0.4512280000000 1.0
C      1  0.5621090000000  0.5797210000000  0.4512090000000 1.0
C      1  0.4807550000000  0.5243650000000  0.4952270000000 1.0
C      1  0.4804010000000  0.4620090000000  0.4828220000000 1.0
C      1  0.5326380000000  0.5056070000000  0.4958260000000 1.0
C      1  0.4846200000000  0.4140100000000  0.4609020000000 1.0
C      1  0.5786860000000  0.5327260000000  0.4589760000000 1.0
C      1  0.4378430000000  0.5546970000000  0.4582490000000 1.0
C      1  0.6131830000000  0.5050670000000  0.4780830000000 1.0
C      1  0.4392370000000  0.5988890000000  0.4800960000000 1.0
C      1  0.4437530000000  0.3971310000000  0.4811230000000 1.0
C      1  0.5544790000000  0.5673670000000  0.5662620000000 1.0
C      1  0.4158420000000  0.5133520000000  0.5659800000000 1.0
C      1  0.5307750000000  0.4199920000000  0.5669710000000 1.0
C      1  0.4201790000000  0.5591450000000  0.5520250000000 1.0
C      1  0.4881740000000  0.4025460000000  0.5541080000000 1.0
C      1  0.5918770000000  0.5399210000000  0.5527460000000 1.0
C      1  0.4443700000000  0.5262900000000  0.4171350000000 1.0
C      1  0.5105290000000  0.4223090000000  0.4147670000000 1.0
C      1  0.5546790000000  0.5504560000000  0.4155070000000 1.0
C      1  0.5030970000000  0.4071560000000  0.4854920000000 1.0
C      1  0.5782440000000  0.5518120000000  0.4844700000000 1.0
C      1  0.4205900000000  0.5432020000000  0.4823330000000 1.0
C      1  0.4898200000000  0.5576060000000  0.5265390000000 1.0
C      1  0.4547180000000  0.4625370000000  0.5240870000000 1.0
C      1  0.5547080000000  0.4802950000000  0.5267020000000 1.0
C      1  0.5490460000000  0.4636060000000  0.5511280000000 1.0
C      1  0.5070360000000  0.5611760000000  0.5511250000000 1.0
C      1  0.4434290000000  0.4765060000000  0.5487730000000 1.0
C      1  0.5482410000000  0.3985660000000  0.5027780000000 1.0
C      1  0.5638150000000  0.5946080000000  0.5035100000000 1.0
C      1  0.3884130000000  0.5095820000000  0.4980190000000 1.0
C      1  0.4560400000000  0.5028210000000  0.4611130000000 1.0
C      1  0.5208320000000  0.4617060000000  0.4612090000000 1.0
C      1  0.5246290000000  0.5394700000000  0.4605390000000 1.0
C      1  0.5326190000000  0.5673020000000  0.4201120000000 1.0
C      1  0.4380070000000  0.4987350000000  0.4144680000000 1.0
C      1  0.5359200000000  0.4341700000000  0.4140610000000 1.0
C      1  0.4950370000000  0.4509110000000  0.5070830000000 1.0
C      1  0.5520320000000  0.5218610000000  0.5096090000000 1.0
C      1  0.4573200000000  0.5325020000000  0.5091450000000 1.0
C      1  0.4560120000000  0.4019580000000  0.4559440000000 1.0
C      1  0.6016090000000  0.5130420000000  0.4531550000000 1.0
C      1  0.4386350000000  0.5855520000000  0.4548880000000 1.0
C      1  0.4055730000000  0.5520040000000  0.5273520000000 1.0
C      1  0.5017600000000  0.3926520000000  0.5303470000000 1.0
C      1  0.5939970000000  0.5572280000000  0.5291890000000 1.0
C      1  0.5134760000000  0.5162960000000  0.5159550000000 1.0
C      1  0.4861380000000  0.5002520000000  0.5151830000000 1.0
C      1  0.5050050000000  0.4762450000000  0.5187120000000 1.0
C      1  0.5687130000000  0.5009380000000  0.5904710000000 1.0
C      1  0.4650650000000  0.5589970000000  0.5906910000000 1.0
C      1  0.4655060000000  0.4414220000000  0.5908550000000 1.0
C      1  0.5568320000000  0.4777380000000  0.4102090000000 1.0
C      1  0.4831100000000  0.5559040000000  0.4326360000000 1.0
C      1  0.4506530000000  0.4524080000000  0.4123200000000 1.0
C      1  0.3903510000000  0.5276120000000  0.5206130000000 1.0
C      1  0.5305640000000  0.3924340000000  0.5250630000000 1.0
C      1  0.5786910000000  0.5820090000000  0.5252860000000 1.0
C      1  0.4578020000000  0.4799250000000  0.4070060000000 1.0
C      1  0.5334770000000  0.4610100000000  0.4052330000000 1.0
C      1  0.5124300000000  0.5472510000000  0.4312200000000 1.0
C      1  0.5747930000000  0.4818780000000  0.4816110000000 1.0
C      1  0.4794770000000  0.5762460000000  0.4821360000000 1.0
C      1  0.4417260000000  0.4409440000000  0.4830200000000 1.0
C      1  0.5094470000000  0.5819010000000  0.4777140000000 1.0
C      1  0.4250320000000  0.4667810000000  0.4759140000000 1.0
C      1  0.5638420000000  0.4528640000000  0.4762280000000 1.0
C      1  0.5268160000000  0.6014670000000  0.5368750000000 1.0
C      1  0.3982700000000  0.4752990000000  0.5342050000000 1.0
C      1  0.5732720000000  0.4267320000000  0.5353830000000 1.0
C      1  0.4342830000000  0.5195250000000  0.4999080000000 1.0
C      1  0.5164390000000  0.4331730000000  0.5003200000000 1.0
C      1  0.5505770000000  0.5490020000000  0.5012700000000 1.0
C      1  0.5157920000000  0.5274910000000  0.4094830000000 1.0
C      1  0.4850300000000  0.4875990000000  0.4008000000000 1.0
C      1  0.5048570000000  0.4659950000000  0.3995600000000 1.0
C      1  0.4796280000000  0.5146160000000  0.5458570000000 1.0
C      1  0.4949770000000  0.4714750000000  0.5494370000000 1.0
C      1  0.5246050000000  0.5105520000000  0.5467730000000 1.0
C      1  0.4003460000000  0.4309780000000  0.4925750000000 1.0
C      1  0.6067790000000  0.4518780000000  0.4909330000000 1.0
C      1  0.4885030000000  0.6187520000000  0.4940630000000 1.0
C      1  0.5372050000000  0.6070880000000  0.5106490000000 1.0
C      1  0.3895170000000  0.4808180000000  0.5069610000000 1.0
C      1  0.5722190000000  0.4157540000000  0.5089020000000 1.0
C      1  0.4202830000000  0.4665510000000  0.4462740000000 1.0
C      1  0.5675610000000  0.4464550000000  0.4468120000000 1.0
C      1  0.5114690000000  0.5923070000000  0.4490230000000 1.0
C      1  0.4070880000000  0.4492810000000  0.5416800000000 1.0
C      1  0.5909140000000  0.4483410000000  0.5407760000000 1.0
C      1  0.4991860000000  0.6052690000000  0.5426260000000 1.0
C      1  0.5049490000000  0.4161830000000  0.5731510000000 1.0
C      1  0.5712450000000  0.5471400000000  0.5718870000000 1.0
C      1  0.4239070000000  0.5381740000000  0.5716170000000 1.0
C      1  0.4701410000000  0.4897720000000  0.5600660000000 1.0
C      1  0.5223960000000  0.4794570000000  0.5611970000000 1.0
C      1  0.5067890000000  0.5304340000000  0.5609900000000 1.0
C      1  0.4813700000000  0.4512410000000  0.5332980000000 1.0
C      1  0.5510310000000  0.5098850000000  0.5362620000000 1.0
C      1  0.4670180000000  0.5378420000000  0.5353850000000 1.0
C      1  0.5226660000000  0.5542080000000  0.4856820000000 1.0
C      1  0.4426380000000  0.4929790000000  0.4847690000000 1.0
C      1  0.5342410000000  0.4547360000000  0.4853910000000 1.0
C      1  0.5316070000000  0.3991670000000  0.4783310000000 1.0
C      1  0.5711600000000  0.5805990000000  0.4782230000000 1.0
C      1  0.4001790000000  0.5227660000000  0.4734860000000 1.0
C      1  0.6008010000000  0.5020410000000  0.5236070000000 1.0
C      1  0.4484720000000  0.5871640000000  0.5244110000000 1.0
C      1  0.4500980000000  0.4119190000000  0.5254020000000 1.0
C      1  0.5990820000000  0.5448000000000  0.5043740000000 1.0
C      1  0.4143360000000  0.5636130000000  0.5031810000000 1.0
C      1  0.4875510000000  0.3934030000000  0.5058980000000 1.0
C      1  0.4319320000000  0.4445690000000  0.4327930000000 1.0
C      1  0.5758690000000  0.4687770000000  0.4313030000000 1.0
C      1  0.4859780000000  0.5863750000000  0.4346600000000 1.0
C      1  0.5515540000000  0.4254130000000  0.4361750000000 1.0
C      1  0.5374270000000  0.5884980000000  0.4378370000000 1.0
C      1  0.4173680000000  0.4919510000000  0.4334710000000 1.0
C      1  0.5617660000000  0.5294220000000  0.5920120000000 1.0
C      1  0.4438020000000  0.5390700000000  0.5919680000000 1.0
C      1  0.4937230000000  0.4332600000000  0.5928110000000 1.0
C      1  0.4295300000000  0.5875880000000  0.5037230000000 1.0
C      1  0.4590110000000  0.3955140000000  0.5047810000000 1.0
C      1  0.6100730000000  0.5184570000000  0.5026970000000 1.0
C      1  0.5348610000000  0.5228800000000  0.6013950000000 1.0
C      1  0.4628300000000  0.5188750000000  0.6009870000000 1.0
C      1  0.5014600000000  0.4598730000000  0.6020940000000 1.0
C      1  0.4839050000000  0.6069430000000  0.5187880000000 1.0
C      1  0.4117390000000  0.4352370000000  0.5175820000000 1.0
C      1  0.5994600000000  0.4602580000000  0.5163080000000 1.0
C      1  0.4639580000000  0.5985700000000  0.4470470000000 1.0
C      1  0.4328810000000  0.4197220000000  0.4472260000000 1.0
C      1  0.5960980000000  0.4843600000000  0.4450630000000 1.0
C      1  0.4275460000000  0.5362420000000  0.4377140000000 1.0
C      1  0.5070220000000  0.4105980000000  0.4401990000000 1.0
C      1  0.5700590000000  0.5542000000000  0.4390240000000 1.0
C      1  0.5028250000000  0.5026690000000  0.4581430000000 1.0
END
