TITL C-70128-519-4 38.9903490294532 125000 -211.043720325925 0 0 32 (C1) n - 1
REM
REM in /rds/project/t2_vol4/rds-t2-cs072/BORA/CARBON/from-Arr/AIRSS/Generating-Clusters/GAP-ML-2020/Higher-Symm/SD-CG/HFTN-CG
REM
REM
REM
REM
REM
REM ./C.cell (b20cbc046b6831c77cfcea5457e17084)
REM AIRSS Version 0.9.1 bugfix July 2018 build 013d7b7c2542+ Fri, 06 Jul 2018 19:26:36 +0100
REM compiler GCC version 9.3.0
REM options -cpp -mtune=generic -march=x86-64 -g -O0
REM seed -71270480 -1564297123 1903677400 -1426869749 -384886332 45984886 119279415 248582332 -981292897 -1275078220 -1422953468 54417808 1105186947 1685905284 -226162257 1910120509 1968677581 354679110 24011893 725386814 -1097350216 -1243752036 -238377615 -1643269772 610253156 -1590681598 347551432 -387695889 191176216 2073061735 762902667 -1937280227 -1855922360
REM
CELL 1.54180   50.00000   50.00000   50.00000   90.00000   90.00000   90.00000
LATT -1
SFAC C  
C      1  0.4734760000000  0.4687690000000  0.5261760000000 1.0
C      1  0.4523180000000  0.5082340000000  0.5155290000000 1.0
C      1  0.4897950000000  0.5344030000000  0.5048810000000 1.0
C      1  0.5412560000000  0.5305910000000  0.4662910000000 1.0
C      1  0.4616860000000  0.5322830000000  0.5090520000000 1.0
C      1  0.5411300000000  0.5457990000000  0.4901000000000 1.0
C      1  0.4394580000000  0.4996790000000  0.4680340000000 1.0
C      1  0.4868490000000  0.5160010000000  0.4596180000000 1.0
C      1  0.5088330000000  0.5450350000000  0.5261090000000 1.0
C      1  0.5111440000000  0.4843320000000  0.5515270000000 1.0
C      1  0.4670490000000  0.4947570000000  0.5364630000000 1.0
C      1  0.5396500000000  0.4901110000000  0.4906340000000 1.0
C      1  0.5341970000000  0.5353330000000  0.5149780000000 1.0
C      1  0.4706650000000  0.4534260000000  0.4750570000000 1.0
C      1  0.5474940000000  0.4647230000000  0.4983540000000 1.0
C      1  0.4597480000000  0.5087010000000  0.4558780000000 1.0
C      1  0.5013440000000  0.4738730000000  0.4398160000000 1.0
C      1  0.5338420000000  0.5030000000000  0.4653410000000 1.0
C      1  0.5403970000000  0.4607310000000  0.5247780000000 1.0
C      1  0.5019110000000  0.5074210000000  0.5167080000000 1.0
C      1  0.5315420000000  0.5059520000000  0.5154210000000 1.0
C      1  0.4458790000000  0.4900380000000  0.4944240000000 1.0
C      1  0.4996090000000  0.5335560000000  0.5495400000000 1.0
C      1  0.5194600000000  0.4440950000000  0.5322350000000 1.0
C      1  0.4850520000000  0.4605650000000  0.4552400000000 1.0
C      1  0.4635860000000  0.4675110000000  0.4982540000000 1.0
C      1  0.4923480000000  0.5064750000000  0.5457380000000 1.0
C      1  0.4989870000000  0.4617560000000  0.5379500000000 1.0
C      1  0.5085870000000  0.4986930000000  0.4509970000000 1.0
C      1  0.5204120000000  0.5494730000000  0.4690490000000 1.0
C      1  0.5365720000000  0.4878420000000  0.5388990000000 1.0
C      1  0.4957240000000  0.5368400000000  0.4769300000000 1.0
END
