TITL C-70140-662-1 230.726588326034 125000 -623.227692313848 0 0 90 (C1) n - 1
REM
REM in /rds/project/t2_vol4/rds-t2-cs072/BORA/CARBON/from-Arr/AIRSS/Generating-Clusters/GAP-ML-2020/Higher-Symm/SD-CG/HFTN-CG
REM
REM
REM
REM
REM
REM ./C.cell (b20cbc046b6831c77cfcea5457e17084)
REM AIRSS Version 0.9.1 bugfix July 2018 build 013d7b7c2542+ Fri, 06 Jul 2018 19:26:36 +0100
REM compiler GCC version 9.3.0
REM options -cpp -mtune=generic -march=x86-64 -g -O0
REM seed -655742358 -1704371288 327118983 -2066243467 -1615043162 1074822725 -301463280 1206685275 137504035 1596808651 -442090492 -1951396414 -623955123 -509065399 1937625250 -1379634767 1491405849 -1664034507 745059407 -592702660 320200240 2001711040 -517087821 791459893 -1135606453 -1498223697 8770346 -673545803 -1285568220 505790709 -2014766672 -1028900991 562015180
REM
CELL 1.54180   50.00000   50.00000   50.00000   90.00000   90.00000   90.00000
LATT -1
SFAC C  
C      1  0.4465800000000  0.4516750000000  0.5232850000000 1.0
C      1  0.4832170000000  0.4899860000000  0.4218510000000 1.0
C      1  0.5066530000000  0.4590280000000  0.5003830000000 1.0
C      1  0.4582530000000  0.5535320000000  0.4421540000000 1.0
C      1  0.5670220000000  0.5591890000000  0.5376250000000 1.0
C      1  0.5467690000000  0.5672130000000  0.5562850000000 1.0
C      1  0.5305690000000  0.4205450000000  0.5029360000000 1.0
C      1  0.4709500000000  0.4904540000000  0.5054750000000 1.0
C      1  0.5025110000000  0.5362010000000  0.4291620000000 1.0
C      1  0.4757900000000  0.4450010000000  0.4380270000000 1.0
C      1  0.5305970000000  0.5818400000000  0.4908750000000 1.0
C      1  0.4861010000000  0.5143090000000  0.4355020000000 1.0
C      1  0.4756610000000  0.4593050000000  0.5668920000000 1.0
C      1  0.5326710000000  0.5252580000000  0.5277900000000 1.0
C      1  0.4775800000000  0.4890830000000  0.4772470000000 1.0
C      1  0.5584400000000  0.4657090000000  0.5040310000000 1.0
C      1  0.4618620000000  0.5696280000000  0.5066820000000 1.0
C      1  0.5039810000000  0.4586670000000  0.5725310000000 1.0
C      1  0.5222910000000  0.5248290000000  0.4810860000000 1.0
C      1  0.4715960000000  0.5731210000000  0.5336870000000 1.0
C      1  0.4620980000000  0.4224190000000  0.4812950000000 1.0
C      1  0.4309820000000  0.5073550000000  0.5264980000000 1.0
C      1  0.5429340000000  0.4918040000000  0.5666170000000 1.0
C      1  0.4338650000000  0.4494660000000  0.4564370000000 1.0
C      1  0.4412710000000  0.5192080000000  0.5515390000000 1.0
C      1  0.5382920000000  0.4491610000000  0.5413710000000 1.0
C      1  0.4973990000000  0.5030900000000  0.5829600000000 1.0
C      1  0.4310850000000  0.5204290000000  0.4754390000000 1.0
C      1  0.5057190000000  0.5810410000000  0.5042720000000 1.0
C      1  0.5087620000000  0.4812640000000  0.4158210000000 1.0
C      1  0.4430800000000  0.4360440000000  0.4997100000000 1.0
C      1  0.4389950000000  0.4755080000000  0.4463030000000 1.0
C      1  0.4876200000000  0.4692670000000  0.5206520000000 1.0
C      1  0.5326350000000  0.4153050000000  0.4761620000000 1.0
C      1  0.5663370000000  0.5157170000000  0.4595650000000 1.0
C      1  0.5298800000000  0.5273420000000  0.4279040000000 1.0
C      1  0.4259020000000  0.4935340000000  0.4675100000000 1.0
C      1  0.4294760000000  0.5268460000000  0.5043900000000 1.0
C      1  0.5037440000000  0.4390810000000  0.4415060000000 1.0
C      1  0.5194740000000  0.5669150000000  0.5498720000000 1.0
C      1  0.5774250000000  0.5050280000000  0.5160310000000 1.0
C      1  0.4881220000000  0.5161470000000  0.5107480000000 1.0
C      1  0.5693850000000  0.4801460000000  0.5262470000000 1.0
C      1  0.4582060000000  0.5438840000000  0.5411950000000 1.0
C      1  0.5737740000000  0.5622400000000  0.5120940000000 1.0
C      1  0.4938200000000  0.5324080000000  0.4854480000000 1.0
C      1  0.4381230000000  0.4811120000000  0.5147320000000 1.0
C      1  0.5049300000000  0.4859700000000  0.5368950000000 1.0
C      1  0.5036050000000  0.4774650000000  0.4784920000000 1.0
C      1  0.4718220000000  0.4488480000000  0.5393130000000 1.0
C      1  0.4517610000000  0.5334740000000  0.4598900000000 1.0
C      1  0.4851840000000  0.5285330000000  0.5387480000000 1.0
C      1  0.5159300000000  0.5029510000000  0.5165740000000 1.0
C      1  0.5605030000000  0.5426470000000  0.5598470000000 1.0
C      1  0.5183540000000  0.4831070000000  0.5810520000000 1.0
C      1  0.4249310000000  0.4501750000000  0.4828590000000 1.0
C      1  0.5659160000000  0.5133340000000  0.4915050000000 1.0
C      1  0.5523350000000  0.4860230000000  0.4838900000000 1.0
C      1  0.4996710000000  0.5791080000000  0.5327310000000 1.0
C      1  0.5534400000000  0.5619040000000  0.4917650000000 1.0
C      1  0.4567330000000  0.4329060000000  0.4551080000000 1.0
C      1  0.5251670000000  0.5765730000000  0.4632140000000 1.0
C      1  0.5515990000000  0.5361740000000  0.4461340000000 1.0
C      1  0.4437150000000  0.5487890000000  0.5148360000000 1.0
C      1  0.4216420000000  0.4768490000000  0.4905820000000 1.0
C      1  0.5442060000000  0.4778850000000  0.4340490000000 1.0
C      1  0.4908520000000  0.5045530000000  0.5546160000000 1.0
C      1  0.4773710000000  0.5166010000000  0.4637800000000 1.0
C      1  0.5086580000000  0.4206820000000  0.4640220000000 1.0
C      1  0.4886560000000  0.4154380000000  0.4862180000000 1.0
C      1  0.5369200000000  0.4479660000000  0.5121500000000 1.0
C      1  0.4867880000000  0.5654830000000  0.4880190000000 1.0
C      1  0.5539270000000  0.4718680000000  0.5496230000000 1.0
C      1  0.5490190000000  0.5602020000000  0.4609750000000 1.0
C      1  0.4714430000000  0.5004700000000  0.5930470000000 1.0
C      1  0.5234390000000  0.4958350000000  0.4874180000000 1.0
C      1  0.4595280000000  0.4781430000000  0.5804170000000 1.0
C      1  0.5119530000000  0.5414800000000  0.5411060000000 1.0
C      1  0.5148690000000  0.4401930000000  0.5536890000000 1.0
C      1  0.5451730000000  0.5340410000000  0.4999100000000 1.0
C      1  0.5597320000000  0.4881000000000  0.4551540000000 1.0
C      1  0.5309770000000  0.4997340000000  0.4203880000000 1.0
C      1  0.5209830000000  0.4592240000000  0.4298940000000 1.0
C      1  0.4489800000000  0.5046750000000  0.5743200000000 1.0
C      1  0.4644480000000  0.4711840000000  0.4311850000000 1.0
C      1  0.4947650000000  0.4290240000000  0.5363050000000 1.0
C      1  0.5476260000000  0.5183020000000  0.5538020000000 1.0
C      1  0.5024800000000  0.4162510000000  0.5118650000000 1.0
C      1  0.4965840000000  0.5731400000000  0.4601010000000 1.0
C      1  0.4858860000000  0.5583630000000  0.4386900000000 1.0
END
