TITL C-70304-9309-2 -61.0930542533107 125000 -1290.62875820917 0 0 183 (C1) n - 1
REM
REM in /rds/project/t2_vol4/rds-t2-cs072/BORA/CARBON/from-Arr/AIRSS/Generating-Clusters/GAP-ML-2020/Higher-Symm/SD-CG/HFTN-CG/C160-200
REM
REM
REM
REM
REM
REM ./C.cell (6b4489405718ea1b717e0baf1da4c2d9)
REM AIRSS Version 0.9.1 bugfix July 2018 build 013d7b7c2542+ Fri, 06 Jul 2018 19:26:36 +0100
REM compiler GCC version 9.3.0
REM options -cpp -mtune=generic -march=x86-64 -g -O0
REM seed -1811496219 -674986348 1596489634 -1734675194 2122105650 836748948 2112388242 1820868045 2039975 -915415779 -368159160 -2041113077 -1159799619 -1104797719 965029746 784503874 838267492 1918819884 -2109439040 -174363607 -356245514 -753832687 -1425416224 -1540581242 -1375524276 -2078476118 1259041304 -883764224 1617050462 1379659029 -650818279 1225442782 -1193157044
REM
CELL 1.54180   50.00000   50.00000   50.00000   90.00000   90.00000   90.00000
LATT -1
SFAC C  
C      1  0.4159170000000  0.5436560000000  0.5404500000000 1.0
C      1  0.3894090000000  0.4736190000000  0.5398280000000 1.0
C      1  0.4763590000000  0.4491590000000  0.4487070000000 1.0
C      1  0.4840220000000  0.4908300000000  0.3800400000000 1.0
C      1  0.4383640000000  0.5438410000000  0.4411510000000 1.0
C      1  0.5399000000000  0.4886680000000  0.5673490000000 1.0
C      1  0.4292490000000  0.4930680000000  0.5971830000000 1.0
C      1  0.5174090000000  0.4431130000000  0.5841060000000 1.0
C      1  0.5097130000000  0.4778390000000  0.3796510000000 1.0
C      1  0.4555310000000  0.4993770000000  0.6057530000000 1.0
C      1  0.4690700000000  0.5321020000000  0.4085490000000 1.0
C      1  0.4465670000000  0.4925700000000  0.4998070000000 1.0
C      1  0.4427410000000  0.5238800000000  0.4203480000000 1.0
C      1  0.4959930000000  0.4058280000000  0.5244990000000 1.0
C      1  0.5699910000000  0.5143130000000  0.4783230000000 1.0
C      1  0.4183610000000  0.5168550000000  0.5864440000000 1.0
C      1  0.4394440000000  0.4556190000000  0.5661670000000 1.0
C      1  0.4841700000000  0.4390910000000  0.4746950000000 1.0
C      1  0.5240480000000  0.5947120000000  0.5629040000000 1.0
C      1  0.4728800000000  0.4978360000000  0.4602100000000 1.0
C      1  0.4446120000000  0.4654370000000  0.4839710000000 1.0
C      1  0.5013550000000  0.4877100000000  0.6057740000000 1.0
C      1  0.5282300000000  0.4965730000000  0.3893810000000 1.0
C      1  0.5815590000000  0.4989580000000  0.5049020000000 1.0
C      1  0.6008860000000  0.5094700000000  0.5252660000000 1.0
C      1  0.5603350000000  0.4466930000000  0.5541840000000 1.0
C      1  0.5417860000000  0.5546410000000  0.5721220000000 1.0
C      1  0.4930700000000  0.5613730000000  0.5812410000000 1.0
C      1  0.5745180000000  0.4463910000000  0.5067550000000 1.0
C      1  0.3908040000000  0.5265480000000  0.4844550000000 1.0
C      1  0.4014410000000  0.5086170000000  0.5660000000000 1.0
C      1  0.5219690000000  0.6139280000000  0.4726330000000 1.0
C      1  0.4760120000000  0.6055500000000  0.4957280000000 1.0
C      1  0.5230600000000  0.4439090000000  0.5006150000000 1.0
C      1  0.5815880000000  0.4798860000000  0.4366460000000 1.0
C      1  0.5665730000000  0.5647090000000  0.5570690000000 1.0
C      1  0.6276180000000  0.5311430000000  0.4721240000000 1.0
C      1  0.6070500000000  0.5467130000000  0.4825730000000 1.0
C      1  0.5587830000000  0.5017580000000  0.5277020000000 1.0
C      1  0.4634850000000  0.4069420000000  0.4525830000000 1.0
C      1  0.5649080000000  0.5845050000000  0.5373580000000 1.0
C      1  0.5016210000000  0.4505160000000  0.4333300000000 1.0
C      1  0.5445480000000  0.5280320000000  0.5303560000000 1.0
C      1  0.4687920000000  0.4365660000000  0.4059840000000 1.0
C      1  0.5235370000000  0.5355480000000  0.5498030000000 1.0
C      1  0.5511360000000  0.4080120000000  0.5199590000000 1.0
C      1  0.5236940000000  0.5993760000000  0.4475210000000 1.0
C      1  0.5798130000000  0.5819080000000  0.5124690000000 1.0
C      1  0.5369330000000  0.4655300000000  0.5482980000000 1.0
C      1  0.5331380000000  0.4066990000000  0.5595550000000 1.0
C      1  0.5535380000000  0.5326980000000  0.5882830000000 1.0
C      1  0.5145370000000  0.5432620000000  0.4600000000000 1.0
C      1  0.5123860000000  0.4923170000000  0.5172150000000 1.0
C      1  0.5372740000000  0.5580900000000  0.4701140000000 1.0
C      1  0.4864780000000  0.4679070000000  0.5496510000000 1.0
C      1  0.4967970000000  0.5510740000000  0.5356920000000 1.0
C      1  0.6139190000000  0.5117530000000  0.4567000000000 1.0
C      1  0.5172280000000  0.4066600000000  0.4576170000000 1.0
C      1  0.4876580000000  0.5179720000000  0.3914130000000 1.0
C      1  0.4374070000000  0.5813240000000  0.4711880000000 1.0
C      1  0.4943020000000  0.5960160000000  0.4466660000000 1.0
C      1  0.4234440000000  0.4323670000000  0.4613850000000 1.0
C      1  0.5393980000000  0.3967690000000  0.4710920000000 1.0
C      1  0.4542820000000  0.5247830000000  0.4647970000000 1.0
C      1  0.5388460000000  0.5991110000000  0.5404310000000 1.0
C      1  0.4468320000000  0.4264410000000  0.5661760000000 1.0
C      1  0.5574090000000  0.4053540000000  0.4907430000000 1.0
C      1  0.4502980000000  0.5915090000000  0.4964010000000 1.0
C      1  0.4007450000000  0.4805880000000  0.4739320000000 1.0
C      1  0.5899210000000  0.5304280000000  0.4611640000000 1.0
C      1  0.4578900000000  0.4725010000000  0.4540780000000 1.0
C      1  0.4807990000000  0.4009670000000  0.4985410000000 1.0
C      1  0.4377850000000  0.5373140000000  0.5841150000000 1.0
C      1  0.5827570000000  0.4711440000000  0.5565990000000 1.0
C      1  0.4063440000000  0.4978420000000  0.4500010000000 1.0
C      1  0.5364260000000  0.5362210000000  0.5055890000000 1.0
C      1  0.4665850000000  0.4624940000000  0.5722270000000 1.0
C      1  0.5169850000000  0.4520010000000  0.3897750000000 1.0
C      1  0.4801850000000  0.5670340000000  0.5559490000000 1.0
C      1  0.4325410000000  0.4410760000000  0.4364590000000 1.0
C      1  0.4746660000000  0.4047190000000  0.5457360000000 1.0
C      1  0.4416450000000  0.4112440000000  0.4700430000000 1.0
C      1  0.5913490000000  0.4702150000000  0.4984770000000 1.0
C      1  0.4845360000000  0.5535640000000  0.4213290000000 1.0
C      1  0.4590090000000  0.4282200000000  0.4324260000000 1.0
C      1  0.4262190000000  0.4971730000000  0.4284960000000 1.0
C      1  0.4751820000000  0.5774400000000  0.4353550000000 1.0
C      1  0.5458800000000  0.5805480000000  0.4496690000000 1.0
C      1  0.4611100000000  0.4761560000000  0.3810680000000 1.0
C      1  0.4314920000000  0.4167760000000  0.5169730000000 1.0
C      1  0.4671910000000  0.5084160000000  0.5422170000000 1.0
C      1  0.5725530000000  0.5732120000000  0.4408140000000 1.0
C      1  0.4776360000000  0.5295740000000  0.5270870000000 1.0
C      1  0.5677010000000  0.5968010000000  0.4903240000000 1.0
C      1  0.4929540000000  0.6093870000000  0.4732940000000 1.0
C      1  0.4738240000000  0.4172390000000  0.5723510000000 1.0
C      1  0.5054910000000  0.4569050000000  0.4830250000000 1.0
C      1  0.5005090000000  0.4981420000000  0.4495070000000 1.0
C      1  0.4877740000000  0.5370270000000  0.5961460000000 1.0
C      1  0.5282690000000  0.5636640000000  0.4994650000000 1.0
C      1  0.4845540000000  0.5221120000000  0.5000110000000 1.0
C      1  0.4464280000000  0.4122490000000  0.5409940000000 1.0
C      1  0.5265670000000  0.3993330000000  0.5339420000000 1.0
C      1  0.5164280000000  0.5217530000000  0.3937290000000 1.0
C      1  0.5308470000000  0.5360110000000  0.4137130000000 1.0
C      1  0.5587390000000  0.4992060000000  0.4308040000000 1.0
C      1  0.5212720000000  0.4691770000000  0.5985260000000 1.0
C      1  0.5764820000000  0.5447670000000  0.4376030000000 1.0
C      1  0.4809180000000  0.4552960000000  0.5195170000000 1.0
C      1  0.4751180000000  0.4953270000000  0.4913330000000 1.0
C      1  0.4361100000000  0.5152280000000  0.4848790000000 1.0
C      1  0.4131700000000  0.5659120000000  0.4716990000000 1.0
C      1  0.5083070000000  0.5147920000000  0.5954720000000 1.0
C      1  0.5719580000000  0.5894890000000  0.4634600000000 1.0
C      1  0.5391830000000  0.4798900000000  0.5220980000000 1.0
C      1  0.5674280000000  0.4541760000000  0.4462050000000 1.0
C      1  0.4126590000000  0.4385640000000  0.5090490000000 1.0
C      1  0.4935810000000  0.4756720000000  0.5019380000000 1.0
C      1  0.5475580000000  0.4401280000000  0.4282510000000 1.0
C      1  0.4733690000000  0.4532910000000  0.5986620000000 1.0
C      1  0.5577090000000  0.5281810000000  0.4239160000000 1.0
C      1  0.5223880000000  0.4290020000000  0.4389110000000 1.0
C      1  0.5151610000000  0.5090780000000  0.5634420000000 1.0
C      1  0.4338700000000  0.4673400000000  0.5394850000000 1.0
C      1  0.4500130000000  0.5718120000000  0.4465630000000 1.0
C      1  0.4525450000000  0.5713840000000  0.5474780000000 1.0
C      1  0.5198870000000  0.5735340000000  0.5793390000000 1.0
C      1  0.4753960000000  0.4792270000000  0.6097450000000 1.0
C      1  0.5114890000000  0.4514570000000  0.5513450000000 1.0
C      1  0.4157180000000  0.4534650000000  0.4817320000000 1.0
C      1  0.5663940000000  0.4305060000000  0.5303890000000 1.0
C      1  0.5017360000000  0.5674480000000  0.5080250000000 1.0
C      1  0.4418190000000  0.4949010000000  0.5310720000000 1.0
C      1  0.4112260000000  0.5472090000000  0.4500680000000 1.0
C      1  0.4081690000000  0.4554160000000  0.5303450000000 1.0
C      1  0.4026980000000  0.5527250000000  0.4941020000000 1.0
C      1  0.5420430000000  0.4279480000000  0.5735690000000 1.0
C      1  0.6051340000000  0.4844050000000  0.4523090000000 1.0
C      1  0.5463940000000  0.4611240000000  0.4991760000000 1.0
C      1  0.5747000000000  0.5224710000000  0.5718170000000 1.0
C      1  0.4928980000000  0.5547370000000  0.4800050000000 1.0
C      1  0.5049930000000  0.4366400000000  0.5246020000000 1.0
C      1  0.4520440000000  0.4130530000000  0.4971610000000 1.0
C      1  0.4390460000000  0.4700920000000  0.4271450000000 1.0
C      1  0.3963380000000  0.4809130000000  0.5667890000000 1.0
C      1  0.5974360000000  0.5577120000000  0.5089470000000 1.0
C      1  0.4889370000000  0.4081500000000  0.4702310000000 1.0
C      1  0.6012360000000  0.4861550000000  0.5441020000000 1.0
C      1  0.5107190000000  0.4792540000000  0.4315740000000 1.0
C      1  0.4903430000000  0.4321130000000  0.5910190000000 1.0
C      1  0.5252970000000  0.6087540000000  0.5170140000000 1.0
C      1  0.4340800000000  0.5534000000000  0.5606440000000 1.0
C      1  0.5198620000000  0.5124910000000  0.4668100000000 1.0
C      1  0.5672240000000  0.4972860000000  0.5579610000000 1.0
C      1  0.6020460000000  0.4640710000000  0.4728410000000 1.0
C      1  0.4702290000000  0.5401880000000  0.4828890000000 1.0
C      1  0.4611900000000  0.5267760000000  0.5981590000000 1.0
C      1  0.3912560000000  0.4973270000000  0.5226700000000 1.0
C      1  0.5411410000000  0.4555410000000  0.4053320000000 1.0
C      1  0.3900690000000  0.4992930000000  0.4944970000000 1.0
C      1  0.4403420000000  0.5778110000000  0.5203310000000 1.0
C      1  0.5391740000000  0.4842060000000  0.4137170000000 1.0
C      1  0.4117410000000  0.5143010000000  0.5381900000000 1.0
C      1  0.4943800000000  0.4959130000000  0.5453730000000 1.0
C      1  0.3970060000000  0.5241360000000  0.4571740000000 1.0
C      1  0.5108790000000  0.5472690000000  0.4298820000000 1.0
C      1  0.5982930000000  0.5381450000000  0.5305850000000 1.0
C      1  0.4183860000000  0.4706570000000  0.5821930000000 1.0
C      1  0.4172330000000  0.5604370000000  0.5178550000000 1.0
C      1  0.5411370000000  0.6110190000000  0.4936670000000 1.0
C      1  0.4536560000000  0.4608340000000  0.4021160000000 1.0
C      1  0.5497090000000  0.4711860000000  0.4709760000000 1.0
C      1  0.5851070000000  0.5436280000000  0.5552890000000 1.0
C      1  0.5777210000000  0.4256440000000  0.4861350000000 1.0
C      1  0.5146730000000  0.5159990000000  0.4976420000000 1.0
C      1  0.5869430000000  0.4409710000000  0.4638850000000 1.0
C      1  0.5375510000000  0.5148410000000  0.6025630000000 1.0
C      1  0.5426670000000  0.4872430000000  0.5964920000000 1.0
C      1  0.5481850000000  0.4992620000000  0.4628640000000 1.0
C      1  0.5565280000000  0.5385470000000  0.4845240000000 1.0
C      1  0.4972120000000  0.4400290000000  0.4055460000000 1.0
C      1  0.4984240000000  0.5975950000000  0.5114020000000 1.0
C      1  0.4635220000000  0.4443230000000  0.4961760000000 1.0
END
