TITL C-70323-171-1 0.0855935072971562 125000 -1369.7520728574 0 0 198 (C1) n - 1
REM
REM in /rds/project/t2_vol4/rds-t2-cs072/BORA/CARBON/from-Arr/AIRSS/Generating-Clusters/GAP-ML-2020/Higher-Symm/SD-CG/HFTN-CG/C160-200
REM
REM
REM
REM
REM
REM ./C.cell (6b4489405718ea1b717e0baf1da4c2d9)
REM AIRSS Version 0.9.1 bugfix July 2018 build 013d7b7c2542+ Fri, 06 Jul 2018 19:26:36 +0100
REM compiler GCC version 9.3.0
REM options -cpp -mtune=generic -march=x86-64 -g -O0
REM seed -1587173373 205873566 -1264443004 -268702037 1865764486 -1379773662 -1110673315 1515897503 -1933992717 -70111450 1665615607 845517160 -689168942 926753023 564757022 2047044369 854291927 1977990446 47543331 -1635391936 1131659285 1957981255 714517670 809649158 1873148184 1725188431 -980925692 2074013861 1326446059 1972256961 -1730109948 428628167 478529964
REM
CELL 1.54180   50.00000   50.00000   50.00000   90.00000   90.00000   90.00000
LATT -1
SFAC C  
C      1  0.4057420000000  0.4716410000000  0.5307880000000 1.0
C      1  0.4082880000000  0.5318230000000  0.4713530000000 1.0
C      1  0.5958430000000  0.4688970000000  0.5283280000000 1.0
C      1  0.5949580000000  0.5282370000000  0.4707580000000 1.0
C      1  0.4132970000000  0.5361640000000  0.5625980000000 1.0
C      1  0.4171410000000  0.4669110000000  0.4493250000000 1.0
C      1  0.5901840000000  0.5348450000000  0.5623430000000 1.0
C      1  0.5893540000000  0.4645760000000  0.4377170000000 1.0
C      1  0.4848100000000  0.5186550000000  0.4234790000000 1.0
C      1  0.4856640000000  0.4814210000000  0.5750290000000 1.0
C      1  0.5152540000000  0.5183760000000  0.4231080000000 1.0
C      1  0.5160770000000  0.4816590000000  0.5747200000000 1.0
C      1  0.4853110000000  0.4274460000000  0.5871670000000 1.0
C      1  0.4861060000000  0.5728130000000  0.4123840000000 1.0
C      1  0.5143900000000  0.4278690000000  0.5878840000000 1.0
C      1  0.5156370000000  0.5724050000000  0.4124160000000 1.0
C      1  0.5152900000000  0.4684020000000  0.4730670000000 1.0
C      1  0.5166610000000  0.5296420000000  0.5244190000000 1.0
C      1  0.4842010000000  0.4687220000000  0.4730160000000 1.0
C      1  0.4853420000000  0.5302930000000  0.5244840000000 1.0
C      1  0.5148860000000  0.3909520000000  0.5450410000000 1.0
C      1  0.5159000000000  0.6089720000000  0.4556930000000 1.0
C      1  0.4859440000000  0.3905090000000  0.5450100000000 1.0
C      1  0.4869330000000  0.6093660000000  0.4555120000000 1.0
C      1  0.5386060000000  0.5851300000000  0.5740750000000 1.0
C      1  0.5561830000000  0.4276350000000  0.4261950000000 1.0
C      1  0.4495440000000  0.5711650000000  0.5740980000000 1.0
C      1  0.4443550000000  0.4263210000000  0.4267650000000 1.0
C      1  0.4843500000000  0.4804970000000  0.5244730000000 1.0
C      1  0.4854390000000  0.5187200000000  0.4735100000000 1.0
C      1  0.5144060000000  0.4802170000000  0.5243830000000 1.0
C      1  0.5157400000000  0.5183610000000  0.4733640000000 1.0
C      1  0.3964880000000  0.4455910000000  0.4506650000000 1.0
C      1  0.3954190000000  0.5555970000000  0.5557000000000 1.0
C      1  0.6072690000000  0.4451900000000  0.4445530000000 1.0
C      1  0.6074130000000  0.5545150000000  0.5548360000000 1.0
C      1  0.5589970000000  0.4501090000000  0.4468880000000 1.0
C      1  0.5631640000000  0.5429840000000  0.5436160000000 1.0
C      1  0.4430980000000  0.4475820000000  0.4483120000000 1.0
C      1  0.4431780000000  0.5497400000000  0.5523640000000 1.0
C      1  0.5994900000000  0.5678440000000  0.5316460000000 1.0
C      1  0.5973910000000  0.4357660000000  0.4690690000000 1.0
C      1  0.4044030000000  0.5648990000000  0.5308100000000 1.0
C      1  0.4028150000000  0.4301170000000  0.4715280000000 1.0
C      1  0.5577670000000  0.4978830000000  0.5231870000000 1.0
C      1  0.5553330000000  0.5008950000000  0.4734380000000 1.0
C      1  0.4453390000000  0.4973540000000  0.5265770000000 1.0
C      1  0.4428020000000  0.4999660000000  0.4780920000000 1.0
C      1  0.5307710000000  0.5061410000000  0.5663850000000 1.0
C      1  0.5286020000000  0.4935500000000  0.4312240000000 1.0
C      1  0.4726920000000  0.5063390000000  0.5668910000000 1.0
C      1  0.4707360000000  0.4940630000000  0.4321370000000 1.0
C      1  0.4737130000000  0.5455880000000  0.5467980000000 1.0
C      1  0.4729660000000  0.4534140000000  0.4503620000000 1.0
C      1  0.5313640000000  0.5443010000000  0.5456590000000 1.0
C      1  0.5274110000000  0.4537390000000  0.4499440000000 1.0
C      1  0.4652140000000  0.6080810000000  0.4749780000000 1.0
C      1  0.4638840000000  0.3915680000000  0.5259800000000 1.0
C      1  0.5375230000000  0.6073710000000  0.4751520000000 1.0
C      1  0.5365480000000  0.3924800000000  0.5254060000000 1.0
C      1  0.4685430000000  0.5186210000000  0.6118160000000 1.0
C      1  0.4613340000000  0.4825870000000  0.3876730000000 1.0
C      1  0.5343870000000  0.5225970000000  0.6119260000000 1.0
C      1  0.5376330000000  0.4824630000000  0.3866440000000 1.0
C      1  0.5145940000000  0.4351500000000  0.5136560000000 1.0
C      1  0.5165120000000  0.5637430000000  0.4856380000000 1.0
C      1  0.4841400000000  0.4352420000000  0.5132740000000 1.0
C      1  0.4862380000000  0.5641730000000  0.4853960000000 1.0
C      1  0.5169340000000  0.5831900000000  0.4401390000000 1.0
C      1  0.5160120000000  0.4170270000000  0.5600030000000 1.0
C      1  0.4859090000000  0.5837100000000  0.4399650000000 1.0
C      1  0.4846300000000  0.4167680000000  0.5594350000000 1.0
C      1  0.3983590000000  0.5499590000000  0.5076810000000 1.0
C      1  0.3946190000000  0.4454100000000  0.4943120000000 1.0
C      1  0.6054830000000  0.5536230000000  0.5079020000000 1.0
C      1  0.6034200000000  0.4505690000000  0.4920570000000 1.0
C      1  0.5293440000000  0.5707870000000  0.5942990000000 1.0
C      1  0.5443760000000  0.4355860000000  0.4035040000000 1.0
C      1  0.4662160000000  0.5646610000000  0.5940870000000 1.0
C      1  0.4554740000000  0.4351220000000  0.4040220000000 1.0
C      1  0.5296000000000  0.4942460000000  0.4632140000000 1.0
C      1  0.5302750000000  0.5033810000000  0.5331130000000 1.0
C      1  0.4697300000000  0.4950070000000  0.4651920000000 1.0
C      1  0.4712360000000  0.5046680000000  0.5349740000000 1.0
C      1  0.4050730000000  0.5191030000000  0.5019550000000 1.0
C      1  0.3975840000000  0.4744130000000  0.4886830000000 1.0
C      1  0.5986760000000  0.5256200000000  0.5142180000000 1.0
C      1  0.5960830000000  0.4809290000000  0.4990590000000 1.0
C      1  0.4629880000000  0.4447340000000  0.5925780000000 1.0
C      1  0.4628490000000  0.5562320000000  0.4068220000000 1.0
C      1  0.5362680000000  0.4453020000000  0.5942880000000 1.0
C      1  0.5383160000000  0.5553720000000  0.4069770000000 1.0
C      1  0.5571080000000  0.5704270000000  0.5037010000000 1.0
C      1  0.5557930000000  0.4293070000000  0.4957630000000 1.0
C      1  0.4455100000000  0.5704900000000  0.5038650000000 1.0
C      1  0.4435280000000  0.4270270000000  0.4968580000000 1.0
C      1  0.5171080000000  0.5329340000000  0.5691020000000 1.0
C      1  0.5149850000000  0.4663480000000  0.4254270000000 1.0
C      1  0.4872840000000  0.5325450000000  0.5696720000000 1.0
C      1  0.4843850000000  0.4665080000000  0.4259720000000 1.0
C      1  0.5332930000000  0.3959460000000  0.4562660000000 1.0
C      1  0.5310590000000  0.5983870000000  0.5470310000000 1.0
C      1  0.4681050000000  0.3943700000000  0.4563970000000 1.0
C      1  0.4699690000000  0.6025910000000  0.5447350000000 1.0
C      1  0.4390460000000  0.6035490000000  0.4705980000000 1.0
C      1  0.4381300000000  0.3972920000000  0.5313960000000 1.0
C      1  0.5631220000000  0.6013410000000  0.4697010000000 1.0
C      1  0.5621890000000  0.3985540000000  0.5306500000000 1.0
C      1  0.4868460000000  0.5981790000000  0.5238180000000 1.0
C      1  0.4856630000000  0.3995670000000  0.4764360000000 1.0
C      1  0.5154420000000  0.5968570000000  0.5239700000000 1.0
C      1  0.5150330000000  0.4000560000000  0.4760790000000 1.0
C      1  0.4706240000000  0.4570420000000  0.3989880000000 1.0
C      1  0.4835720000000  0.5427090000000  0.5991420000000 1.0
C      1  0.5285470000000  0.4570220000000  0.3984860000000 1.0
C      1  0.5178510000000  0.5446690000000  0.5987960000000 1.0
C      1  0.5545770000000  0.5394490000000  0.4986370000000 1.0
C      1  0.5507360000000  0.4588770000000  0.4988850000000 1.0
C      1  0.4484290000000  0.5399920000000  0.4967650000000 1.0
C      1  0.4441580000000  0.4585340000000  0.4990000000000 1.0
C      1  0.4484600000000  0.4929700000000  0.4116910000000 1.0
C      1  0.4520940000000  0.5099950000000  0.5892960000000 1.0
C      1  0.5509290000000  0.4923760000000  0.4110950000000 1.0
C      1  0.5513180000000  0.5099030000000  0.5909320000000 1.0
C      1  0.4455220000000  0.4063200000000  0.4488270000000 1.0
C      1  0.4476220000000  0.5903880000000  0.5521990000000 1.0
C      1  0.5555310000000  0.4085050000000  0.4485290000000 1.0
C      1  0.5560840000000  0.5891290000000  0.5508080000000 1.0
C      1  0.4742020000000  0.4621400000000  0.5008430000000 1.0
C      1  0.4770080000000  0.5369460000000  0.4963170000000 1.0
C      1  0.5230320000000  0.4620440000000  0.5016690000000 1.0
C      1  0.5254500000000  0.5363180000000  0.4966690000000 1.0
C      1  0.5685410000000  0.4288810000000  0.4680110000000 1.0
C      1  0.5698960000000  0.5706190000000  0.5321240000000 1.0
C      1  0.4321480000000  0.4247220000000  0.4694480000000 1.0
C      1  0.4336230000000  0.5712490000000  0.5322100000000 1.0
C      1  0.4718900000000  0.5870060000000  0.4992050000000 1.0
C      1  0.4703750000000  0.4115330000000  0.5010790000000 1.0
C      1  0.5309190000000  0.5865410000000  0.4997850000000 1.0
C      1  0.5294870000000  0.4124070000000  0.5005340000000 1.0
C      1  0.5341620000000  0.5081670000000  0.3811350000000 1.0
C      1  0.5366000000000  0.4956490000000  0.6137310000000 1.0
C      1  0.4647140000000  0.5084010000000  0.3820630000000 1.0
C      1  0.4693940000000  0.4923550000000  0.6171660000000 1.0
C      1  0.4714330000000  0.5304020000000  0.3976720000000 1.0
C      1  0.4729380000000  0.4699680000000  0.6013250000000 1.0
C      1  0.5289730000000  0.5299800000000  0.3976680000000 1.0
C      1  0.5280000000000  0.4715650000000  0.6015660000000 1.0
C      1  0.5566600000000  0.5556440000000  0.4560100000000 1.0
C      1  0.5568350000000  0.4446260000000  0.5458360000000 1.0
C      1  0.4451300000000  0.5595380000000  0.4548210000000 1.0
C      1  0.4442660000000  0.4437610000000  0.5434690000000 1.0
C      1  0.4359170000000  0.4687730000000  0.5262760000000 1.0
C      1  0.4374230000000  0.5342840000000  0.4692320000000 1.0
C      1  0.5692160000000  0.4731670000000  0.5396570000000 1.0
C      1  0.5645500000000  0.5297820000000  0.4723690000000 1.0
C      1  0.4049570000000  0.5592530000000  0.4819410000000 1.0
C      1  0.4029420000000  0.4416210000000  0.5204110000000 1.0
C      1  0.5975780000000  0.5575140000000  0.4815620000000 1.0
C      1  0.5967330000000  0.4416520000000  0.5180370000000 1.0
C      1  0.4745450000000  0.5626460000000  0.4573980000000 1.0
C      1  0.4733410000000  0.4378280000000  0.5412360000000 1.0
C      1  0.5276130000000  0.5614870000000  0.4578420000000 1.0
C      1  0.5272270000000  0.4383250000000  0.5418930000000 1.0
C      1  0.4232310000000  0.5056310000000  0.4139030000000 1.0
C      1  0.4270030000000  0.4962450000000  0.5884950000000 1.0
C      1  0.5761910000000  0.5055060000000  0.4122920000000 1.0
C      1  0.5770460000000  0.4963620000000  0.5905100000000 1.0
C      1  0.4048620000000  0.4815120000000  0.5583320000000 1.0
C      1  0.4041940000000  0.5209630000000  0.4445570000000 1.0
C      1  0.5930390000000  0.4798650000000  0.5580820000000 1.0
C      1  0.5973320000000  0.5193110000000  0.4429250000000 1.0
C      1  0.4090140000000  0.5086930000000  0.5697630000000 1.0
C      1  0.4088910000000  0.4934270000000  0.4356260000000 1.0
C      1  0.5940030000000  0.5073850000000  0.5698120000000 1.0
C      1  0.5934960000000  0.4922440000000  0.4311240000000 1.0
C      1  0.4354060000000  0.5133580000000  0.5055910000000 1.0
C      1  0.4261680000000  0.4751130000000  0.4781810000000 1.0
C      1  0.5692860000000  0.5251260000000  0.5209030000000 1.0
C      1  0.5645640000000  0.4849500000000  0.4959460000000 1.0
C      1  0.4227160000000  0.4694150000000  0.5776420000000 1.0
C      1  0.4204770000000  0.5331010000000  0.4235370000000 1.0
C      1  0.5780170000000  0.4685980000000  0.5803300000000 1.0
C      1  0.5801450000000  0.5320360000000  0.4231490000000 1.0
C      1  0.5714910000000  0.4250440000000  0.5234160000000 1.0
C      1  0.5724560000000  0.5750910000000  0.4762790000000 1.0
C      1  0.4283870000000  0.4235990000000  0.5247440000000 1.0
C      1  0.4295720000000  0.5772750000000  0.4770180000000 1.0
C      1  0.4399980000000  0.5539250000000  0.4253250000000 1.0
C      1  0.4407740000000  0.4482590000000  0.5735320000000 1.0
C      1  0.5607180000000  0.5521740000000  0.4262170000000 1.0
C      1  0.5595150000000  0.4474620000000  0.5764430000000 1.0
C      1  0.5154120000000  0.5359280000000  0.4492160000000 1.0
C      1  0.5149830000000  0.4637410000000  0.5492240000000 1.0
C      1  0.4854130000000  0.5362270000000  0.4492640000000 1.0
C      1  0.4851760000000  0.4635430000000  0.5491570000000 1.0
C      1  0.6046140000000  0.5084650000000  0.4926170000000 1.0
C      1  0.3942980000000  0.4921760000000  0.5099270000000 1.0
END
