TITL C-70124-640-6 -0.103148908477797 125000 -565.859579461069 0 0 82 (C2v) n - 1
REM
REM in /rds/project/t2_vol4/rds-t2-cs072/BORA/CARBON/from-Arr/AIRSS/Generating-Clusters/GAP-ML-2020/Higher-Symm/SD-CG/HFTN-CG
REM
REM
REM
REM
REM
REM ./C.cell (b20cbc046b6831c77cfcea5457e17084)
REM AIRSS Version 0.9.1 bugfix July 2018 build 013d7b7c2542+ Fri, 06 Jul 2018 19:26:36 +0100
REM compiler GCC version 9.3.0
REM options -cpp -mtune=generic -march=x86-64 -g -O0
REM seed -1230754409 1536495688 -1109125282 -854820053 -1455893982 1040754530 2096759392 735729122 -1317090856 141418369 -815350781 1717988274 1218537530 -2146406827 424904261 1310596488 -421693674 -1622151087 1534810153 -274737599 -2048817141 -718740948 -592614500 -636265409 -1436259980 1189966555 -1248671710 384141295 -1721451109 -360123879 -734203784 -1823092510 146870169
REM
CELL 1.54180   50.00000   50.00000   50.00000   90.00000   90.00000   90.00000
LATT -1
SFAC C  
C      1  0.4449680000000  0.5571810000000  0.4861160000000 1.0
C      1  0.5552680000000  0.5567310000000  0.5147400000000 1.0
C      1  0.5551550000000  0.5569530000000  0.4856880000000 1.0
C      1  0.4450800000000  0.5569590000000  0.5151680000000 1.0
C      1  0.5157410000000  0.5386110000000  0.4639070000000 1.0
C      1  0.4844170000000  0.5381220000000  0.5366650000000 1.0
C      1  0.4841360000000  0.5386760000000  0.4640300000000 1.0
C      1  0.5160220000000  0.5380560000000  0.5365420000000 1.0
C      1  0.4843560000000  0.4631200000000  0.4856650000000 1.0
C      1  0.5154850000000  0.4628400000000  0.5137580000000 1.0
C      1  0.5153750000000  0.4630550000000  0.4855440000000 1.0
C      1  0.4844660000000  0.4629040000000  0.5138780000000 1.0
C      1  0.5480640000000  0.4725360000000  0.5576580000000 1.0
C      1  0.4518190000000  0.4736210000000  0.4419180000000 1.0
C      1  0.4522680000000  0.4727340000000  0.5580300000000 1.0
C      1  0.5476150000000  0.4734220000000  0.4415460000000 1.0
C      1  0.5514130000000  0.4369410000000  0.4844400000000 1.0
C      1  0.4483180000000  0.4369280000000  0.5145850000000 1.0
C      1  0.4482030000000  0.4371550000000  0.4848410000000 1.0
C      1  0.5515290000000  0.4367140000000  0.5141840000000 1.0
C      1  0.4289970000000  0.5325290000000  0.4859760000000 1.0
C      1  0.5711350000000  0.5320130000000  0.5145030000000 1.0
C      1  0.5710220000000  0.5322350000000  0.4854240000000 1.0
C      1  0.4291100000000  0.5323070000000  0.5150560000000 1.0
C      1  0.5140580000000  0.4915680000000  0.5235550000000 1.0
C      1  0.4859040000000  0.4919870000000  0.4763060000000 1.0
C      1  0.4860870000000  0.4916260000000  0.5236640000000 1.0
C      1  0.5138740000000  0.4919290000000  0.4761970000000 1.0
C      1  0.4718290000000  0.4418510000000  0.5294610000000 1.0
C      1  0.5279240000000  0.4421890000000  0.4696410000000 1.0
C      1  0.5281550000000  0.4417340000000  0.5292430000000 1.0
C      1  0.4715980000000  0.4423060000000  0.4698600000000 1.0
C      1  0.5003420000000  0.4961760000000  0.5903830000000 1.0
C      1  0.4995630000000  0.4694100000000  0.4044290000000 1.0
C      1  0.5003010000000  0.4679540000000  0.5950800000000 1.0
C      1  0.4996420000000  0.4975560000000  0.4095560000000 1.0
C      1  0.4407430000000  0.5110990000000  0.4700430000000 1.0
C      1  0.5592990000000  0.5103920000000  0.5301080000000 1.0
C      1  0.5590640000000  0.5108540000000  0.4695830000000 1.0
C      1  0.4409770000000  0.5106370000000  0.5305680000000 1.0
C      1  0.4729410000000  0.4529230000000  0.4428240000000 1.0
C      1  0.5268560000000  0.4519440000000  0.5564370000000 1.0
C      1  0.5264150000000  0.4528130000000  0.4426160000000 1.0
C      1  0.4733820000000  0.4520540000000  0.5566450000000 1.0
C      1  0.5466720000000  0.4972670000000  0.4262840000000 1.0
C      1  0.4533110000000  0.4963390000000  0.5736550000000 1.0
C      1  0.4527420000000  0.4974610000000  0.4266490000000 1.0
C      1  0.5472410000000  0.4961450000000  0.5732890000000 1.0
C      1  0.4763550000000  0.5111770000000  0.4177280000000 1.0
C      1  0.5236850000000  0.5098220000000  0.5824190000000 1.0
C      1  0.5230470000000  0.5110810000000  0.4175460000000 1.0
C      1  0.4769930000000  0.5099190000000  0.5826010000000 1.0
C      1  0.4855480000000  0.5823800000000  0.4861440000000 1.0
C      1  0.5147940000000  0.5820980000000  0.5150970000000 1.0
C      1  0.5146820000000  0.5823200000000  0.4860310000000 1.0
C      1  0.4856600000000  0.5821580000000  0.5152110000000 1.0
C      1  0.5539640000000  0.5196470000000  0.4425590000000 1.0
C      1  0.4461130000000  0.5189950000000  0.5577220000000 1.0
C      1  0.4456690000000  0.5198710000000  0.4429800000000 1.0
C      1  0.5544080000000  0.5187710000000  0.5573010000000 1.0
C      1  0.5630370000000  0.4807240000000  0.4652470000000 1.0
C      1  0.4368780000000  0.4804610000000  0.5344440000000 1.0
C      1  0.4366120000000  0.4809850000000  0.4657380000000 1.0
C      1  0.5633030000000  0.4801990000000  0.5339530000000 1.0
C      1  0.4701790000000  0.5625540000000  0.5277860000000 1.0
C      1  0.5300810000000  0.5628450000000  0.4731570000000 1.0
C      1  0.5302910000000  0.5624290000000  0.5275530000000 1.0
C      1  0.4699680000000  0.5629690000000  0.4733900000000 1.0
C      1  0.5686830000000  0.4606030000000  0.5141740000000 1.0
C      1  0.4311500000000  0.4611130000000  0.4852160000000 1.0
C      1  0.4312640000000  0.4608880000000  0.5147080000000 1.0
C      1  0.5685680000000  0.4608290000000  0.4846820000000 1.0
C      1  0.5291240000000  0.5308710000000  0.5627550000000 1.0
C      1  0.4710050000000  0.5319470000000  0.4377110000000 1.0
C      1  0.4714900000000  0.5309910000000  0.5629790000000 1.0
C      1  0.5286390000000  0.5318280000000  0.4374870000000 1.0
C      1  0.5277780000000  0.5154770000000  0.4841570000000 1.0
C      1  0.4722830000000  0.5153500000000  0.5160650000000 1.0
C      1  0.4721600000000  0.5155920000000  0.4843730000000 1.0
C      1  0.5279010000000  0.5152350000000  0.5158480000000 1.0
C      1  0.4996300000000  0.4555530000000  0.4290170000000 1.0
C      1  0.5001770000000  0.4544740000000  0.5702840000000 1.0
END
