TITL C-71069-5521-4 -0.149434379853016 125000 -430.399237666871 0 0 64 (C1) n - 1
REM
REM in /rds/project/t2_vol4/rds-t2-cs072/BORA/CARBON/from-Arr/AIRSS/Generating-Clusters/GAP-ML-2020/Higher-Symm/SD-CG/HFTN-CG
REM
REM
REM
REM
REM
REM ./C.cell (b20cbc046b6831c77cfcea5457e17084)
REM AIRSS Version 0.9.1 bugfix July 2018 build 013d7b7c2542+ Fri, 06 Jul 2018 19:26:36 +0100
REM compiler GCC version 9.3.0
REM options -cpp -mtune=generic -march=x86-64 -g -O0
REM seed 748759008 -34038326 -934478495 2023449656 12378633 -1125081724 2013619438 1164617008 298196112 -2143819987 -124746083 -116131132 -563633448 -722214576 -416788178 1891849488 -2132101909 288660046 -1482342767 -1867413353 219081035 -333884774 -627021311 -286444801 -180423309 -2037768240 2147253066 -2004193955 -101900829 -823046230 -1348347682 -422247335 20061908
REM
CELL 1.54180   50.00000   50.00000   50.00000   90.00000   90.00000   90.00000
LATT -1
SFAC C  
C      1  0.4461960000000  0.5221000000000  0.5374120000000 1.0
C      1  0.5321000000000  0.5507050000000  0.5044220000000 1.0
C      1  0.5230290000000  0.4902830000000  0.4857210000000 1.0
C      1  0.4272750000000  0.4624140000000  0.4921510000000 1.0
C      1  0.4363200000000  0.4879020000000  0.5039900000000 1.0
C      1  0.4975680000000  0.4715460000000  0.4340380000000 1.0
C      1  0.5217510000000  0.5756240000000  0.5149070000000 1.0
C      1  0.5618570000000  0.5132620000000  0.5146420000000 1.0
C      1  0.5047390000000  0.4486570000000  0.4517480000000 1.0
C      1  0.4695260000000  0.5362400000000  0.5029900000000 1.0
C      1  0.5300600000000  0.4559580000000  0.4556610000000 1.0
C      1  0.4314470000000  0.5141960000000  0.5140100000000 1.0
C      1  0.4402870000000  0.4594580000000  0.4654630000000 1.0
C      1  0.4650050000000  0.4851800000000  0.4941810000000 1.0
C      1  0.5050530000000  0.5191510000000  0.4381620000000 1.0
C      1  0.5505070000000  0.5307970000000  0.4518490000000 1.0
C      1  0.5069340000000  0.5154150000000  0.5685460000000 1.0
C      1  0.4966940000000  0.5263260000000  0.5415180000000 1.0
C      1  0.4868590000000  0.5554050000000  0.4858400000000 1.0
C      1  0.4571490000000  0.4848760000000  0.4632270000000 1.0
C      1  0.4813570000000  0.5070100000000  0.5036430000000 1.0
C      1  0.5693480000000  0.5347430000000  0.4743490000000 1.0
C      1  0.4761900000000  0.5144270000000  0.4388340000000 1.0
C      1  0.4594510000000  0.4381840000000  0.4719620000000 1.0
C      1  0.5590670000000  0.5021020000000  0.4532130000000 1.0
C      1  0.4702630000000  0.4580400000000  0.5105740000000 1.0
C      1  0.4745410000000  0.4851750000000  0.4397590000000 1.0
C      1  0.4943740000000  0.5751410000000  0.5116020000000 1.0
C      1  0.4474010000000  0.4427300000000  0.4980380000000 1.0
C      1  0.4405490000000  0.5328440000000  0.4946920000000 1.0
C      1  0.5381880000000  0.5076510000000  0.5322520000000 1.0
C      1  0.4905280000000  0.4993620000000  0.5314220000000 1.0
C      1  0.5301080000000  0.5242060000000  0.5810620000000 1.0
C      1  0.5353470000000  0.4849470000000  0.4582800000000 1.0
C      1  0.4355540000000  0.5324800000000  0.4681860000000 1.0
C      1  0.4950170000000  0.4459240000000  0.5474660000000 1.0
C      1  0.5164290000000  0.4847860000000  0.5311050000000 1.0
C      1  0.4885900000000  0.4395740000000  0.4735980000000 1.0
C      1  0.5088100000000  0.4325480000000  0.5266850000000 1.0
C      1  0.4520890000000  0.5147240000000  0.4566320000000 1.0
C      1  0.5490660000000  0.4547390000000  0.5123310000000 1.0
C      1  0.5193230000000  0.5278550000000  0.5208770000000 1.0
C      1  0.4965260000000  0.4883230000000  0.5713220000000 1.0
C      1  0.5160380000000  0.4927620000000  0.4357280000000 1.0
C      1  0.4717970000000  0.4593120000000  0.5402590000000 1.0
C      1  0.4749170000000  0.5659170000000  0.4618190000000 1.0
C      1  0.5215960000000  0.4694400000000  0.5055820000000 1.0
C      1  0.4986050000000  0.4463940000000  0.5021130000000 1.0
C      1  0.5788300000000  0.5066010000000  0.4735370000000 1.0
C      1  0.4706500000000  0.5417600000000  0.5326740000000 1.0
C      1  0.5134200000000  0.4674220000000  0.5575810000000 1.0
C      1  0.4702170000000  0.5648690000000  0.4373650000000 1.0
C      1  0.5373210000000  0.4512350000000  0.5577720000000 1.0
C      1  0.4745920000000  0.5699300000000  0.5299210000000 1.0
C      1  0.5089350000000  0.5134940000000  0.4939750000000 1.0
C      1  0.4504830000000  0.5032450000000  0.5558860000000 1.0
C      1  0.5580940000000  0.5374910000000  0.4999520000000 1.0
C      1  0.5227940000000  0.5370240000000  0.4527700000000 1.0
C      1  0.5380310000000  0.4385180000000  0.5332570000000 1.0
C      1  0.5775230000000  0.4938840000000  0.4997480000000 1.0
C      1  0.4722200000000  0.4858220000000  0.5540340000000 1.0
C      1  0.5129860000000  0.5417380000000  0.4802910000000 1.0
C      1  0.5408120000000  0.5123680000000  0.5607410000000 1.0
C      1  0.5716640000000  0.4677660000000  0.5066370000000 1.0
END
