TITL C-71079-5824-11 24.6824994814017 125000 -571.863760900403 0 0 83 (C1) n - 1
REM
REM in /rds/project/t2_vol4/rds-t2-cs072/BORA/CARBON/from-Arr/AIRSS/Generating-Clusters/GAP-ML-2020/Higher-Symm/SD-CG/HFTN-CG
REM
REM
REM
REM
REM
REM ./C.cell (b20cbc046b6831c77cfcea5457e17084)
REM AIRSS Version 0.9.1 bugfix July 2018 build 013d7b7c2542+ Fri, 06 Jul 2018 19:26:36 +0100
REM compiler GCC version 9.3.0
REM options -cpp -mtune=generic -march=x86-64 -g -O0
REM seed -1146037177 618883315 1877822171 -300914801 -1644536755 -1735302264 312341348 -1105337326 2093042149 1025939662 2071977846 462264111 -1572278471 -1346565130 933622047 1614108845 -476603825 -409673646 26457421 -1408020989 -1066423801 -1652168632 -864624703 -331219766 1060719025 -1306783340 2107985910 -356233994 152517073 548269669 1433299765 -1285068881 -1215385329
REM
CELL 1.54180   50.00000   50.00000   50.00000   90.00000   90.00000   90.00000
LATT -1
SFAC C  
C      1  0.4942450000000  0.4430490000000  0.5630470000000 1.0
C      1  0.4628520000000  0.4905850000000  0.5498900000000 1.0
C      1  0.5470860000000  0.4922870000000  0.5685040000000 1.0
C      1  0.5141730000000  0.4272150000000  0.5510980000000 1.0
C      1  0.5665630000000  0.4828290000000  0.4524510000000 1.0
C      1  0.4602090000000  0.5021720000000  0.4894120000000 1.0
C      1  0.4314670000000  0.4983640000000  0.4488930000000 1.0
C      1  0.4978440000000  0.5799780000000  0.5218580000000 1.0
C      1  0.5009860000000  0.4845950000000  0.4287480000000 1.0
C      1  0.5057170000000  0.4560340000000  0.4319070000000 1.0
C      1  0.4874580000000  0.5918580000000  0.4753600000000 1.0
C      1  0.5211040000000  0.5676690000000  0.5333230000000 1.0
C      1  0.5465700000000  0.4781340000000  0.4326260000000 1.0
C      1  0.5336800000000  0.4530140000000  0.4367460000000 1.0
C      1  0.4225670000000  0.5198920000000  0.4665780000000 1.0
C      1  0.5411230000000  0.5643350000000  0.5107940000000 1.0
C      1  0.4786630000000  0.5466280000000  0.4504010000000 1.0
C      1  0.5155590000000  0.5496300000000  0.4870990000000 1.0
C      1  0.5496000000000  0.5209590000000  0.5245650000000 1.0
C      1  0.5426140000000  0.4415950000000  0.4612870000000 1.0
C      1  0.4926780000000  0.5219370000000  0.4629860000000 1.0
C      1  0.4901220000000  0.4659240000000  0.4816450000000 1.0
C      1  0.5069660000000  0.4172000000000  0.5245420000000 1.0
C      1  0.5651620000000  0.5324650000000  0.4765430000000 1.0
C      1  0.4401000000000  0.4743910000000  0.4624370000000 1.0
C      1  0.4929570000000  0.4358900000000  0.4734830000000 1.0
C      1  0.5078270000000  0.5031400000000  0.5370650000000 1.0
C      1  0.5522310000000  0.4953660000000  0.5093410000000 1.0
C      1  0.4309810000000  0.5134050000000  0.4936430000000 1.0
C      1  0.4842740000000  0.5162130000000  0.4939680000000 1.0
C      1  0.5658290000000  0.4587200000000  0.4681530000000 1.0
C      1  0.5232690000000  0.4297910000000  0.4794700000000 1.0
C      1  0.5282510000000  0.5756430000000  0.4889430000000 1.0
C      1  0.4340760000000  0.5374440000000  0.5128470000000 1.0
C      1  0.5077800000000  0.4662470000000  0.5747900000000 1.0
C      1  0.4796330000000  0.4232090000000  0.5204390000000 1.0
C      1  0.5260340000000  0.4991000000000  0.4908320000000 1.0
C      1  0.5215340000000  0.5261800000000  0.4720380000000 1.0
C      1  0.4894830000000  0.4398570000000  0.4456550000000 1.0
C      1  0.4426720000000  0.5310780000000  0.5386610000000 1.0
C      1  0.4487480000000  0.5595730000000  0.5039910000000 1.0
C      1  0.4536780000000  0.5097170000000  0.4346680000000 1.0
C      1  0.5354170000000  0.4660630000000  0.5669810000000 1.0
C      1  0.5337480000000  0.5224540000000  0.4346960000000 1.0
C      1  0.5374630000000  0.4432570000000  0.5498850000000 1.0
C      1  0.5462860000000  0.4427640000000  0.5232640000000 1.0
C      1  0.4206620000000  0.4866560000000  0.5049630000000 1.0
C      1  0.4469840000000  0.5632620000000  0.4760770000000 1.0
C      1  0.5178170000000  0.5283680000000  0.5287480000000 1.0
C      1  0.5340430000000  0.5315300000000  0.5693950000000 1.0
C      1  0.5172660000000  0.4787700000000  0.4731280000000 1.0
C      1  0.5048250000000  0.5907880000000  0.4958780000000 1.0
C      1  0.5451770000000  0.5338950000000  0.4560500000000 1.0
C      1  0.4964330000000  0.5404380000000  0.5070870000000 1.0
C      1  0.5281540000000  0.4259650000000  0.5067040000000 1.0
C      1  0.5020550000000  0.4937970000000  0.5797270000000 1.0
C      1  0.5766440000000  0.5068000000000  0.4689180000000 1.0
C      1  0.5148410000000  0.5459520000000  0.5529560000000 1.0
C      1  0.4449440000000  0.4412210000000  0.4921090000000 1.0
C      1  0.5588730000000  0.5416600000000  0.5054510000000 1.0
C      1  0.5772210000000  0.4659690000000  0.4926660000000 1.0
C      1  0.4694690000000  0.4675560000000  0.5334400000000 1.0
C      1  0.4660790000000  0.5466620000000  0.5444170000000 1.0
C      1  0.4385060000000  0.5029240000000  0.5443260000000 1.0
C      1  0.4861850000000  0.5368020000000  0.5598120000000 1.0
C      1  0.5542310000000  0.5164190000000  0.5539240000000 1.0
C      1  0.4341640000000  0.5446690000000  0.4582350000000 1.0
C      1  0.5600360000000  0.4657160000000  0.5153440000000 1.0
C      1  0.5265820000000  0.5082110000000  0.5824990000000 1.0
C      1  0.4172010000000  0.4888800000000  0.5317300000000 1.0
C      1  0.4886860000000  0.4710790000000  0.5107050000000 1.0
C      1  0.4800060000000  0.4982640000000  0.4448120000000 1.0
C      1  0.4681580000000  0.4814590000000  0.4679580000000 1.0
C      1  0.4733140000000  0.4415610000000  0.5432820000000 1.0
C      1  0.4296130000000  0.4634820000000  0.4870660000000 1.0
C      1  0.5268480000000  0.4975360000000  0.4262150000000 1.0
C      1  0.4859670000000  0.5063590000000  0.5590410000000 1.0
C      1  0.5019680000000  0.4961560000000  0.5100870000000 1.0
C      1  0.4733460000000  0.5712890000000  0.4651940000000 1.0
C      1  0.4687370000000  0.4282480000000  0.4942460000000 1.0
C      1  0.5789020000000  0.4950420000000  0.4934610000000 1.0
C      1  0.4537510000000  0.5376680000000  0.4385150000000 1.0
C      1  0.4750300000000  0.5611030000000  0.5202830000000 1.0
END
