TITL C-71079-5824-5 124.24631437052 125000 -724.117060268568 0 0 106 (C1) n - 1
REM
REM in /rds/project/t2_vol4/rds-t2-cs072/BORA/CARBON/from-Arr/AIRSS/Generating-Clusters/GAP-ML-2020/Higher-Symm/SD-CG/HFTN-CG
REM
REM
REM
REM
REM
REM ./C.cell (b20cbc046b6831c77cfcea5457e17084)
REM AIRSS Version 0.9.1 bugfix July 2018 build 013d7b7c2542+ Fri, 06 Jul 2018 19:26:36 +0100
REM compiler GCC version 9.3.0
REM options -cpp -mtune=generic -march=x86-64 -g -O0
REM seed -1707472275 -2093512960 667162371 -1019072487 -1269685538 1003090739 -1013670426 -1374913836 1001572454 -907972876 1898301265 -2142442728 455158824 2039494068 -1300458869 145597968 1718519419 1092436028 -764156081 2045085931 643870295 -2085893699 -1813029091 -1431275358 -1726299877 -205043898 -1647679644 -194491783 -1138203049 -1030753893 -596620076 -834639119 -1148361909
REM
CELL 1.54180   50.00000   50.00000   50.00000   90.00000   90.00000   90.00000
LATT -1
SFAC C  
C      1  0.5586150000000  0.5596370000000  0.4971700000000 1.0
C      1  0.5623490000000  0.4605150000000  0.4391500000000 1.0
C      1  0.5625970000000  0.4720880000000  0.5645700000000 1.0
C      1  0.5068470000000  0.4981290000000  0.5982080000000 1.0
C      1  0.5068800000000  0.5838580000000  0.4544770000000 1.0
C      1  0.5074490000000  0.4127750000000  0.4494080000000 1.0
C      1  0.4575400000000  0.4782590000000  0.5531060000000 1.0
C      1  0.4552920000000  0.5567560000000  0.4968680000000 1.0
C      1  0.4663590000000  0.4691590000000  0.4594880000000 1.0
C      1  0.5649930000000  0.5122400000000  0.5162670000000 1.0
C      1  0.5622470000000  0.4979880000000  0.4722440000000 1.0
C      1  0.5631850000000  0.4867780000000  0.4998200000000 1.0
C      1  0.5135600000000  0.5836490000000  0.4831090000000 1.0
C      1  0.5140880000000  0.4357360000000  0.4329000000000 1.0
C      1  0.5121240000000  0.4717490000000  0.5864830000000 1.0
C      1  0.4936560000000  0.4645680000000  0.5032260000000 1.0
C      1  0.4877620000000  0.5171540000000  0.5263360000000 1.0
C      1  0.4762200000000  0.5199530000000  0.4689020000000 1.0
C      1  0.5655160000000  0.4391320000000  0.5233870000000 1.0
C      1  0.5634800000000  0.5535030000000  0.5425820000000 1.0
C      1  0.5662430000000  0.5113390000000  0.4285560000000 1.0
C      1  0.4703610000000  0.4302610000000  0.5389060000000 1.0
C      1  0.4710360000000  0.5696890000000  0.5438820000000 1.0
C      1  0.4767670000000  0.5026060000000  0.4218190000000 1.0
C      1  0.4740570000000  0.4113910000000  0.4860580000000 1.0
C      1  0.4747040000000  0.5326950000000  0.5852630000000 1.0
C      1  0.4739270000000  0.5589130000000  0.4291040000000 1.0
C      1  0.4884790000000  0.4804320000000  0.4392340000000 1.0
C      1  0.4734590000000  0.4519880000000  0.5565390000000 1.0
C      1  0.4738130000000  0.5711410000000  0.5159560000000 1.0
C      1  0.5638270000000  0.4506010000000  0.5476820000000 1.0
C      1  0.5612000000000  0.5710900000000  0.5218580000000 1.0
C      1  0.5649510000000  0.4838700000000  0.4241680000000 1.0
C      1  0.5756030000000  0.4728050000000  0.4622530000000 1.0
C      1  0.5821990000000  0.4925230000000  0.5618560000000 1.0
C      1  0.5734710000000  0.5339410000000  0.4963320000000 1.0
C      1  0.4309060000000  0.5497750000000  0.4531830000000 1.0
C      1  0.4318720000000  0.4357190000000  0.4774220000000 1.0
C      1  0.4312920000000  0.5163720000000  0.5701310000000 1.0
C      1  0.4252360000000  0.4619870000000  0.4767260000000 1.0
C      1  0.4185900000000  0.5001840000000  0.5527380000000 1.0
C      1  0.4162820000000  0.5484260000000  0.4766000000000 1.0
C      1  0.5836370000000  0.5125610000000  0.5437050000000 1.0
C      1  0.5809280000000  0.5212380000000  0.4716760000000 1.0
C      1  0.5851190000000  0.4651630000000  0.4889480000000 1.0
C      1  0.4287670000000  0.4755800000000  0.5019100000000 1.0
C      1  0.4306940000000  0.5167310000000  0.5327190000000 1.0
C      1  0.4295530000000  0.5234610000000  0.4697080000000 1.0
C      1  0.4796180000000  0.5776070000000  0.4493350000000 1.0
C      1  0.4805080000000  0.4155960000000  0.4587950000000 1.0
C      1  0.4802330000000  0.5066540000000  0.5940130000000 1.0
C      1  0.5384860000000  0.4689810000000  0.4983650000000 1.0
C      1  0.5362220000000  0.5168920000000  0.5282670000000 1.0
C      1  0.5324030000000  0.5099100000000  0.4606810000000 1.0
C      1  0.5227530000000  0.4904970000000  0.5408980000000 1.0
C      1  0.5195620000000  0.5317010000000  0.4819400000000 1.0
C      1  0.5248850000000  0.4649930000000  0.4709800000000 1.0
C      1  0.4709000000000  0.4403800000000  0.4469910000000 1.0
C      1  0.4673390000000  0.4846390000000  0.5819200000000 1.0
C      1  0.4674590000000  0.5766700000000  0.4749310000000 1.0
C      1  0.4911670000000  0.4512230000000  0.4300160000000 1.0
C      1  0.4871410000000  0.4623630000000  0.5790590000000 1.0
C      1  0.4882260000000  0.5833330000000  0.4948050000000 1.0
C      1  0.5346450000000  0.5616540000000  0.4792970000000 1.0
C      1  0.5373980000000  0.4443000000000  0.4489920000000 1.0
C      1  0.5342460000000  0.4826260000000  0.5691000000000 1.0
C      1  0.4472340000000  0.5545190000000  0.5498810000000 1.0
C      1  0.4512410000000  0.5150540000000  0.4289430000000 1.0
C      1  0.4470080000000  0.4349040000000  0.5216420000000 1.0
C      1  0.4954350000000  0.5364290000000  0.4674950000000 1.0
C      1  0.5048170000000  0.4473520000000  0.4828580000000 1.0
C      1  0.4983970000000  0.5053460000000  0.5488930000000 1.0
C      1  0.5283050000000  0.5676020000000  0.4477630000000 1.0
C      1  0.5300530000000  0.4171300000000  0.4651240000000 1.0
C      1  0.5284680000000  0.5097620000000  0.5853490000000 1.0
C      1  0.4287120000000  0.4735950000000  0.5490140000000 1.0
C      1  0.4263350000000  0.5567610000000  0.5025520000000 1.0
C      1  0.4378600000000  0.4772180000000  0.4556950000000 1.0
C      1  0.5391960000000  0.4417560000000  0.5100820000000 1.0
C      1  0.5393020000000  0.5380070000000  0.5491830000000 1.0
C      1  0.5398420000000  0.5233320000000  0.4345560000000 1.0
C      1  0.5247580000000  0.5473120000000  0.4286930000000 1.0
C      1  0.5223600000000  0.4235230000000  0.4935250000000 1.0
C      1  0.5242840000000  0.5351700000000  0.5732740000000 1.0
C      1  0.4341150000000  0.5032530000000  0.4482580000000 1.0
C      1  0.4297620000000  0.4586740000000  0.5250230000000 1.0
C      1  0.4287920000000  0.5451800000000  0.5291700000000 1.0
C      1  0.5127550000000  0.5234190000000  0.5098860000000 1.0
C      1  0.5135940000000  0.4876280000000  0.4572920000000 1.0
C      1  0.5175490000000  0.4711880000000  0.5185970000000 1.0
C      1  0.4918730000000  0.5687330000000  0.5617640000000 1.0
C      1  0.4920980000000  0.5204770000000  0.4089340000000 1.0
C      1  0.4911340000000  0.4137870000000  0.5298810000000 1.0
C      1  0.4972830000000  0.5456800000000  0.4174880000000 1.0
C      1  0.4975070000000  0.4092970000000  0.5042200000000 1.0
C      1  0.4980530000000  0.5482460000000  0.5781020000000 1.0
C      1  0.5874930000000  0.5229350000000  0.4451810000000 1.0
C      1  0.5880670000000  0.4441320000000  0.5051170000000 1.0
C      1  0.5870640000000  0.5400420000000  0.5475980000000 1.0
C      1  0.4609250000000  0.5027140000000  0.5295940000000 1.0
C      1  0.4548410000000  0.5226480000000  0.4870180000000 1.0
C      1  0.4735130000000  0.4768730000000  0.4888240000000 1.0
C      1  0.4501390000000  0.5436640000000  0.4330670000000 1.0
C      1  0.4491840000000  0.4235740000000  0.4949680000000 1.0
C      1  0.4491500000000  0.5367220000000  0.5725450000000 1.0
C      1  0.4537500000000  0.4952240000000  0.5020720000000 1.0
END
