TITL C-71085-5678-2 32.5552811960114 125000 -594.689000471693 0 0 88 (C1) n - 1
REM
REM in /rds/project/t2_vol4/rds-t2-cs072/BORA/CARBON/from-Arr/AIRSS/Generating-Clusters/GAP-ML-2020/Higher-Symm/SD-CG/HFTN-CG
REM
REM
REM
REM
REM
REM ./C.cell (b20cbc046b6831c77cfcea5457e17084)
REM AIRSS Version 0.9.1 bugfix July 2018 build 013d7b7c2542+ Fri, 06 Jul 2018 19:26:36 +0100
REM compiler GCC version 9.3.0
REM options -cpp -mtune=generic -march=x86-64 -g -O0
REM seed 26605308 1223947922 1753251164 55969622 -836750425 -389983455 476751286 1164117189 -843979159 2001228306 -1351804658 2027269360 1118251200 -1631425482 253929678 -749673879 839667032 -2035962889 1478106740 -677410781 1404382531 1698060770 1518868760 -445696273 -1958976519 528887676 446306454 1535672852 -915716007 588376860 -2038982713 -1012344177 1852429194
REM
CELL 1.54180   50.00000   50.00000   50.00000   90.00000   90.00000   90.00000
LATT -1
SFAC C  
C      1  0.4244780000000  0.5164110000000  0.5135290000000 1.0
C      1  0.5220530000000  0.5196210000000  0.4279860000000 1.0
C      1  0.5439940000000  0.5176490000000  0.5624830000000 1.0
C      1  0.4238990000000  0.5166860000000  0.4857080000000 1.0
C      1  0.5192270000000  0.5193030000000  0.5763020000000 1.0
C      1  0.5468360000000  0.5182210000000  0.4419080000000 1.0
C      1  0.4466670000000  0.5278120000000  0.4688570000000 1.0
C      1  0.5564200000000  0.5268620000000  0.4688980000000 1.0
C      1  0.4951250000000  0.5347950000000  0.5729220000000 1.0
C      1  0.4468840000000  0.5274710000000  0.5307820000000 1.0
C      1  0.5494190000000  0.5298440000000  0.5374880000000 1.0
C      1  0.4979080000000  0.5351370000000  0.4281700000000 1.0
C      1  0.4944690000000  0.4592070000000  0.5428930000000 1.0
C      1  0.4651110000000  0.4539160000000  0.4714310000000 1.0
C      1  0.5476370000000  0.4565150000000  0.4845130000000 1.0
C      1  0.4928460000000  0.4563600000000  0.4567470000000 1.0
C      1  0.4662170000000  0.4556870000000  0.5287550000000 1.0
C      1  0.5485600000000  0.4566850000000  0.5168230000000 1.0
C      1  0.4925750000000  0.5590830000000  0.4440650000000 1.0
C      1  0.5490370000000  0.5557920000000  0.5258030000000 1.0
C      1  0.4554310000000  0.5562310000000  0.5324790000000 1.0
C      1  0.4902180000000  0.5590330000000  0.5572910000000 1.0
C      1  0.5524940000000  0.5541350000000  0.4802030000000 1.0
C      1  0.4568350000000  0.5561800000000  0.4677210000000 1.0
C      1  0.4214800000000  0.4585440000000  0.4846230000000 1.0
C      1  0.5465180000000  0.4607630000000  0.4376530000000 1.0
C      1  0.5241620000000  0.4661920000000  0.5758890000000 1.0
C      1  0.4223640000000  0.4586330000000  0.5146830000000 1.0
C      1  0.5496190000000  0.4637950000000  0.5636840000000 1.0
C      1  0.5220390000000  0.4635970000000  0.4230740000000 1.0
C      1  0.4995430000000  0.5686030000000  0.5298510000000 1.0
C      1  0.4767760000000  0.5680290000000  0.4862190000000 1.0
C      1  0.5257110000000  0.5667990000000  0.4866850000000 1.0
C      1  0.5012880000000  0.5686450000000  0.4715500000000 1.0
C      1  0.4757760000000  0.5681250000000  0.5144040000000 1.0
C      1  0.5243000000000  0.5680140000000  0.5156270000000 1.0
C      1  0.4259260000000  0.4872250000000  0.4834240000000 1.0
C      1  0.5471100000000  0.4890400000000  0.4460990000000 1.0
C      1  0.5144470000000  0.4922710000000  0.5700970000000 1.0
C      1  0.4271240000000  0.4873670000000  0.5157600000000 1.0
C      1  0.5541320000000  0.4905070000000  0.5558510000000 1.0
C      1  0.5183110000000  0.4908440000000  0.4331800000000 1.0
C      1  0.4787100000000  0.4324590000000  0.4873120000000 1.0
C      1  0.5272760000000  0.4350230000000  0.4872130000000 1.0
C      1  0.5038430000000  0.4354330000000  0.5278370000000 1.0
C      1  0.4793180000000  0.4330290000000  0.5145440000000 1.0
C      1  0.5278170000000  0.4353700000000  0.5146370000000 1.0
C      1  0.5031820000000  0.4342970000000  0.4739310000000 1.0
C      1  0.4698330000000  0.5206190000000  0.5760640000000 1.0
C      1  0.4485180000000  0.5186840000000  0.4409150000000 1.0
C      1  0.5817700000000  0.5115000000000  0.4801910000000 1.0
C      1  0.4724710000000  0.5206570000000  0.4245590000000 1.0
C      1  0.4469470000000  0.5179860000000  0.5585380000000 1.0
C      1  0.5808990000000  0.5084100000000  0.5090400000000 1.0
C      1  0.4638490000000  0.4939480000000  0.5856050000000 1.0
C      1  0.4416570000000  0.4926120000000  0.4325400000000 1.0
C      1  0.5925090000000  0.4843530000000  0.4797970000000 1.0
C      1  0.4666970000000  0.4938750000000  0.4157310000000 1.0
C      1  0.4396820000000  0.4921120000000  0.5679680000000 1.0
C      1  0.5938230000000  0.4825080000000  0.5099060000000 1.0
C      1  0.4438090000000  0.4642390000000  0.5630010000000 1.0
C      1  0.4697990000000  0.4655620000000  0.4195700000000 1.0
C      1  0.5899480000000  0.4631740000000  0.5286740000000 1.0
C      1  0.4439250000000  0.4645160000000  0.4367280000000 1.0
C      1  0.4696060000000  0.4660040000000  0.5811360000000 1.0
C      1  0.5889840000000  0.4623860000000  0.4635470000000 1.0
C      1  0.5680230000000  0.4515400000000  0.5393250000000 1.0
C      1  0.4389760000000  0.4505810000000  0.5383780000000 1.0
C      1  0.4948550000000  0.4538600000000  0.4271980000000 1.0
C      1  0.5649420000000  0.4506550000000  0.4589250000000 1.0
C      1  0.4379250000000  0.4499110000000  0.4610010000000 1.0
C      1  0.4959420000000  0.4571830000000  0.5721170000000 1.0
C      1  0.4566060000000  0.4810950000000  0.4848530000000 1.0
C      1  0.5359420000000  0.4829560000000  0.4746900000000 1.0
C      1  0.5107890000000  0.4865940000000  0.5376740000000 1.0
C      1  0.4575210000000  0.4816040000000  0.5145910000000 1.0
C      1  0.5403220000000  0.4841720000000  0.5295550000000 1.0
C      1  0.5075780000000  0.4831860000000  0.4623400000000 1.0
C      1  0.5522440000000  0.5087020000000  0.5164770000000 1.0
C      1  0.4697390000000  0.5088690000000  0.5158080000000 1.0
C      1  0.4949950000000  0.5055280000000  0.4760470000000 1.0
C      1  0.5380540000000  0.5093780000000  0.4901430000000 1.0
C      1  0.4679590000000  0.5085360000000  0.4836990000000 1.0
C      1  0.4984380000000  0.5069220000000  0.5206140000000 1.0
C      1  0.4624140000000  0.5660470000000  0.5581240000000 1.0
C      1  0.5663750000000  0.5548760000000  0.5036820000000 1.0
C      1  0.4649120000000  0.5659190000000  0.4425370000000 1.0
C      1  0.5106450000000  0.5150710000000  0.4968080000000 1.0
END
