TITL C-71057-6709-6 -49.3376375917646 125000 -111.676796275942 0 0 18 (C2v) n - 1
REM
REM in /rds/project/t2_vol4/rds-t2-cs072/BORA/CARBON/from-Arr/AIRSS/Generating-Clusters/GAP-ML-2020/Higher-Symm/SD-CG/HFTN-CG
REM
REM
REM
REM
REM
REM ./C.cell (b20cbc046b6831c77cfcea5457e17084)
REM AIRSS Version 0.9.1 bugfix July 2018 build 013d7b7c2542+ Fri, 06 Jul 2018 19:26:36 +0100
REM compiler GCC version 9.3.0
REM options -cpp -mtune=generic -march=x86-64 -g -O0
REM seed 1353750578 600803766 -2017270229 1889041838 -872690447 -1171271622 -1409579051 -2120387844 -26794125 -1575801213 1013721734 1690553979 506662973 -1728924393 -694497082 -1072884722 2096633403 -2038883042 -929481857 1393546276 665638946 1074515395 -359914967 -459317223 1637274048 848567328 1665363334 1370913938 1576901213 1910695902 -348733278 -1456734319 271928901
REM
CELL 1.54180   50.00000   50.00000   50.00000   90.00000   90.00000   90.00000
LATT -1
SFAC C  
C      1  0.5363850000000  0.5023050000000  0.4981300000000 1.0
C      1  0.5359620000000  0.5023030000000  0.4699120000000 1.0
C      1  0.5097350000000  0.5022900000000  0.4615390000000 1.0
C      1  0.4850410000000  0.5022780000000  0.4517160000000 1.0
C      1  0.4666670000000  0.5022700000000  0.4720270000000 1.0
C      1  0.4464510000000  0.5022620000000  0.4881180000000 1.0
C      1  0.4476140000000  0.5022640000000  0.5156780000000 1.0
C      1  0.4691130000000  0.5022750000000  0.5300110000000 1.0
C      1  0.4891320000000  0.5022850000000  0.5487030000000 1.0
C      1  0.5129110000000  0.5022960000000  0.5368350000000 1.0
C      1  0.5383390000000  0.5023070000000  0.5262840000000 1.0
C      1  0.5172790000000  0.4265580000000  0.4989420000000 1.0
C      1  0.4963160000000  0.4736880000000  0.4998220000000 1.0
C      1  0.4962890000000  0.5308830000000  0.4998190000000 1.0
C      1  0.5052560000000  0.5022900000000  0.4994430000000 1.0
C      1  0.5078090000000  0.4505820000000  0.4993390000000 1.0
C      1  0.5172070000000  0.5780330000000  0.4989330000000 1.0
C      1  0.5077600000000  0.5540010000000  0.4993330000000 1.0
END
