TITL C-71059-6524-7 -0.262287179592654 125000 -967.474769654924 0 0 133 (C3) n - 1
REM
REM in /rds/project/t2_vol4/rds-t2-cs072/BORA/CARBON/from-Arr/AIRSS/Generating-Clusters/GAP-ML-2020/Higher-Symm/SD-CG/HFTN-CG
REM
REM
REM
REM
REM
REM ./C.cell (b20cbc046b6831c77cfcea5457e17084)
REM AIRSS Version 0.9.1 bugfix July 2018 build 013d7b7c2542+ Fri, 06 Jul 2018 19:26:36 +0100
REM compiler GCC version 9.3.0
REM options -cpp -mtune=generic -march=x86-64 -g -O0
REM seed -285437109 1289620857 -532512203 -1119753503 145857650 -1782292831 1942541982 884234363 -41519420 -754973180 1423371736 -1725876570 1307016799 -922558140 -739063336 1476500538 -1790732495 2016850223 -718749571 1635203179 1635320175 -1293091235 1707883378 1942779941 -2042418506 -1051376834 -1319783432 -704413576 273062833 1785221654 615009763 925941628 -1300373923
REM
CELL 1.54180   50.00000   50.00000   50.00000   90.00000   90.00000   90.00000
LATT -1
SFAC C  
C      1  0.5807300000000  0.5466590000000  0.5180730000000 1.0
C      1  0.5474100000000  0.5176210000000  0.5801660000000 1.0
C      1  0.5168100000000  0.5817010000000  0.5466870000000 1.0
C      1  0.4193980000000  0.5478190000000  0.4823520000000 1.0
C      1  0.4186530000000  0.4526970000000  0.5166910000000 1.0
C      1  0.5813000000000  0.4533060000000  0.4827430000000 1.0
C      1  0.4528870000000  0.5172330000000  0.4182700000000 1.0
C      1  0.4522960000000  0.4832630000000  0.5809120000000 1.0
C      1  0.5462470000000  0.4819220000000  0.4188290000000 1.0
C      1  0.4814930000000  0.5811480000000  0.4533290000000 1.0
C      1  0.4828720000000  0.4190530000000  0.5472590000000 1.0
C      1  0.5172240000000  0.4198190000000  0.4521420000000 1.0
C      1  0.5360210000000  0.4910960000000  0.5856030000000 1.0
C      1  0.4899100000000  0.5869280000000  0.5356020000000 1.0
C      1  0.5870870000000  0.5367840000000  0.4905600000000 1.0
C      1  0.4639750000000  0.4903350000000  0.4130390000000 1.0
C      1  0.4632230000000  0.5098470000000  0.5857310000000 1.0
C      1  0.5363670000000  0.5094330000000  0.4124770000000 1.0
C      1  0.5090030000000  0.5875040000000  0.4632090000000 1.0
C      1  0.5094570000000  0.4142400000000  0.5363300000000 1.0
C      1  0.4907010000000  0.4143740000000  0.4635330000000 1.0
C      1  0.4139580000000  0.5364230000000  0.5088740000000 1.0
C      1  0.4138370000000  0.4636290000000  0.4901090000000 1.0
C      1  0.5865260000000  0.4643890000000  0.5096440000000 1.0
C      1  0.4424920000000  0.5704190000000  0.5307860000000 1.0
C      1  0.5708460000000  0.5323220000000  0.4419280000000 1.0
C      1  0.5310380000000  0.4439410000000  0.5700810000000 1.0
C      1  0.5576360000000  0.5712660000000  0.4676750000000 1.0
C      1  0.5571090000000  0.4300550000000  0.5318620000000 1.0
C      1  0.4435430000000  0.4298870000000  0.4685210000000 1.0
C      1  0.4294750000000  0.5314320000000  0.5560310000000 1.0
C      1  0.4296480000000  0.4681060000000  0.4424560000000 1.0
C      1  0.5700190000000  0.4691950000000  0.5570630000000 1.0
C      1  0.4687920000000  0.4429140000000  0.4295400000000 1.0
C      1  0.4676900000000  0.5575020000000  0.5699270000000 1.0
C      1  0.5318960000000  0.5580630000000  0.4287240000000 1.0
C      1  0.4776990000000  0.5237930000000  0.5151830000000 1.0
C      1  0.5411190000000  0.5045690000000  0.4843380000000 1.0
C      1  0.5023370000000  0.4900580000000  0.5394380000000 1.0
C      1  0.5152250000000  0.5415310000000  0.4954160000000 1.0
C      1  0.5168780000000  0.4621100000000  0.5051840000000 1.0
C      1  0.4896560000000  0.4605350000000  0.4972230000000 1.0
C      1  0.4601250000000  0.5027420000000  0.5099120000000 1.0
C      1  0.4617000000000  0.4947850000000  0.4826890000000 1.0
C      1  0.5233880000000  0.4847930000000  0.5218620000000 1.0
C      1  0.4843860000000  0.4781130000000  0.4761750000000 1.0
C      1  0.4943740000000  0.5172800000000  0.5378670000000 1.0
C      1  0.5041530000000  0.5156430000000  0.4584470000000 1.0
C      1  0.4033930000000  0.5093090000000  0.5102450000000 1.0
C      1  0.5092570000000  0.5113090000000  0.4021660000000 1.0
C      1  0.5111080000000  0.4038870000000  0.5091310000000 1.0
C      1  0.5974000000000  0.5096760000000  0.4886810000000 1.0
C      1  0.5969270000000  0.4913050000000  0.5107330000000 1.0
C      1  0.4034780000000  0.4908260000000  0.4884620000000 1.0
C      1  0.4904200000000  0.5114980000000  0.5960890000000 1.0
C      1  0.4908910000000  0.4892530000000  0.4026370000000 1.0
C      1  0.5089080000000  0.4897180000000  0.5961700000000 1.0
C      1  0.4893270000000  0.4038040000000  0.4906450000000 1.0
C      1  0.4888240000000  0.5973340000000  0.5086870000000 1.0
C      1  0.5108790000000  0.5978120000000  0.4903200000000 1.0
C      1  0.4358780000000  0.4817120000000  0.5554110000000 1.0
C      1  0.4811710000000  0.5557650000000  0.4387890000000 1.0
C      1  0.5575540000000  0.4363520000000  0.4826180000000 1.0
C      1  0.5607840000000  0.4815960000000  0.4442140000000 1.0
C      1  0.5706140000000  0.5188810000000  0.5637570000000 1.0
C      1  0.4359350000000  0.5173520000000  0.4420170000000 1.0
C      1  0.5169350000000  0.5579520000000  0.5636370000000 1.0
C      1  0.5184790000000  0.4362310000000  0.4289410000000 1.0
C      1  0.4813170000000  0.4445520000000  0.5636800000000 1.0
C      1  0.4441560000000  0.4362810000000  0.5182430000000 1.0
C      1  0.4358050000000  0.5710240000000  0.4810990000000 1.0
C      1  0.5553440000000  0.5611940000000  0.5183980000000 1.0
C      1  0.5355250000000  0.5961360000000  0.5036840000000 1.0
C      1  0.5968900000000  0.5038130000000  0.5353400000000 1.0
C      1  0.5038740000000  0.5359160000000  0.5961450000000 1.0
C      1  0.4642190000000  0.5972980000000  0.4961760000000 1.0
C      1  0.4647930000000  0.4026830000000  0.5039400000000 1.0
C      1  0.5355250000000  0.4038370000000  0.4956760000000 1.0
C      1  0.4034240000000  0.5042850000000  0.4640470000000 1.0
C      1  0.4022760000000  0.4960100000000  0.5347780000000 1.0
C      1  0.5957250000000  0.4963140000000  0.4640320000000 1.0
C      1  0.4958910000000  0.5359540000000  0.4038450000000 1.0
C      1  0.4956140000000  0.4651830000000  0.5972840000000 1.0
C      1  0.5034040000000  0.4646480000000  0.4026690000000 1.0
C      1  0.5839360000000  0.4701740000000  0.4610610000000 1.0
C      1  0.4688200000000  0.4614690000000  0.5867260000000 1.0
C      1  0.4591080000000  0.5860120000000  0.4699110000000 1.0
C      1  0.4128360000000  0.4692170000000  0.5384880000000 1.0
C      1  0.4150960000000  0.5304500000000  0.4605790000000 1.0
C      1  0.5855990000000  0.5300750000000  0.5404550000000 1.0
C      1  0.5296680000000  0.4595370000000  0.4139590000000 1.0
C      1  0.5300380000000  0.5393900000000  0.5844720000000 1.0
C      1  0.4697510000000  0.5389190000000  0.4156360000000 1.0
C      1  0.5384940000000  0.5843430000000  0.5298220000000 1.0
C      1  0.5389950000000  0.4155150000000  0.4695120000000 1.0
C      1  0.4610790000000  0.4132370000000  0.5307350000000 1.0
C      1  0.4529600000000  0.4666230000000  0.4257340000000 1.0
C      1  0.4668830000000  0.4260320000000  0.4523350000000 1.0
C      1  0.4263100000000  0.4525200000000  0.4664140000000 1.0
C      1  0.5472220000000  0.4672810000000  0.5739420000000 1.0
C      1  0.5479910000000  0.5337960000000  0.4244070000000 1.0
C      1  0.4521090000000  0.5335420000000  0.5732620000000 1.0
C      1  0.5331500000000  0.4267130000000  0.5474440000000 1.0
C      1  0.5333680000000  0.5755810000000  0.4515820000000 1.0
C      1  0.4662010000000  0.5742270000000  0.5466170000000 1.0
C      1  0.5738290000000  0.4533680000000  0.5333520000000 1.0
C      1  0.5751590000000  0.5484130000000  0.4661980000000 1.0
C      1  0.4256150000000  0.5476210000000  0.5326930000000 1.0
C      1  0.5152520000000  0.5358680000000  0.5425570000000 1.0
C      1  0.5321640000000  0.5359240000000  0.5196380000000 1.0
C      1  0.5396530000000  0.5056980000000  0.5123160000000 1.0
C      1  0.4799290000000  0.5325790000000  0.4640550000000 1.0
C      1  0.4822640000000  0.4684010000000  0.5424580000000 1.0
C      1  0.5052880000000  0.4876650000000  0.4599100000000 1.0
C      1  0.4872470000000  0.5400630000000  0.4942830000000 1.0
C      1  0.4680010000000  0.4575080000000  0.5172970000000 1.0
C      1  0.5354660000000  0.4574270000000  0.4843040000000 1.0
C      1  0.4570110000000  0.5156660000000  0.4641040000000 1.0
C      1  0.4571030000000  0.4826650000000  0.5315640000000 1.0
C      1  0.5355150000000  0.4803480000000  0.4673960000000 1.0
C      1  0.5789350000000  0.5064700000000  0.4438030000000 1.0
C      1  0.5059600000000  0.4450020000000  0.5806990000000 1.0
C      1  0.4416440000000  0.5832960000000  0.5065290000000 1.0
C      1  0.4188580000000  0.5063530000000  0.5549630000000 1.0
C      1  0.4182920000000  0.4929990000000  0.4427490000000 1.0
C      1  0.5828910000000  0.4934540000000  0.5579150000000 1.0
C      1  0.4930510000000  0.4420700000000  0.4166670000000 1.0
C      1  0.4925830000000  0.5572130000000  0.5812800000000 1.0
C      1  0.5060440000000  0.5561840000000  0.4206370000000 1.0
C      1  0.5557580000000  0.5793500000000  0.4935280000000 1.0
C      1  0.5568200000000  0.4187050000000  0.5069670000000 1.0
C      1  0.4446080000000  0.4192650000000  0.4935980000000 1.0
C      1  0.5253220000000  0.5257390000000  0.4742440000000 1.0
END
