TITL C-71072-7662-4 0.13534240698694 125000 -339.666876772605 0 0 50 (C1) n - 1
REM
REM in /rds/project/t2_vol4/rds-t2-cs072/BORA/CARBON/from-Arr/AIRSS/Generating-Clusters/GAP-ML-2020/Higher-Symm/SD-CG/HFTN-CG
REM
REM
REM
REM
REM
REM ./C.cell (b20cbc046b6831c77cfcea5457e17084)
REM AIRSS Version 0.9.1 bugfix July 2018 build 013d7b7c2542+ Fri, 06 Jul 2018 19:26:36 +0100
REM compiler GCC version 9.3.0
REM options -cpp -mtune=generic -march=x86-64 -g -O0
REM seed -1033302182 936634999 1885475198 687804781 -57318407 369166665 -188582054 -1243706808 -1842305561 -2071288709 -1757184156 -1861581858 1856504324 281957474 -851346068 2062949160 -1573092200 1734927422 442767974 2117726596 -666261200 -223391102 -2072254506 -1547052273 283849211 -245774756 -1727448357 289613649 256221086 -871982229 -946048143 -1409903585 1186512312
REM
CELL 1.54180   50.00000   50.00000   50.00000   90.00000   90.00000   90.00000
LATT -1
SFAC C  
C      1  0.4804500000000  0.5490120000000  0.5577050000000 1.0
C      1  0.4523520000000  0.5142500000000  0.5554960000000 1.0
C      1  0.4592560000000  0.4691870000000  0.5555420000000 1.0
C      1  0.4967420000000  0.4456900000000  0.5576020000000 1.0
C      1  0.5363800000000  0.4655530000000  0.5546490000000 1.0
C      1  0.5494540000000  0.5091370000000  0.5527900000000 1.0
C      1  0.5246990000000  0.5461600000000  0.5563960000000 1.0
C      1  0.4856690000000  0.5344210000000  0.5269210000000 1.0
C      1  0.4671840000000  0.5104220000000  0.5293090000000 1.0
C      1  0.4715990000000  0.4771470000000  0.5292330000000 1.0
C      1  0.4971720000000  0.4616670000000  0.5263960000000 1.0
C      1  0.5243550000000  0.4744870000000  0.5285120000000 1.0
C      1  0.5322660000000  0.5067420000000  0.5274690000000 1.0
C      1  0.5165380000000  0.5328470000000  0.5268350000000 1.0
C      1  0.4543970000000  0.4684550000000  0.4789270000000 1.0
C      1  0.4958750000000  0.4411130000000  0.4813880000000 1.0
C      1  0.5407650000000  0.4615690000000  0.4782530000000 1.0
C      1  0.5507300000000  0.5066670000000  0.4754010000000 1.0
C      1  0.5265300000000  0.5490320000000  0.4799900000000 1.0
C      1  0.4773420000000  0.5530880000000  0.4811340000000 1.0
C      1  0.4471120000000  0.5140090000000  0.4789170000000 1.0
C      1  0.5492410000000  0.4824400000000  0.4602180000000 1.0
C      1  0.5413910000000  0.5303260000000  0.4633400000000 1.0
C      1  0.5020730000000  0.5552760000000  0.4665600000000 1.0
C      1  0.4605050000000  0.5352130000000  0.4661130000000 1.0
C      1  0.4496570000000  0.4910270000000  0.4622060000000 1.0
C      1  0.4741800000000  0.4526760000000  0.4665390000000 1.0
C      1  0.5198010000000  0.4471460000000  0.4664280000000 1.0
C      1  0.4529490000000  0.4772080000000  0.5058270000000 1.0
C      1  0.4958050000000  0.4395810000000  0.5080310000000 1.0
C      1  0.5422410000000  0.4719510000000  0.5045380000000 1.0
C      1  0.5484120000000  0.4994730000000  0.5030720000000 1.0
C      1  0.5278020000000  0.5499800000000  0.5066260000000 1.0
C      1  0.4770760000000  0.5538320000000  0.5078040000000 1.0
C      1  0.4486640000000  0.5054070000000  0.5059230000000 1.0
C      1  0.5036070000000  0.5596650000000  0.5674860000000 1.0
C      1  0.4572440000000  0.5391960000000  0.5673210000000 1.0
C      1  0.4436380000000  0.4898800000000  0.5658780000000 1.0
C      1  0.4716760000000  0.4469990000000  0.5674000000000 1.0
C      1  0.5219580000000  0.4449670000000  0.5671190000000 1.0
C      1  0.5552050000000  0.4841840000000  0.5636270000000 1.0
C      1  0.5477510000000  0.5344410000000  0.5645410000000 1.0
C      1  0.4710010000000  0.4944100000000  0.4431000000000 1.0
C      1  0.4851570000000  0.4682990000000  0.4438040000000 1.0
C      1  0.5125490000000  0.4615360000000  0.4420140000000 1.0
C      1  0.5326090000000  0.4816750000000  0.4369140000000 1.0
C      1  0.5261330000000  0.5270040000000  0.4385310000000 1.0
C      1  0.5006320000000  0.5387840000000  0.4431430000000 1.0
C      1  0.4764970000000  0.5237350000000  0.4437860000000 1.0
C      1  0.5274840000000  0.5045670000000  0.4234040000000 1.0
END
