TITL C-71059-6524-2 -8.8850995025606 125000 -250.291860439577 0 0 38 (C1) n - 1
REM
REM in /rds/project/t2_vol4/rds-t2-cs072/BORA/CARBON/from-Arr/AIRSS/Generating-Clusters/GAP-ML-2020/Higher-Symm/SD-CG/HFTN-CG
REM
REM
REM
REM
REM
REM ./C.cell (b20cbc046b6831c77cfcea5457e17084)
REM AIRSS Version 0.9.1 bugfix July 2018 build 013d7b7c2542+ Fri, 06 Jul 2018 19:26:36 +0100
REM compiler GCC version 9.3.0
REM options -cpp -mtune=generic -march=x86-64 -g -O0
REM seed 994547190 724294994 -625219030 -1601371535 1563271548 218049798 1263850556 2028125468 -374721474 -1780555897 1421267501 -871813358 1796221640 -1437005201 -1897395716 -1211922714 -1069873915 1917706786 -427765886 1552266580 -224968783 2104955721 1104764658 -382818946 -561516264 -1206962116 798913314 -2124630410 -268684044 644450581 -1335213490 1133031024 -1721757702
REM
CELL 1.54180   50.00000   50.00000   50.00000   90.00000   90.00000   90.00000
LATT -1
SFAC C  
C      1  0.4897400000000  0.4364720000000  0.5203950000000 1.0
C      1  0.4744520000000  0.4355240000000  0.4965280000000 1.0
C      1  0.4926460000000  0.4348560000000  0.4744320000000 1.0
C      1  0.5200500000000  0.4348720000000  0.4852560000000 1.0
C      1  0.5177800000000  0.4334220000000  0.5140240000000 1.0
C      1  0.5083140000000  0.5681320000000  0.5239650000000 1.0
C      1  0.5243610000000  0.5679820000000  0.4989150000000 1.0
C      1  0.5067360000000  0.5655410000000  0.4771270000000 1.0
C      1  0.4793030000000  0.5631540000000  0.4886410000000 1.0
C      1  0.4816920000000  0.5641900000000  0.5172010000000 1.0
C      1  0.4826070000000  0.4803820000000  0.5431280000000 1.0
C      1  0.4515930000000  0.4708630000000  0.4939030000000 1.0
C      1  0.4852770000000  0.4799810000000  0.4605340000000 1.0
C      1  0.5276940000000  0.4811600000000  0.4750260000000 1.0
C      1  0.5304410000000  0.4752880000000  0.5227390000000 1.0
C      1  0.5149810000000  0.5186470000000  0.5385910000000 1.0
C      1  0.5373750000000  0.5187760000000  0.5024220000000 1.0
C      1  0.5147600000000  0.5212710000000  0.4643430000000 1.0
C      1  0.4597390000000  0.5187910000000  0.4757120000000 1.0
C      1  0.4685290000000  0.5294600000000  0.5360360000000 1.0
C      1  0.4817230000000  0.4560460000000  0.5389950000000 1.0
C      1  0.4475030000000  0.4458400000000  0.4936480000000 1.0
C      1  0.4854060000000  0.4535480000000  0.4553550000000 1.0
C      1  0.5362440000000  0.4537950000000  0.4734720000000 1.0
C      1  0.5346700000000  0.4495570000000  0.5296830000000 1.0
C      1  0.5219520000000  0.5456390000000  0.5344930000000 1.0
C      1  0.5395510000000  0.5465370000000  0.5092590000000 1.0
C      1  0.5131590000000  0.5480160000000  0.4564740000000 1.0
C      1  0.4630420000000  0.5430160000000  0.4789840000000 1.0
C      1  0.4633310000000  0.5541610000000  0.5371930000000 1.0
C      1  0.5083790000000  0.4943360000000  0.4565300000000 1.0
C      1  0.5344430000000  0.5024600000000  0.5262260000000 1.0
C      1  0.4868000000000  0.5068240000000  0.5320560000000 1.0
C      1  0.4691190000000  0.4926190000000  0.4842260000000 1.0
C      1  0.5393780000000  0.5073180000000  0.4769960000000 1.0
C      1  0.5102370000000  0.4774690000000  0.5007450000000 1.0
C      1  0.5055540000000  0.5231950000000  0.4933870000000 1.0
C      1  0.4922690000000  0.4996000000000  0.5025750000000 1.0
END
