TITL C-71076-6217-1 -29.6586667898153 125000 -851.298106113515 0 0 121 (C1) n - 1
REM
REM in /rds/project/t2_vol4/rds-t2-cs072/BORA/CARBON/from-Arr/AIRSS/Generating-Clusters/GAP-ML-2020/Higher-Symm/SD-CG/HFTN-CG
REM
REM
REM
REM
REM
REM ./C.cell (b20cbc046b6831c77cfcea5457e17084)
REM AIRSS Version 0.9.1 bugfix July 2018 build 013d7b7c2542+ Fri, 06 Jul 2018 19:26:36 +0100
REM compiler GCC version 9.3.0
REM options -cpp -mtune=generic -march=x86-64 -g -O0
REM seed 1742035220 -1571505504 -1041243267 1513894415 -1554553575 -1389496470 -284898058 1143568706 -1366025334 1288204773 569941845 59372921 -223014048 -402813091 557435394 -2042696001 -163232021 57175730 270657001 1877722001 910628075 1706507790 -352893468 2030705962 1264461964 -433636724 1694582365 -916882866 -1089805713 726736874 -29045523 1135698499 -1619310298
REM
CELL 1.54180   50.00000   50.00000   50.00000   90.00000   90.00000   90.00000
LATT -1
SFAC C  
C      1  0.4100070000000  0.5201940000000  0.5134320000000 1.0
C      1  0.4103080000000  0.5188660000000  0.4845090000000 1.0
C      1  0.4104820000000  0.4910280000000  0.4769450000000 1.0
C      1  0.4105390000000  0.4750860000000  0.5010860000000 1.0
C      1  0.4103070000000  0.4931150000000  0.5236360000000 1.0
C      1  0.4714660000000  0.4712820000000  0.4816270000000 1.0
C      1  0.4743070000000  0.4716590000000  0.5230650000000 1.0
C      1  0.4718790000000  0.5144910000000  0.5318700000000 1.0
C      1  0.4713080000000  0.5344590000000  0.4994830000000 1.0
C      1  0.4746840000000  0.5077270000000  0.4638250000000 1.0
C      1  0.4458830000000  0.4633810000000  0.5285130000000 1.0
C      1  0.4445490000000  0.5161910000000  0.5437870000000 1.0
C      1  0.4442760000000  0.5465970000000  0.4986730000000 1.0
C      1  0.4458410000000  0.5123260000000  0.4552040000000 1.0
C      1  0.4448160000000  0.4612400000000  0.4738140000000 1.0
C      1  0.5387940000000  0.5323800000000  0.4686190000000 1.0
C      1  0.5411320000000  0.4765980000000  0.4573440000000 1.0
C      1  0.5402790000000  0.4524300000000  0.5060600000000 1.0
C      1  0.5394360000000  0.4941980000000  0.5449660000000 1.0
C      1  0.5409000000000  0.5426120000000  0.5217460000000 1.0
C      1  0.4384420000000  0.5589660000000  0.4540690000000 1.0
C      1  0.4385620000000  0.4740240000000  0.4291250000000 1.0
C      1  0.4390490000000  0.4245370000000  0.5020420000000 1.0
C      1  0.4384880000000  0.4791240000000  0.5718740000000 1.0
C      1  0.4381380000000  0.5624250000000  0.5425370000000 1.0
C      1  0.4877240000000  0.4921900000000  0.5350730000000 1.0
C      1  0.4865610000000  0.5358790000000  0.5223600000000 1.0
C      1  0.4869100000000  0.5276280000000  0.4776190000000 1.0
C      1  0.4876920000000  0.4837450000000  0.4627720000000 1.0
C      1  0.4866130000000  0.4598440000000  0.5020180000000 1.0
C      1  0.5224810000000  0.5644410000000  0.5598330000000 1.0
C      1  0.5217130000000  0.5757110000000  0.4583360000000 1.0
C      1  0.5214480000000  0.4826440000000  0.4144520000000 1.0
C      1  0.5233510000000  0.4118740000000  0.4888640000000 1.0
C      1  0.5209340000000  0.4641480000000  0.5777870000000 1.0
C      1  0.5885290000000  0.4552620000000  0.4773310000000 1.0
C      1  0.5870690000000  0.4645550000000  0.5351030000000 1.0
C      1  0.5882700000000  0.5227120000000  0.5442810000000 1.0
C      1  0.5879830000000  0.5491580000000  0.4920080000000 1.0
C      1  0.5871110000000  0.5075440000000  0.4505000000000 1.0
C      1  0.5146220000000  0.5294670000000  0.5167880000000 1.0
C      1  0.5146660000000  0.5230920000000  0.4859960000000 1.0
C      1  0.5153320000000  0.4791460000000  0.4716240000000 1.0
C      1  0.5146310000000  0.4648380000000  0.4966950000000 1.0
C      1  0.5154190000000  0.4999540000000  0.5269490000000 1.0
C      1  0.5428680000000  0.5679780000000  0.5057890000000 1.0
C      1  0.5406250000000  0.5256380000000  0.4391860000000 1.0
C      1  0.5453370000000  0.4470860000000  0.4529390000000 1.0
C      1  0.5413490000000  0.4420860000000  0.5340770000000 1.0
C      1  0.5425550000000  0.5165630000000  0.5653300000000 1.0
C      1  0.4734690000000  0.4602090000000  0.5848580000000 1.0
C      1  0.4735230000000  0.5693750000000  0.5646050000000 1.0
C      1  0.4736950000000  0.5817790000000  0.4546240000000 1.0
C      1  0.4733390000000  0.4817150000000  0.4069120000000 1.0
C      1  0.4746150000000  0.4062630000000  0.4882690000000 1.0
C      1  0.4695930000000  0.4210490000000  0.5419430000000 1.0
C      1  0.4704050000000  0.5159720000000  0.5870940000000 1.0
C      1  0.4697950000000  0.5884060000000  0.5123220000000 1.0
C      1  0.4696740000000  0.5383480000000  0.4197800000000 1.0
C      1  0.4711170000000  0.4355560000000  0.4382690000000 1.0
C      1  0.4631610000000  0.5594900000000  0.4373490000000 1.0
C      1  0.4632320000000  0.4581080000000  0.4227820000000 1.0
C      1  0.4633170000000  0.4136680000000  0.5154460000000 1.0
C      1  0.4633600000000  0.4885360000000  0.5856570000000 1.0
C      1  0.4625740000000  0.5791990000000  0.5381620000000 1.0
C      1  0.5671720000000  0.5316930000000  0.5617330000000 1.0
C      1  0.5665570000000  0.5682530000000  0.4890190000000 1.0
C      1  0.5646840000000  0.5106300000000  0.4324560000000 1.0
C      1  0.5674300000000  0.4371670000000  0.4682840000000 1.0
C      1  0.5644460000000  0.4519790000000  0.5481310000000 1.0
C      1  0.4955120000000  0.4271810000000  0.5543830000000 1.0
C      1  0.4962690000000  0.5300910000000  0.5856480000000 1.0
C      1  0.4959430000000  0.5905980000000  0.4988930000000 1.0
C      1  0.4954780000000  0.5261140000000  0.4127090000000 1.0
C      1  0.4973470000000  0.4251860000000  0.4474530000000 1.0
C      1  0.4488050000000  0.5194780000000  0.4252950000000 1.0
C      1  0.4502790000000  0.4349220000000  0.4578150000000 1.0
C      1  0.4488530000000  0.4398360000000  0.5484730000000 1.0
C      1  0.4492490000000  0.5279650000000  0.5720940000000 1.0
C      1  0.4489220000000  0.5772480000000  0.4960520000000 1.0
C      1  0.5611250000000  0.4959970000000  0.5243110000000 1.0
C      1  0.5610830000000  0.5222410000000  0.5111890000000 1.0
C      1  0.5609020000000  0.5172440000000  0.4821650000000 1.0
C      1  0.5611650000000  0.4877830000000  0.4771470000000 1.0
C      1  0.5608900000000  0.4745330000000  0.5034600000000 1.0
C      1  0.5185500000000  0.5826850000000  0.5406590000000 1.0
C      1  0.5168960000000  0.5628710000000  0.4353580000000 1.0
C      1  0.5186970000000  0.4562440000000  0.4183930000000 1.0
C      1  0.5181080000000  0.4093000000000  0.5151190000000 1.0
C      1  0.5173820000000  0.4877870000000  0.5898710000000 1.0
C      1  0.4973210000000  0.4474820000000  0.5751070000000 1.0
C      1  0.4978900000000  0.5565530000000  0.5736280000000 1.0
C      1  0.4976220000000  0.5865320000000  0.4702110000000 1.0
C      1  0.4973890000000  0.4975700000000  0.4073540000000 1.0
C      1  0.4988740000000  0.4111880000000  0.4729890000000 1.0
C      1  0.5190670000000  0.5387540000000  0.4240740000000 1.0
C      1  0.5220670000000  0.4375730000000  0.4374070000000 1.0
C      1  0.5193850000000  0.4228930000000  0.5381490000000 1.0
C      1  0.5204740000000  0.5138570000000  0.5849620000000 1.0
C      1  0.5205020000000  0.5855140000000  0.5141390000000 1.0
C      1  0.5457560000000  0.4306040000000  0.4860530000000 1.0
C      1  0.5416730000000  0.4671140000000  0.5575890000000 1.0
C      1  0.5437840000000  0.5458010000000  0.5513080000000 1.0
C      1  0.5428660000000  0.5619520000000  0.4733500000000 1.0
C      1  0.5426500000000  0.4922150000000  0.4321490000000 1.0
C      1  0.5863660000000  0.5284050000000  0.4710130000000 1.0
C      1  0.5871320000000  0.4811160000000  0.4634570000000 1.0
C      1  0.5868820000000  0.4594770000000  0.5063020000000 1.0
C      1  0.5865910000000  0.4935540000000  0.5398380000000 1.0
C      1  0.5871530000000  0.5359570000000  0.5181170000000 1.0
C      1  0.4485570000000  0.4519000000000  0.5730600000000 1.0
C      1  0.4488540000000  0.5551700000000  0.5685790000000 1.0
C      1  0.4487480000000  0.5817520000000  0.4690520000000 1.0
C      1  0.4486100000000  0.4953570000000  0.4122270000000 1.0
C      1  0.4497700000000  0.4150980000000  0.4766520000000 1.0
C      1  0.4304530000000  0.5384190000000  0.5258290000000 1.0
C      1  0.4316610000000  0.5357170000000  0.4714990000000 1.0
C      1  0.4315030000000  0.4838460000000  0.4566890000000 1.0
C      1  0.4318050000000  0.4537440000000  0.5017910000000 1.0
C      1  0.4316760000000  0.4875290000000  0.5440860000000 1.0
C      1  0.5196800000000  0.4949020000000  0.4969360000000 1.0
END
