TITL C-71064-6519-3 166.59321246008 125000 -590.196460195975 0 0 83 (C1) n - 1
REM
REM in /rds/project/t2_vol4/rds-t2-cs072/BORA/CARBON/from-Arr/AIRSS/Generating-Clusters/GAP-ML-2020/Higher-Symm/SD-CG/HFTN-CG
REM
REM
REM
REM
REM
REM ./C.cell (b20cbc046b6831c77cfcea5457e17084)
REM AIRSS Version 0.9.1 bugfix July 2018 build 013d7b7c2542+ Fri, 06 Jul 2018 19:26:36 +0100
REM compiler GCC version 9.3.0
REM options -cpp -mtune=generic -march=x86-64 -g -O0
REM seed -8016511 -584332023 1890676352 1560302079 456603110 1317599424 -1284071927 -1815384059 -1992539535 -64407491 119112894 -1062426034 -1788330994 -191048844 1227373337 -2143010071 -1130446957 -1682290345 -393005744 1703633441 914816953 -509904548 -1348733722 -405436624 -1346074617 1184402564 -163707368 1929270248 -1624825084 511839861 2071982368 1669940779 -1240882891
REM
CELL 1.54180   50.00000   50.00000   50.00000   90.00000   90.00000   90.00000
LATT -1
SFAC C  
C      1  0.5457110000000  0.4859450000000  0.5628290000000 1.0
C      1  0.5029030000000  0.5757210000000  0.4959980000000 1.0
C      1  0.5328530000000  0.5564160000000  0.4582180000000 1.0
C      1  0.4259120000000  0.4839990000000  0.5243140000000 1.0
C      1  0.5831760000000  0.4826440000000  0.5006780000000 1.0
C      1  0.4806300000000  0.4623450000000  0.5811790000000 1.0
C      1  0.4712310000000  0.5659900000000  0.5259650000000 1.0
C      1  0.4711280000000  0.4338550000000  0.5460750000000 1.0
C      1  0.4354190000000  0.4578020000000  0.5279780000000 1.0
C      1  0.4915050000000  0.4447690000000  0.4790950000000 1.0
C      1  0.5711550000000  0.5309510000000  0.5114520000000 1.0
C      1  0.4997490000000  0.5695320000000  0.5269560000000 1.0
C      1  0.4716770000000  0.4576300000000  0.4390070000000 1.0
C      1  0.4651650000000  0.5145650000000  0.5777060000000 1.0
C      1  0.5479180000000  0.5144410000000  0.5560320000000 1.0
C      1  0.5676250000000  0.5143710000000  0.5343660000000 1.0
C      1  0.5075690000000  0.5304210000000  0.4258230000000 1.0
C      1  0.5342830000000  0.4489520000000  0.5338400000000 1.0
C      1  0.5194370000000  0.4473390000000  0.5598540000000 1.0
C      1  0.4248560000000  0.4953170000000  0.4983740000000 1.0
C      1  0.5429280000000  0.5673640000000  0.5199010000000 1.0
C      1  0.5314860000000  0.5822960000000  0.4979110000000 1.0
C      1  0.4598840000000  0.5271660000000  0.4317140000000 1.0
C      1  0.4971740000000  0.4302900000000  0.5025470000000 1.0
C      1  0.5642730000000  0.4686910000000  0.4552410000000 1.0
C      1  0.4331600000000  0.5039550000000  0.5433190000000 1.0
C      1  0.4445270000000  0.4528040000000  0.4802350000000 1.0
C      1  0.5238530000000  0.4825580000000  0.4954560000000 1.0
C      1  0.5687600000000  0.5133370000000  0.4656910000000 1.0
C      1  0.5276650000000  0.5114380000000  0.4938980000000 1.0
C      1  0.4690180000000  0.5033730000000  0.4200050000000 1.0
C      1  0.4566380000000  0.4814380000000  0.4332020000000 1.0
C      1  0.4468760000000  0.4963720000000  0.5672520000000 1.0
C      1  0.4810010000000  0.5593790000000  0.4561050000000 1.0
C      1  0.4969820000000  0.5054090000000  0.4147050000000 1.0
C      1  0.5356630000000  0.4718880000000  0.4197230000000 1.0
C      1  0.4485480000000  0.4441570000000  0.5067450000000 1.0
C      1  0.5213820000000  0.5497200000000  0.5322490000000 1.0
C      1  0.5007300000000  0.4815800000000  0.5868710000000 1.0
C      1  0.5646220000000  0.5570330000000  0.5027380000000 1.0
C      1  0.4599470000000  0.5588600000000  0.4754940000000 1.0
C      1  0.4731630000000  0.5381970000000  0.5636560000000 1.0
C      1  0.5047620000000  0.5272220000000  0.4827370000000 1.0
C      1  0.5561340000000  0.4694250000000  0.5412970000000 1.0
C      1  0.4876940000000  0.5035770000000  0.5202850000000 1.0
C      1  0.4718440000000  0.5717650000000  0.4979110000000 1.0
C      1  0.5544960000000  0.5141670000000  0.4408600000000 1.0
C      1  0.4568520000000  0.5472490000000  0.5415860000000 1.0
C      1  0.5445710000000  0.4457150000000  0.4597340000000 1.0
C      1  0.5769710000000  0.4862400000000  0.4743670000000 1.0
C      1  0.4312480000000  0.5235270000000  0.5007290000000 1.0
C      1  0.5247590000000  0.4715210000000  0.5745340000000 1.0
C      1  0.4483950000000  0.4504800000000  0.5518790000000 1.0
C      1  0.4309150000000  0.4785570000000  0.4756590000000 1.0
C      1  0.5338820000000  0.5350300000000  0.4380980000000 1.0
C      1  0.5738470000000  0.4862910000000  0.5259640000000 1.0
C      1  0.4975950000000  0.4837950000000  0.5354160000000 1.0
C      1  0.4544840000000  0.4692160000000  0.5719540000000 1.0
C      1  0.5394430000000  0.4333400000000  0.4837790000000 1.0
C      1  0.5494550000000  0.5684520000000  0.4786320000000 1.0
C      1  0.5270060000000  0.4316090000000  0.5082620000000 1.0
C      1  0.5021770000000  0.5321630000000  0.5718660000000 1.0
C      1  0.5090730000000  0.5239370000000  0.5127940000000 1.0
C      1  0.4826440000000  0.5441960000000  0.4334020000000 1.0
C      1  0.5061040000000  0.5571260000000  0.4713990000000 1.0
C      1  0.4850170000000  0.5095230000000  0.4735350000000 1.0
C      1  0.4666660000000  0.4457320000000  0.4641180000000 1.0
C      1  0.5557660000000  0.5213790000000  0.4896290000000 1.0
C      1  0.4922590000000  0.5084230000000  0.5859550000000 1.0
C      1  0.4376080000000  0.5284630000000  0.5295570000000 1.0
C      1  0.4384220000000  0.4925170000000  0.4525390000000 1.0
C      1  0.5210620000000  0.4743690000000  0.5226750000000 1.0
C      1  0.4413240000000  0.5213160000000  0.4526070000000 1.0
C      1  0.5551390000000  0.4860500000000  0.4334470000000 1.0
C      1  0.5268530000000  0.5349770000000  0.5578180000000 1.0
C      1  0.5260680000000  0.4489850000000  0.4360150000000 1.0
C      1  0.4799820000000  0.4921910000000  0.4938650000000 1.0
C      1  0.4403640000000  0.5372060000000  0.4764750000000 1.0
C      1  0.4724900000000  0.4306560000000  0.5174060000000 1.0
C      1  0.4918810000000  0.4419040000000  0.5639680000000 1.0
C      1  0.4981670000000  0.4572970000000  0.4291330000000 1.0
C      1  0.4996650000000  0.4739890000000  0.4832980000000 1.0
C      1  0.5087380000000  0.4801150000000  0.4144170000000 1.0
END
