TITL C-71076-6217-4 4.58496054622656 125000 -578.212134326042 0 0 83 (C1) n - 1
REM
REM in /rds/project/t2_vol4/rds-t2-cs072/BORA/CARBON/from-Arr/AIRSS/Generating-Clusters/GAP-ML-2020/Higher-Symm/SD-CG/HFTN-CG
REM
REM
REM
REM
REM
REM ./C.cell (b20cbc046b6831c77cfcea5457e17084)
REM AIRSS Version 0.9.1 bugfix July 2018 build 013d7b7c2542+ Fri, 06 Jul 2018 19:26:36 +0100
REM compiler GCC version 9.3.0
REM options -cpp -mtune=generic -march=x86-64 -g -O0
REM seed 1971283628 -459324111 121666237 1592310827 334104782 -1324818860 -916527655 -985869756 -1543233370 328932744 -2032897966 -1736221287 1101344712 -507621449 50356963 1434852553 -1371367768 1549220807 357988773 -2055501620 -494556730 -1551652150 -283738707 855577014 -1262849224 -4503592 -1929843291 -222034176 1003056078 1750167253 -1499371068 1982032877 -2102488106
REM
CELL 1.54180   50.00000   50.00000   50.00000   90.00000   90.00000   90.00000
LATT -1
SFAC C  
C      1  0.5450770000000  0.4313470000000  0.5277850000000 1.0
C      1  0.4545620000000  0.4360260000000  0.4935170000000 1.0
C      1  0.5436050000000  0.4517850000000  0.4508420000000 1.0
C      1  0.5729240000000  0.4963350000000  0.5245020000000 1.0
C      1  0.5048150000000  0.4232810000000  0.5358200000000 1.0
C      1  0.5587840000000  0.5548630000000  0.4965800000000 1.0
C      1  0.4361040000000  0.5374410000000  0.5347360000000 1.0
C      1  0.4773080000000  0.5658090000000  0.5344000000000 1.0
C      1  0.5274380000000  0.4346770000000  0.5504320000000 1.0
C      1  0.4717530000000  0.4379500000000  0.5674420000000 1.0
C      1  0.4771660000000  0.5475040000000  0.4403640000000 1.0
C      1  0.4813720000000  0.5358130000000  0.5615300000000 1.0
C      1  0.5667260000000  0.4531040000000  0.4909560000000 1.0
C      1  0.5397920000000  0.5084010000000  0.4870810000000 1.0
C      1  0.4298500000000  0.5476150000000  0.5079350000000 1.0
C      1  0.5642040000000  0.4499400000000  0.5194520000000 1.0
C      1  0.4951000000000  0.5050920000000  0.4450580000000 1.0
C      1  0.4872260000000  0.5000790000000  0.5206890000000 1.0
C      1  0.5246640000000  0.5695650000000  0.4651480000000 1.0
C      1  0.4585620000000  0.5483740000000  0.5482500000000 1.0
C      1  0.5725280000000  0.5326460000000  0.5056010000000 1.0
C      1  0.4788400000000  0.4888780000000  0.4632720000000 1.0
C      1  0.5230760000000  0.5242070000000  0.5074660000000 1.0
C      1  0.4447020000000  0.5699940000000  0.4978630000000 1.0
C      1  0.4990240000000  0.5343320000000  0.4912120000000 1.0
C      1  0.5188300000000  0.5772310000000  0.4921810000000 1.0
C      1  0.4921500000000  0.4743450000000  0.5096250000000 1.0
C      1  0.4826150000000  0.5101290000000  0.5733280000000 1.0
C      1  0.4232190000000  0.5256000000000  0.4906220000000 1.0
C      1  0.5386600000000  0.5266950000000  0.4632760000000 1.0
C      1  0.5662740000000  0.4728790000000  0.5372160000000 1.0
C      1  0.4375040000000  0.4561960000000  0.4816710000000 1.0
C      1  0.5074950000000  0.5284470000000  0.4621040000000 1.0
C      1  0.5678810000000  0.5235240000000  0.5325880000000 1.0
C      1  0.5061820000000  0.5535700000000  0.4446930000000 1.0
C      1  0.5226700000000  0.4207950000000  0.5120150000000 1.0
C      1  0.4777200000000  0.5172900000000  0.5009860000000 1.0
C      1  0.4515890000000  0.5146150000000  0.4169990000000 1.0
C      1  0.4531980000000  0.5500070000000  0.4573220000000 1.0
C      1  0.4708310000000  0.4356610000000  0.4685410000000 1.0
C      1  0.4708200000000  0.5748580000000  0.5090170000000 1.0
C      1  0.4970020000000  0.4725530000000  0.4800870000000 1.0
C      1  0.4434830000000  0.5718260000000  0.4702430000000 1.0
C      1  0.5247690000000  0.5413550000000  0.4247380000000 1.0
C      1  0.4445690000000  0.4667370000000  0.5260570000000 1.0
C      1  0.4569820000000  0.4411690000000  0.5218200000000 1.0
C      1  0.5722460000000  0.4782550000000  0.4768290000000 1.0
C      1  0.5275700000000  0.5493370000000  0.5344590000000 1.0
C      1  0.5064350000000  0.4711230000000  0.5765120000000 1.0
C      1  0.4420070000000  0.5215990000000  0.4660080000000 1.0
C      1  0.5589420000000  0.4760190000000  0.4507210000000 1.0
C      1  0.5318110000000  0.5050300000000  0.5568550000000 1.0
C      1  0.4395480000000  0.4799480000000  0.4991160000000 1.0
C      1  0.5469870000000  0.4785530000000  0.5570970000000 1.0
C      1  0.5163390000000  0.5031600000000  0.5274300000000 1.0
C      1  0.5212710000000  0.4771780000000  0.5145930000000 1.0
C      1  0.4505060000000  0.4533980000000  0.4559000000000 1.0
C      1  0.4768350000000  0.4299850000000  0.5409730000000 1.0
C      1  0.4636270000000  0.4880290000000  0.5681870000000 1.0
C      1  0.5423280000000  0.4942270000000  0.4351080000000 1.0
C      1  0.5428240000000  0.5230230000000  0.4336970000000 1.0
C      1  0.5457980000000  0.5301010000000  0.5486430000000 1.0
C      1  0.5263980000000  0.4819290000000  0.4862930000000 1.0
C      1  0.5009350000000  0.5521590000000  0.5458850000000 1.0
C      1  0.4758330000000  0.5218100000000  0.4276970000000 1.0
C      1  0.4609130000000  0.5035350000000  0.4820800000000 1.0
C      1  0.5291010000000  0.4583810000000  0.5651290000000 1.0
C      1  0.4222830000000  0.5026850000000  0.5076460000000 1.0
C      1  0.4999420000000  0.4440960000000  0.4688450000000 1.0
C      1  0.5163760000000  0.4564110000000  0.4456160000000 1.0
C      1  0.5159320000000  0.4837780000000  0.4356140000000 1.0
C      1  0.4571510000000  0.4778440000000  0.4457110000000 1.0
C      1  0.5377850000000  0.5669710000000  0.5124980000000 1.0
C      1  0.4937800000000  0.5659860000000  0.4953420000000 1.0
C      1  0.4786260000000  0.4636720000000  0.5729470000000 1.0
C      1  0.4430700000000  0.4866300000000  0.5473230000000 1.0
C      1  0.4429390000000  0.5030680000000  0.4399680000000 1.0
C      1  0.5469530000000  0.5535120000000  0.4703770000000 1.0
C      1  0.5473980000000  0.4380210000000  0.4750970000000 1.0
C      1  0.5220640000000  0.4292480000000  0.4850300000000 1.0
C      1  0.4294500000000  0.5089400000000  0.5346010000000 1.0
C      1  0.5091150000000  0.4991380000000  0.5754350000000 1.0
C      1  0.5692320000000  0.5026800000000  0.4956750000000 1.0
END
