TITL C-71083-5520-8 0.0153873525987291 125000 -44.1933841872898 0 0 7 (D(inf)h) n - 1
REM
REM in /rds/project/t2_vol4/rds-t2-cs072/BORA/CARBON/from-Arr/AIRSS/Generating-Clusters/GAP-ML-2020/Higher-Symm/SD-CG/HFTN-CG
REM
REM
REM
REM
REM
REM ./C.cell (b20cbc046b6831c77cfcea5457e17084)
REM AIRSS Version 0.9.1 bugfix July 2018 build 013d7b7c2542+ Fri, 06 Jul 2018 19:26:36 +0100
REM compiler GCC version 9.3.0
REM options -cpp -mtune=generic -march=x86-64 -g -O0
REM seed 586052557 -1943977603 -792553134 1654399186 -133647018 -269733798 -1277331801 -1182929472 -1262414537 -39631701 1988699452 -2022136335 -698320942 -1255114523 1510555619 -1709101558 -1038821992 1631907024 113491634 -586591978 2098050759 200306219 -714049641 -1450444478 -963385312 1042239915 -1334756088 1340388653 -555344483 1574027402 1308520668 1702828846 -677353934
REM
CELL 1.54180   50.00000   50.00000   50.00000   90.00000   90.00000   90.00000
LATT -1
SFAC C  
C      1  0.4988400000000  0.4990760000000  0.4746190000000 1.0
C      1  0.4988400000000  0.4990760000000  0.4489020000000 1.0
C      1  0.4988400000000  0.4990760000000  0.5000000000000 1.0
C      1  0.4988400000000  0.4990760000000  0.5253810000000 1.0
C      1  0.4988400000000  0.4990760000000  0.4232650000000 1.0
C      1  0.4988400000000  0.4990760000000  0.5510980000000 1.0
C      1  0.4988400000000  0.4990760000000  0.5767350000000 1.0
END
