TITL C-71084-5478-1 -287.183972014433 125000 -571.35115211525 0 0 82 (C3) n - 1
REM
REM in /rds/project/t2_vol4/rds-t2-cs072/BORA/CARBON/from-Arr/AIRSS/Generating-Clusters/GAP-ML-2020/Higher-Symm/SD-CG/HFTN-CG
REM
REM
REM
REM
REM
REM ./C.cell (b20cbc046b6831c77cfcea5457e17084)
REM AIRSS Version 0.9.1 bugfix July 2018 build 013d7b7c2542+ Fri, 06 Jul 2018 19:26:36 +0100
REM compiler GCC version 9.3.0
REM options -cpp -mtune=generic -march=x86-64 -g -O0
REM seed 1110540231 -87366926 1799310580 -71691423 1603581769 -372236479 -679463033 -1507296882 1753919563 362309352 -1109414280 -2015373357 398214292 735654931 -714516190 -823276274 -267703837 -1256251408 2139465142 1101861713 -624435314 -1441509045 625406541 -833388855 1155024419 331069872 -2019078087 -718496964 -1241290238 -213466003 175932594 1472066222 509663622
REM
CELL 1.54180   50.00000   50.00000   50.00000   90.00000   90.00000   90.00000
LATT -1
SFAC C  
C      1  0.4565990000000  0.5275830000000  0.5417590000000 1.0
C      1  0.5453350000000  0.5226140000000  0.5436820000000 1.0
C      1  0.4966950000000  0.4482440000000  0.5412760000000 1.0
C      1  0.4782440000000  0.4446080000000  0.4525990000000 1.0
C      1  0.4643230000000  0.5494310000000  0.4541230000000 1.0
C      1  0.5620490000000  0.5090410000000  0.4556270000000 1.0
C      1  0.5623210000000  0.4657910000000  0.5367600000000 1.0
C      1  0.4391210000000  0.4622540000000  0.5339080000000 1.0
C      1  0.4976150000000  0.5707290000000  0.5371360000000 1.0
C      1  0.5075890000000  0.5129080000000  0.5734960000000 1.0
C      1  0.5065710000000  0.4843770000000  0.5729730000000 1.0
C      1  0.4823750000000  0.4995340000000  0.5726910000000 1.0
C      1  0.5284410000000  0.4901490000000  0.4298360000000 1.0
C      1  0.4791400000000  0.4843020000000  0.4286170000000 1.0
C      1  0.4987110000000  0.5299270000000  0.4298600000000 1.0
C      1  0.4555330000000  0.5239080000000  0.4435290000000 1.0
C      1  0.5445260000000  0.5298800000000  0.4456490000000 1.0
C      1  0.5052320000000  0.4498140000000  0.4433550000000 1.0
C      1  0.5720070000000  0.5141280000000  0.4830120000000 1.0
C      1  0.4771660000000  0.4321950000000  0.4794270000000 1.0
C      1  0.4536050000000  0.5553330000000  0.4810530000000 1.0
C      1  0.4552090000000  0.4412570000000  0.5236990000000 1.0
C      1  0.4715860000000  0.5677690000000  0.5262890000000 1.0
C      1  0.5729540000000  0.4902840000000  0.5272250000000 1.0
C      1  0.5151260000000  0.4091970000000  0.4928560000000 1.0
C      1  0.4144800000000  0.5333660000000  0.4927550000000 1.0
C      1  0.5722910000000  0.5584100000000  0.4967680000000 1.0
C      1  0.5679430000000  0.5646790000000  0.5241230000000 1.0
C      1  0.5222140000000  0.4085710000000  0.5203490000000 1.0
C      1  0.4098830000000  0.5262850000000  0.5198700000000 1.0
C      1  0.5244830000000  0.4461440000000  0.4633210000000 1.0
C      1  0.4423690000000  0.5081710000000  0.4625500000000 1.0
C      1  0.5371090000000  0.5482570000000  0.4653990000000 1.0
C      1  0.5097380000000  0.5249460000000  0.5134510000000 1.0
C      1  0.5170530000000  0.4792610000000  0.5128150000000 1.0
C      1  0.4738380000000  0.4957840000000  0.5121260000000 1.0
C      1  0.5589380000000  0.4478850000000  0.5129790000000 1.0
C      1  0.4257440000000  0.4752160000000  0.5104420000000 1.0
C      1  0.5159620000000  0.5769020000000  0.5142690000000 1.0
C      1  0.4546890000000  0.4431550000000  0.4950130000000 1.0
C      1  0.4740280000000  0.5685870000000  0.4976510000000 1.0
C      1  0.5729820000000  0.4890770000000  0.4984970000000 1.0
C      1  0.5119530000000  0.4882800000000  0.4858000000000 1.0
C      1  0.4847040000000  0.4969300000000  0.4853340000000 1.0
C      1  0.5058090000000  0.5162030000000  0.4861500000000 1.0
C      1  0.5506270000000  0.5387350000000  0.4899220000000 1.0
C      1  0.5090260000000  0.4380810000000  0.4872140000000 1.0
C      1  0.4426520000000  0.5244740000000  0.4872260000000 1.0
C      1  0.5244230000000  0.5186540000000  0.4292220000000 1.0
C      1  0.5058520000000  0.4735660000000  0.4280110000000 1.0
C      1  0.4760870000000  0.5122110000000  0.4280150000000 1.0
C      1  0.5121570000000  0.4514580000000  0.5155340000000 1.0
C      1  0.4521460000000  0.5137830000000  0.5152680000000 1.0
C      1  0.5361000000000  0.5345750000000  0.5175340000000 1.0
C      1  0.4577640000000  0.5048810000000  0.5600930000000 1.0
C      1  0.5247430000000  0.5321050000000  0.5620880000000 1.0
C      1  0.5148510000000  0.4604720000000  0.5606070000000 1.0
C      1  0.5624890000000  0.4635660000000  0.4896630000000 1.0
C      1  0.4379920000000  0.4653810000000  0.4868760000000 1.0
C      1  0.5017700000000  0.5723010000000  0.4901960000000 1.0
C      1  0.5355830000000  0.4348920000000  0.5258990000000 1.0
C      1  0.4259060000000  0.5013180000000  0.5245810000000 1.0
C      1  0.5382280000000  0.5630740000000  0.5282080000000 1.0
C      1  0.5186480000000  0.5580100000000  0.5517380000000 1.0
C      1  0.5405290000000  0.4532790000000  0.5503970000000 1.0
C      1  0.4389060000000  0.4867290000000  0.5486820000000 1.0
C      1  0.4249440000000  0.5603500000000  0.4944770000000 1.0
C      1  0.5904100000000  0.5358000000000  0.4977930000000 1.0
C      1  0.4864740000000  0.4047700000000  0.4931410000000 1.0
C      1  0.4430680000000  0.4795430000000  0.4626740000000 1.0
C      1  0.5119580000000  0.5619470000000  0.4656800000000 1.0
C      1  0.5488930000000  0.4610500000000  0.4647460000000 1.0
C      1  0.4779140000000  0.4286000000000  0.5358830000000 1.0
C      1  0.4490590000000  0.5538900000000  0.5374270000000 1.0
C      1  0.5719690000000  0.5161940000000  0.5395500000000 1.0
C      1  0.5507120000000  0.4839600000000  0.4473040000000 1.0
C      1  0.4623330000000  0.4673260000000  0.4450100000000 1.0
C      1  0.4920880000000  0.5521950000000  0.4471730000000 1.0
C      1  0.5842600000000  0.5383910000000  0.5262260000000 1.0
C      1  0.4912570000000  0.4074910000000  0.5218240000000 1.0
C      1  0.4243750000000  0.5535380000000  0.5228710000000 1.0
C      1  0.4999040000000  0.4997600000000  0.5262970000000 1.0
END
