TITL C-71064-6519-5 -7.24982379952456 125000 -588.72468969709 0 0 83 (C1) n - 1
REM
REM in /rds/project/t2_vol4/rds-t2-cs072/BORA/CARBON/from-Arr/AIRSS/Generating-Clusters/GAP-ML-2020/Higher-Symm/SD-CG/HFTN-CG
REM
REM
REM
REM
REM
REM ./C.cell (b20cbc046b6831c77cfcea5457e17084)
REM AIRSS Version 0.9.1 bugfix July 2018 build 013d7b7c2542+ Fri, 06 Jul 2018 19:26:36 +0100
REM compiler GCC version 9.3.0
REM options -cpp -mtune=generic -march=x86-64 -g -O0
REM seed -939897353 13109847 1002055261 -281800184 -647582494 -1815225570 1905780476 -1751791250 -1209089403 611412922 1633990425 -191663889 1830745413 -1683104960 1789366324 18887474 1080429512 -767317790 -563873123 1331754857 -1501867117 -1055362892 -1385472269 597849686 -937751674 1560728738 1844238385 -305116840 -507426546 1901281363 231011925 512414912 -1015282204
REM
CELL 1.54180   50.00000   50.00000   50.00000   90.00000   90.00000   90.00000
LATT -1
SFAC C  
C      1  0.5343920000000  0.5794070000000  0.5207230000000 1.0
C      1  0.4836000000000  0.5842880000000  0.5212280000000 1.0
C      1  0.4434730000000  0.5619590000000  0.5203700000000 1.0
C      1  0.4201090000000  0.5160590000000  0.5185900000000 1.0
C      1  0.4166000000000  0.4717800000000  0.5248690000000 1.0
C      1  0.4453360000000  0.4383850000000  0.5173160000000 1.0
C      1  0.4914050000000  0.4162000000000  0.5168180000000 1.0
C      1  0.5369570000000  0.4236580000000  0.5163540000000 1.0
C      1  0.5745160000000  0.4581670000000  0.5170110000000 1.0
C      1  0.5863010000000  0.5026090000000  0.5179920000000 1.0
C      1  0.5704590000000  0.5509270000000  0.5199120000000 1.0
C      1  0.4170780000000  0.4731830000000  0.4600710000000 1.0
C      1  0.4438130000000  0.4380580000000  0.4649600000000 1.0
C      1  0.4906640000000  0.4162460000000  0.4628770000000 1.0
C      1  0.5359110000000  0.4254540000000  0.4631150000000 1.0
C      1  0.5726400000000  0.4602400000000  0.4643600000000 1.0
C      1  0.5872670000000  0.5041000000000  0.4646770000000 1.0
C      1  0.5718150000000  0.5531510000000  0.4668190000000 1.0
C      1  0.5350200000000  0.5813530000000  0.4677530000000 1.0
C      1  0.4842020000000  0.5848560000000  0.4680570000000 1.0
C      1  0.4443830000000  0.5620180000000  0.4676300000000 1.0
C      1  0.4207610000000  0.5168400000000  0.4673430000000 1.0
C      1  0.5138120000000  0.4234350000000  0.5327600000000 1.0
C      1  0.5518440000000  0.4449920000000  0.5268870000000 1.0
C      1  0.5764510000000  0.4809450000000  0.5335910000000 1.0
C      1  0.5726950000000  0.5245100000000  0.5287490000000 1.0
C      1  0.5497800000000  0.5614330000000  0.5362810000000 1.0
C      1  0.5084780000000  0.5757970000000  0.5307420000000 1.0
C      1  0.4651020000000  0.5696110000000  0.5371600000000 1.0
C      1  0.4363490000000  0.5364360000000  0.5293810000000 1.0
C      1  0.4224060000000  0.4955340000000  0.5376260000000 1.0
C      1  0.4357520000000  0.4560610000000  0.5368560000000 1.0
C      1  0.4707130000000  0.4317250000000  0.5277200000000 1.0
C      1  0.4771690000000  0.5465240000000  0.5522030000000 1.0
C      1  0.4563390000000  0.5255490000000  0.5492260000000 1.0
C      1  0.4486600000000  0.4975250000000  0.5528830000000 1.0
C      1  0.4579630000000  0.4696090000000  0.5525030000000 1.0
C      1  0.4807080000000  0.4519550000000  0.5479880000000 1.0
C      1  0.5098630000000  0.4483100000000  0.5492570000000 1.0
C      1  0.5358960000000  0.4619840000000  0.5466490000000 1.0
C      1  0.5513220000000  0.4869640000000  0.5492990000000 1.0
C      1  0.5497170000000  0.5162470000000  0.5475480000000 1.0
C      1  0.5333840000000  0.5404310000000  0.5507470000000 1.0
C      1  0.5061740000000  0.5513580000000  0.5491940000000 1.0
C      1  0.4725710000000  0.5879950000000  0.4943560000000 1.0
C      1  0.4471210000000  0.5736060000000  0.4939060000000 1.0
C      1  0.4163700000000  0.5047030000000  0.4926530000000 1.0
C      1  0.4171890000000  0.4721460000000  0.4918890000000 1.0
C      1  0.4348570000000  0.4455840000000  0.4914100000000 1.0
C      1  0.5006420000000  0.4106500000000  0.4894610000000 1.0
C      1  0.5292690000000  0.4151010000000  0.4893380000000 1.0
C      1  0.5847430000000  0.4648750000000  0.4904050000000 1.0
C      1  0.5924140000000  0.4930500000000  0.4909090000000 1.0
C      1  0.5697020000000  0.5638290000000  0.4937160000000 1.0
C      1  0.5465850000000  0.5818920000000  0.4942070000000 1.0
C      1  0.4234860000000  0.4969970000000  0.4477950000000 1.0
C      1  0.4343280000000  0.4568840000000  0.4462690000000 1.0
C      1  0.4686000000000  0.4309590000000  0.4532180000000 1.0
C      1  0.5125490000000  0.4248420000000  0.4462470000000 1.0
C      1  0.5493470000000  0.4483770000000  0.4561760000000 1.0
C      1  0.5752220000000  0.4836400000000  0.4483440000000 1.0
C      1  0.5747350000000  0.5275140000000  0.4558480000000 1.0
C      1  0.5507930000000  0.5644010000000  0.4513520000000 1.0
C      1  0.5090800000000  0.5774260000000  0.4582080000000 1.0
C      1  0.4665330000000  0.5695130000000  0.4520140000000 1.0
C      1  0.4377130000000  0.5368640000000  0.4576490000000 1.0
C      1  0.5292950000000  0.4703230000000  0.4416400000000 1.0
C      1  0.5512080000000  0.4921080000000  0.4344720000000 1.0
C      1  0.5512940000000  0.5205540000000  0.4377160000000 1.0
C      1  0.5347060000000  0.5443040000000  0.4369850000000 1.0
C      1  0.5072070000000  0.5534080000000  0.4396480000000 1.0
C      1  0.4788420000000  0.5470800000000  0.4370990000000 1.0
C      1  0.4578570000000  0.5264400000000  0.4376380000000 1.0
C      1  0.4489800000000  0.4989250000000  0.4321960000000 1.0
C      1  0.4560220000000  0.4704440000000  0.4305230000000 1.0
C      1  0.4778790000000  0.4517250000000  0.4330490000000 1.0
C      1  0.5064240000000  0.4495030000000  0.4318190000000 1.0
C      1  0.5130460000000  0.4820610000000  0.4613780000000 1.0
C      1  0.4899680000000  0.4910090000000  0.5039790000000 1.0
C      1  0.5008540000000  0.5001370000000  0.5520540000000 1.0
C      1  0.4997580000000  0.5001240000000  0.5253890000000 1.0
C      1  0.5020740000000  0.4997010000000  0.5768560000000 1.0
C      1  0.4953950000000  0.4854130000000  0.4788820000000 1.0
END
