TITL C-71074-8106-2 0.038565374661943 125000 -685.17283332703 0 0 97 (C1) n - 1
REM
REM in /rds/project/t2_vol4/rds-t2-cs072/BORA/CARBON/from-Arr/AIRSS/Generating-Clusters/GAP-ML-2020/Higher-Symm/SD-CG/HFTN-CG
REM
REM
REM
REM
REM
REM ./C.cell (b20cbc046b6831c77cfcea5457e17084)
REM AIRSS Version 0.9.1 bugfix July 2018 build 013d7b7c2542+ Fri, 06 Jul 2018 19:26:36 +0100
REM compiler GCC version 9.3.0
REM options -cpp -mtune=generic -march=x86-64 -g -O0
REM seed 7132110 -25358052 1009799143 391601921 -814314701 1727677175 83224743 -177178350 -841200080 1750291633 -365045145 615145944 -1121311389 -347378688 -274827894 372412427 -1600191658 -1961345912 -1103095580 -1528929637 -547826532 -1906326740 666109711 1821604700 412956201 167907548 1257487486 -1221443858 825503551 605076021 1218175291 -877001416 -134611782
REM
CELL 1.54180   50.00000   50.00000   50.00000   90.00000   90.00000   90.00000
LATT -1
SFAC C  
C      1  0.5435400000000  0.4336860000000  0.4741840000000 1.0
C      1  0.5422150000000  0.5563930000000  0.4534420000000 1.0
C      1  0.5418540000000  0.5101740000000  0.5724410000000 1.0
C      1  0.5006990000000  0.5550930000000  0.4337890000000 1.0
C      1  0.5002570000000  0.5273980000000  0.5819470000000 1.0
C      1  0.5021050000000  0.4158780000000  0.4837690000000 1.0
C      1  0.4277640000000  0.5372290000000  0.4822730000000 1.0
C      1  0.4268980000000  0.4977570000000  0.5429930000000 1.0
C      1  0.4267600000000  0.4642800000000  0.4765630000000 1.0
C      1  0.5707060000000  0.5174070000000  0.4547610000000 1.0
C      1  0.5689760000000  0.5252650000000  0.5339360000000 1.0
C      1  0.5700870000000  0.4572010000000  0.5077250000000 1.0
C      1  0.5649450000000  0.4509770000000  0.4807980000000 1.0
C      1  0.5644580000000  0.5427630000000  0.4641420000000 1.0
C      1  0.5642900000000  0.5076540000000  0.5554930000000 1.0
C      1  0.5368110000000  0.5835210000000  0.4985800000000 1.0
C      1  0.5357690000000  0.4579530000000  0.5714160000000 1.0
C      1  0.5372030000000  0.4596180000000  0.4291290000000 1.0
C      1  0.5692730000000  0.4736030000000  0.4647840000000 1.0
C      1  0.5673660000000  0.5405820000000  0.4920800000000 1.0
C      1  0.5697090000000  0.4823850000000  0.5450480000000 1.0
C      1  0.4900010000000  0.4641060000000  0.5383830000000 1.0
C      1  0.4918440000000  0.4851290000000  0.4521150000000 1.0
C      1  0.4933110000000  0.5512980000000  0.5102340000000 1.0
C      1  0.5483750000000  0.5555480000000  0.5068150000000 1.0
C      1  0.5570170000000  0.4585710000000  0.5519860000000 1.0
C      1  0.5576880000000  0.4770420000000  0.4392190000000 1.0
C      1  0.5229690000000  0.4862940000000  0.5731020000000 1.0
C      1  0.5247190000000  0.4444550000000  0.4530790000000 1.0
C      1  0.5236600000000  0.5696540000000  0.4727020000000 1.0
C      1  0.4346010000000  0.4381030000000  0.4880820000000 1.0
C      1  0.4346150000000  0.5387680000000  0.4537110000000 1.0
C      1  0.4330640000000  0.5206790000000  0.5602540000000 1.0
C      1  0.5155140000000  0.5189090000000  0.4821710000000 1.0
C      1  0.5118830000000  0.5057960000000  0.5266290000000 1.0
C      1  0.5132370000000  0.4737190000000  0.4934730000000 1.0
C      1  0.5244420000000  0.4727570000000  0.4088030000000 1.0
C      1  0.5250860000000  0.5904130000000  0.5218990000000 1.0
C      1  0.5238690000000  0.4336910000000  0.5685730000000 1.0
C      1  0.4376670000000  0.5150800000000  0.4362470000000 1.0
C      1  0.4369650000000  0.5471560000000  0.5473430000000 1.0
C      1  0.4386570000000  0.4363240000000  0.5170930000000 1.0
C      1  0.4874460000000  0.4334850000000  0.5391110000000 1.0
C      1  0.4871610000000  0.4976910000000  0.4243410000000 1.0
C      1  0.4876460000000  0.5655650000000  0.5370830000000 1.0
C      1  0.4116560000000  0.4761430000000  0.4571920000000 1.0
C      1  0.4121090000000  0.5467290000000  0.5022890000000 1.0
C      1  0.4123920000000  0.4749290000000  0.5398800000000 1.0
C      1  0.5144630000000  0.5744550000000  0.5427870000000 1.0
C      1  0.5145470000000  0.4243710000000  0.5438650000000 1.0
C      1  0.5137660000000  0.4983820000000  0.4124700000000 1.0
C      1  0.4207220000000  0.4516650000000  0.5318720000000 1.0
C      1  0.4191320000000  0.4947750000000  0.4405770000000 1.0
C      1  0.4193470000000  0.5524050000000  0.5266320000000 1.0
C      1  0.4626110000000  0.5188100000000  0.5217730000000 1.0
C      1  0.4643320000000  0.4827970000000  0.5033740000000 1.0
C      1  0.4655970000000  0.5064070000000  0.4839740000000 1.0
C      1  0.4724870000000  0.5675650000000  0.4678870000000 1.0
C      1  0.4712520000000  0.4925740000000  0.5754380000000 1.0
C      1  0.4728890000000  0.4392730000000  0.4567190000000 1.0
C      1  0.5154320000000  0.4714790000000  0.4644060000000 1.0
C      1  0.5185210000000  0.5469890000000  0.4939740000000 1.0
C      1  0.5128470000000  0.4827600000000  0.5440060000000 1.0
C      1  0.5286570000000  0.4202330000000  0.4945620000000 1.0
C      1  0.5273720000000  0.5442160000000  0.4320470000000 1.0
C      1  0.5267930000000  0.5343660000000  0.5730070000000 1.0
C      1  0.4738570000000  0.5441220000000  0.4281220000000 1.0
C      1  0.4738210000000  0.5387990000000  0.5757140000000 1.0
C      1  0.4750620000000  0.4147410000000  0.4959480000000 1.0
C      1  0.5564780000000  0.5050310000000  0.4339490000000 1.0
C      1  0.5530960000000  0.5482810000000  0.5341960000000 1.0
C      1  0.5561680000000  0.4430780000000  0.5279880000000 1.0
C      1  0.4563960000000  0.5554260000000  0.4475120000000 1.0
C      1  0.4558050000000  0.5167920000000  0.5760880000000 1.0
C      1  0.4571560000000  0.4257610000000  0.4765720000000 1.0
C      1  0.4987750000000  0.5712610000000  0.4573980000000 1.0
C      1  0.4981390000000  0.4987700000000  0.5832450000000 1.0
C      1  0.4999240000000  0.4293920000000  0.4586470000000 1.0
C      1  0.4538550000000  0.5304750000000  0.4955780000000 1.0
C      1  0.4533020000000  0.4926330000000  0.5294930000000 1.0
C      1  0.4520290000000  0.4795330000000  0.4769140000000 1.0
C      1  0.4661510000000  0.4236700000000  0.5221750000000 1.0
C      1  0.4654150000000  0.5165720000000  0.4237200000000 1.0
C      1  0.4659980000000  0.5567360000000  0.5539560000000 1.0
C      1  0.5766940000000  0.4833590000000  0.5176420000000 1.0
C      1  0.5768530000000  0.4991150000000  0.4754430000000 1.0
C      1  0.5763230000000  0.5119650000000  0.5047220000000 1.0
C      1  0.4887830000000  0.4683130000000  0.5076550000000 1.0
C      1  0.4907630000000  0.5099040000000  0.4701310000000 1.0
C      1  0.4903970000000  0.5244870000000  0.5247040000000 1.0
C      1  0.5340920000000  0.5177480000000  0.4219420000000 1.0
C      1  0.5334310000000  0.5547960000000  0.5536690000000 1.0
C      1  0.5351230000000  0.4247640000000  0.5225570000000 1.0
C      1  0.4704900000000  0.5545090000000  0.4925920000000 1.0
C      1  0.4681960000000  0.4788530000000  0.5508140000000 1.0
C      1  0.4691840000000  0.4673650000000  0.4570990000000 1.0
C      1  0.5222790000000  0.4992970000000  0.5012580000000 1.0
END
