TITL C-71083-5520-5 0.0761234745430861 125000 -279.104193518822 0 0 42 (C1) n - 1
REM
REM in /rds/project/t2_vol4/rds-t2-cs072/BORA/CARBON/from-Arr/AIRSS/Generating-Clusters/GAP-ML-2020/Higher-Symm/SD-CG/HFTN-CG
REM
REM
REM
REM
REM
REM ./C.cell (b20cbc046b6831c77cfcea5457e17084)
REM AIRSS Version 0.9.1 bugfix July 2018 build 013d7b7c2542+ Fri, 06 Jul 2018 19:26:36 +0100
REM compiler GCC version 9.3.0
REM options -cpp -mtune=generic -march=x86-64 -g -O0
REM seed -1462131698 -374218219 395471374 -1696954843 517445856 -385072466 -311901519 550278833 1453100431 -1095905374 -727335569 -524541219 1630935810 921917894 1848123351 -1448626709 -1210915568 469610773 -78258813 -1962819034 402281447 -931847633 -1293605732 126899007 -391667835 1994132485 -1987824828 -888903186 -975902358 1208523284 791950932 239978320 -117887271
REM
CELL 1.54180   50.00000   50.00000   50.00000   90.00000   90.00000   90.00000
LATT -1
SFAC C  
C      1  0.5235840000000  0.5483810000000  0.5102350000000 1.0
C      1  0.5218480000000  0.4598190000000  0.5522450000000 1.0
C      1  0.4408170000000  0.4657070000000  0.5179580000000 1.0
C      1  0.5203080000000  0.4768370000000  0.5720020000000 1.0
C      1  0.5091460000000  0.5012770000000  0.5058360000000 1.0
C      1  0.5492650000000  0.4705880000000  0.5153230000000 1.0
C      1  0.5443610000000  0.5132950000000  0.5431650000000 1.0
C      1  0.5310820000000  0.5034910000000  0.4567800000000 1.0
C      1  0.5150530000000  0.5742140000000  0.5075470000000 1.0
C      1  0.5051400000000  0.5112120000000  0.5338550000000 1.0
C      1  0.5101190000000  0.4582260000000  0.4559060000000 1.0
C      1  0.4583360000000  0.4487090000000  0.5022530000000 1.0
C      1  0.5137890000000  0.5541580000000  0.4524750000000 1.0
C      1  0.5269280000000  0.5331650000000  0.5330830000000 1.0
C      1  0.5226780000000  0.5301190000000  0.4632780000000 1.0
C      1  0.5474830000000  0.4678440000000  0.4864360000000 1.0
C      1  0.5113870000000  0.4455100000000  0.5046270000000 1.0
C      1  0.5576610000000  0.5093510000000  0.4971270000000 1.0
C      1  0.5260200000000  0.4511230000000  0.4794610000000 1.0
C      1  0.4720020000000  0.5594900000000  0.5034180000000 1.0
C      1  0.4806170000000  0.5392910000000  0.4814930000000 1.0
C      1  0.4456370000000  0.4817190000000  0.5389840000000 1.0
C      1  0.4482740000000  0.4613390000000  0.4769240000000 1.0
C      1  0.4730320000000  0.5488380000000  0.5278110000000 1.0
C      1  0.5083210000000  0.4870730000000  0.4547060000000 1.0
C      1  0.4875720000000  0.4845090000000  0.4967330000000 1.0
C      1  0.5104800000000  0.5286260000000  0.4905370000000 1.0
C      1  0.5288010000000  0.4543210000000  0.5264590000000 1.0
C      1  0.4355670000000  0.4811700000000  0.4925460000000 1.0
C      1  0.4806440000000  0.4927170000000  0.4649200000000 1.0
C      1  0.5222280000000  0.4984320000000  0.5556480000000 1.0
C      1  0.4849720000000  0.4493800000000  0.4491570000000 1.0
C      1  0.4854680000000  0.4562950000000  0.5040200000000 1.0
C      1  0.5507820000000  0.4937630000000  0.4751730000000 1.0
C      1  0.5549740000000  0.4976920000000  0.5219460000000 1.0
C      1  0.4925520000000  0.5784980000000  0.4918010000000 1.0
C      1  0.4661220000000  0.4683620000000  0.4568980000000 1.0
C      1  0.4652780000000  0.5165270000000  0.4756030000000 1.0
C      1  0.4552300000000  0.5056350000000  0.5275840000000 1.0
C      1  0.4926980000000  0.5635850000000  0.4661090000000 1.0
C      1  0.4468750000000  0.5068750000000  0.4963150000000 1.0
C      1  0.4768690000000  0.5228420000000  0.5356220000000 1.0
END
