TITL C-71075-5756-8 -0.0384644422300527 125000 -921.733796111844 0 0 134 (C1) n - 1
REM
REM in /rds/project/t2_vol4/rds-t2-cs072/BORA/CARBON/from-Arr/AIRSS/Generating-Clusters/GAP-ML-2020/Higher-Symm/SD-CG/HFTN-CG
REM
REM
REM
REM
REM
REM ./C.cell (b20cbc046b6831c77cfcea5457e17084)
REM AIRSS Version 0.9.1 bugfix July 2018 build 013d7b7c2542+ Fri, 06 Jul 2018 19:26:36 +0100
REM compiler GCC version 9.3.0
REM options -cpp -mtune=generic -march=x86-64 -g -O0
REM seed -369319975 381665055 1338912145 -1526385681 23957955 -1164248885 1845392872 -662776263 371377344 -506931967 1064256977 -224140713 83377880 -145143687 240434971 868751620 -1503720342 -77938801 -2100471660 -2064908871 -205906955 717389589 2115217845 94468517 1956889049 373796694 -933867101 1290834376 1243282147 370892382 497260462 -505654070 -2087458752
REM
CELL 1.54180   50.00000   50.00000   50.00000   90.00000   90.00000   90.00000
LATT -1
SFAC C  
C      1  0.5770190000000  0.4389210000000  0.4959150000000 1.0
C      1  0.4279650000000  0.4338570000000  0.4932160000000 1.0
C      1  0.5100460000000  0.6015850000000  0.4704950000000 1.0
C      1  0.4819270000000  0.5991740000000  0.4698140000000 1.0
C      1  0.4455080000000  0.4481500000000  0.4730920000000 1.0
C      1  0.5593140000000  0.4520530000000  0.4751580000000 1.0
C      1  0.4685960000000  0.5060470000000  0.4603900000000 1.0
C      1  0.5329040000000  0.5082130000000  0.4616610000000 1.0
C      1  0.5324220000000  0.4279550000000  0.4416640000000 1.0
C      1  0.4752140000000  0.4259440000000  0.4406400000000 1.0
C      1  0.5174100000000  0.4957210000000  0.4129290000000 1.0
C      1  0.4865460000000  0.4945600000000  0.4122850000000 1.0
C      1  0.4275530000000  0.5387370000000  0.5543060000000 1.0
C      1  0.5681140000000  0.5433950000000  0.5569110000000 1.0
C      1  0.5220110000000  0.5826160000000  0.4522490000000 1.0
C      1  0.4728090000000  0.5809240000000  0.4500950000000 1.0
C      1  0.4856120000000  0.4654430000000  0.5534480000000 1.0
C      1  0.5151820000000  0.4664400000000  0.5539800000000 1.0
C      1  0.4870800000000  0.5249830000000  0.4051400000000 1.0
C      1  0.5149250000000  0.5260600000000  0.4058120000000 1.0
C      1  0.4708300000000  0.5629080000000  0.5409430000000 1.0
C      1  0.5237800000000  0.5647330000000  0.5419550000000 1.0
C      1  0.4411910000000  0.5020220000000  0.4716810000000 1.0
C      1  0.5600890000000  0.5060560000000  0.4738580000000 1.0
C      1  0.5146810000000  0.4927800000000  0.5715590000000 1.0
C      1  0.4836820000000  0.4917050000000  0.5710080000000 1.0
C      1  0.5284900000000  0.4448030000000  0.4823140000000 1.0
C      1  0.4764670000000  0.4430170000000  0.4813730000000 1.0
C      1  0.5467320000000  0.5067230000000  0.5318190000000 1.0
C      1  0.4522270000000  0.5035180000000  0.5300790000000 1.0
C      1  0.5177140000000  0.4398620000000  0.4202490000000 1.0
C      1  0.4898380000000  0.4388800000000  0.4197480000000 1.0
C      1  0.5938040000000  0.5229300000000  0.5198320000000 1.0
C      1  0.4046760000000  0.5165840000000  0.5163620000000 1.0
C      1  0.4190490000000  0.4981600000000  0.5631020000000 1.0
C      1  0.5790070000000  0.5034840000000  0.5660250000000 1.0
C      1  0.4672920000000  0.5127320000000  0.5570670000000 1.0
C      1  0.5300540000000  0.5149230000000  0.5581840000000 1.0
C      1  0.5286720000000  0.4653990000000  0.4119510000000 1.0
C      1  0.4774470000000  0.4635840000000  0.4109920000000 1.0
C      1  0.5501590000000  0.4691650000000  0.4293970000000 1.0
C      1  0.4551510000000  0.4658220000000  0.4276850000000 1.0
C      1  0.5164700000000  0.5334030000000  0.4651430000000 1.0
C      1  0.4833370000000  0.5323380000000  0.4644520000000 1.0
C      1  0.4882740000000  0.4183970000000  0.4690290000000 1.0
C      1  0.5188710000000  0.4194480000000  0.4695880000000 1.0
C      1  0.5876900000000  0.5245710000000  0.5480070000000 1.0
C      1  0.4096350000000  0.5186330000000  0.5447480000000 1.0
C      1  0.5517670000000  0.4798580000000  0.5258090000000 1.0
C      1  0.4492630000000  0.4763950000000  0.5238790000000 1.0
C      1  0.6005200000000  0.4961000000000  0.5142200000000 1.0
C      1  0.4000450000000  0.4893610000000  0.5105310000000 1.0
C      1  0.4186010000000  0.5352820000000  0.4978630000000 1.0
C      1  0.5792650000000  0.5406250000000  0.5008200000000 1.0
C      1  0.4482070000000  0.4633590000000  0.5789750000000 1.0
C      1  0.5516820000000  0.4667870000000  0.5808740000000 1.0
C      1  0.5745840000000  0.5363250000000  0.4461440000000 1.0
C      1  0.4253640000000  0.5308940000000  0.4433620000000 1.0
C      1  0.5176970000000  0.4440770000000  0.5108200000000 1.0
C      1  0.4862190000000  0.4430090000000  0.5102540000000 1.0
C      1  0.5540500000000  0.4462500000000  0.4460320000000 1.0
C      1  0.4522300000000  0.4426920000000  0.4441940000000 1.0
C      1  0.5320000000000  0.5621220000000  0.4972010000000 1.0
C      1  0.4644730000000  0.5596890000000  0.4958060000000 1.0
C      1  0.5147920000000  0.4915130000000  0.5076930000000 1.0
C      1  0.4859630000000  0.4905450000000  0.5071760000000 1.0
C      1  0.5287490000000  0.5495530000000  0.4162740000000 1.0
C      1  0.4710000000000  0.5472900000000  0.4145520000000 1.0
C      1  0.5177430000000  0.6066880000000  0.4991240000000 1.0
C      1  0.4709100000000  0.6003220000000  0.4979710000000 1.0
C      1  0.4839560000000  0.5748860000000  0.5654730000000 1.0
C      1  0.5091090000000  0.5758560000000  0.5657060000000 1.0
C      1  0.5763960000000  0.4750880000000  0.5688440000000 1.0
C      1  0.4234580000000  0.4699960000000  0.5660310000000 1.0
C      1  0.4008170000000  0.4627260000000  0.5245660000000 1.0
C      1  0.6009990000000  0.4694520000000  0.5282420000000 1.0
C      1  0.5302130000000  0.5611250000000  0.4671630000000 1.0
C      1  0.4676610000000  0.5590660000000  0.4658270000000 1.0
C      1  0.5166500000000  0.4900770000000  0.4774060000000 1.0
C      1  0.4853530000000  0.4890340000000  0.4768240000000 1.0
C      1  0.5536980000000  0.5599740000000  0.5393400000000 1.0
C      1  0.4413300000000  0.5564140000000  0.5372350000000 1.0
C      1  0.4239530000000  0.5251280000000  0.4712470000000 1.0
C      1  0.5756200000000  0.5303280000000  0.4739730000000 1.0
C      1  0.4372360000000  0.5543090000000  0.5092630000000 1.0
C      1  0.5588370000000  0.5581070000000  0.5114950000000 1.0
C      1  0.5716760000000  0.4805130000000  0.4755120000000 1.0
C      1  0.4312940000000  0.4757300000000  0.4729340000000 1.0
C      1  0.4708660000000  0.4178680000000  0.5193580000000 1.0
C      1  0.5343730000000  0.4200120000000  0.5205000000000 1.0
C      1  0.4412030000000  0.5177110000000  0.5730150000000 1.0
C      1  0.5552040000000  0.5215140000000  0.5750900000000 1.0
C      1  0.5240240000000  0.5177260000000  0.5162050000000 1.0
C      1  0.4747120000000  0.5161340000000  0.5153090000000 1.0
C      1  0.4882730000000  0.4632460000000  0.4650810000000 1.0
C      1  0.5159020000000  0.4641770000000  0.4655760000000 1.0
C      1  0.5258780000000  0.4693700000000  0.5245150000000 1.0
C      1  0.4758240000000  0.4676780000000  0.5236030000000 1.0
C      1  0.5632170000000  0.5184340000000  0.4276620000000 1.0
C      1  0.4386320000000  0.5137910000000  0.4254090000000 1.0
C      1  0.5173390000000  0.4032980000000  0.4976040000000 1.0
C      1  0.4898400000000  0.4023680000000  0.4970790000000 1.0
C      1  0.4834460000000  0.5333290000000  0.5413380000000 1.0
C      1  0.5130460000000  0.5343630000000  0.5417810000000 1.0
C      1  0.4601560000000  0.4240160000000  0.5488910000000 1.0
C      1  0.5435400000000  0.4268070000000  0.5503860000000 1.0
C      1  0.4053980000000  0.4490170000000  0.4998510000000 1.0
C      1  0.5982710000000  0.4555330000000  0.5033680000000 1.0
C      1  0.4846000000000  0.5705850000000  0.4255490000000 1.0
C      1  0.5128020000000  0.5716480000000  0.4267050000000 1.0
C      1  0.5557060000000  0.5446800000000  0.4250390000000 1.0
C      1  0.4441810000000  0.5404440000000  0.4226370000000 1.0
C      1  0.5344780000000  0.4479130000000  0.5664960000000 1.0
C      1  0.4671590000000  0.4456710000000  0.5652860000000 1.0
C      1  0.5470800000000  0.5124140000000  0.6006300000000 1.0
C      1  0.4490470000000  0.5091870000000  0.5988280000000 1.0
C      1  0.5136540000000  0.5795200000000  0.5141060000000 1.0
C      1  0.4808440000000  0.5768260000000  0.5143410000000 1.0
C      1  0.4625280000000  0.4856620000000  0.5916570000000 1.0
C      1  0.5354450000000  0.4880880000000  0.5929570000000 1.0
C      1  0.4837070000000  0.5355470000000  0.4955840000000 1.0
C      1  0.5145820000000  0.5369150000000  0.4963650000000 1.0
C      1  0.5867620000000  0.4566350000000  0.5495150000000 1.0
C      1  0.4150780000000  0.4508770000000  0.5463800000000 1.0
C      1  0.4327640000000  0.4278400000000  0.5405570000000 1.0
C      1  0.5709030000000  0.4324800000000  0.5430580000000 1.0
C      1  0.4620420000000  0.4955170000000  0.4321000000000 1.0
C      1  0.5410940000000  0.4983440000000  0.4335670000000 1.0
C      1  0.4731340000000  0.6268300000000  0.5088630000000 1.0
C      1  0.4987950000000  0.6252710000000  0.5076080000000 1.0
C      1  0.5958870000000  0.4807690000000  0.4900040000000 1.0
C      1  0.4065870000000  0.4743540000000  0.4865380000000 1.0
C      1  0.4414300000000  0.4207750000000  0.5139000000000 1.0
C      1  0.5637250000000  0.4249150000000  0.5160990000000 1.0
END
