TITL C-71070-6216-1 -0.370984160925263 125000 -594.013507955416 0 0 86 (C1) n - 1
REM
REM in /rds/project/t2_vol4/rds-t2-cs072/BORA/CARBON/from-Arr/AIRSS/Generating-Clusters/GAP-ML-2020/Higher-Symm/SD-CG/HFTN-CG
REM
REM
REM
REM
REM
REM ./C.cell (b20cbc046b6831c77cfcea5457e17084)
REM AIRSS Version 0.9.1 bugfix July 2018 build 013d7b7c2542+ Fri, 06 Jul 2018 19:26:36 +0100
REM compiler GCC version 9.3.0
REM options -cpp -mtune=generic -march=x86-64 -g -O0
REM seed -745642266 1444379645 -1596569382 129001724 -183077809 307933345 -1935433046 -1040804486 -2025264770 -214559932 -1069259039 -872890963 -481795621 -1759673602 -435744511 -995567041 1380263779 -2126208397 -883778253 1447433917 1867814034 264944723 372761506 1842243906 -1424625871 899434554 -409052367 -320935055 1605636895 -424605103 -2088976103 -1962707347 -1970867163
REM
CELL 1.54180   50.00000   50.00000   50.00000   90.00000   90.00000   90.00000
LATT -1
SFAC C  
C      1  0.4511910000000  0.5061860000000  0.5053690000000 1.0
C      1  0.4760450000000  0.4401860000000  0.4536120000000 1.0
C      1  0.5352780000000  0.5233350000000  0.4443760000000 1.0
C      1  0.5819680000000  0.5185850000000  0.5036790000000 1.0
C      1  0.5797330000000  0.4651380000000  0.4862160000000 1.0
C      1  0.4634300000000  0.5640110000000  0.4624880000000 1.0
C      1  0.5322230000000  0.5493810000000  0.5494740000000 1.0
C      1  0.4869630000000  0.5577120000000  0.5513830000000 1.0
C      1  0.4904240000000  0.4373390000000  0.5312930000000 1.0
C      1  0.5412310000000  0.4390620000000  0.5188370000000 1.0
C      1  0.5029180000000  0.4685190000000  0.4800910000000 1.0
C      1  0.5224100000000  0.4274630000000  0.4721580000000 1.0
C      1  0.5046170000000  0.5001040000000  0.5931590000000 1.0
C      1  0.4320230000000  0.5369020000000  0.5534310000000 1.0
C      1  0.4907070000000  0.5301250000000  0.5629330000000 1.0
C      1  0.4969200000000  0.5185410000000  0.4908330000000 1.0
C      1  0.4871380000000  0.4531980000000  0.4314740000000 1.0
C      1  0.5426210000000  0.4843230000000  0.5597850000000 1.0
C      1  0.5484600000000  0.5362930000000  0.5306030000000 1.0
C      1  0.5001020000000  0.5243250000000  0.5184230000000 1.0
C      1  0.4876670000000  0.4844260000000  0.4345880000000 1.0
C      1  0.5097130000000  0.5636430000000  0.4604290000000 1.0
C      1  0.4588240000000  0.4954890000000  0.5768880000000 1.0
C      1  0.5489400000000  0.5560830000000  0.4827680000000 1.0
C      1  0.5151940000000  0.4523590000000  0.4283460000000 1.0
C      1  0.5224400000000  0.5674170000000  0.4860390000000 1.0
C      1  0.4783600000000  0.4443310000000  0.5034300000000 1.0
C      1  0.4515820000000  0.4727840000000  0.5399980000000 1.0
C      1  0.4556850000000  0.5651430000000  0.4902810000000 1.0
C      1  0.5766430000000  0.4869210000000  0.4675150000000 1.0
C      1  0.5302660000000  0.5147660000000  0.5192800000000 1.0
C      1  0.5173080000000  0.4811430000000  0.4271410000000 1.0
C      1  0.4658440000000  0.5659280000000  0.5348510000000 1.0
C      1  0.5605630000000  0.4790440000000  0.4453350000000 1.0
C      1  0.4568650000000  0.5025680000000  0.5333900000000 1.0
C      1  0.4761130000000  0.5732320000000  0.5090670000000 1.0
C      1  0.5718570000000  0.5646940000000  0.4962360000000 1.0
C      1  0.5288870000000  0.4803030000000  0.4855470000000 1.0
C      1  0.4490680000000  0.5176660000000  0.4363200000000 1.0
C      1  0.4803540000000  0.5117220000000  0.5852360000000 1.0
C      1  0.4235720000000  0.4696150000000  0.5311730000000 1.0
C      1  0.4879420000000  0.4748770000000  0.5058260000000 1.0
C      1  0.5107110000000  0.5656210000000  0.5383610000000 1.0
C      1  0.4869820000000  0.5784310000000  0.4580120000000 1.0
C      1  0.4624520000000  0.5434460000000  0.4419860000000 1.0
C      1  0.5726490000000  0.4714950000000  0.5137470000000 1.0
C      1  0.4949640000000  0.4375360000000  0.4773830000000 1.0
C      1  0.5656710000000  0.4511620000000  0.5353540000000 1.0
C      1  0.4263320000000  0.4619270000000  0.5030240000000 1.0
C      1  0.5276750000000  0.5032800000000  0.5774000000000 1.0
C      1  0.5805700000000  0.4974720000000  0.5199220000000 1.0
C      1  0.4404630000000  0.5526260000000  0.5329990000000 1.0
C      1  0.5601110000000  0.4635620000000  0.5588480000000 1.0
C      1  0.4755070000000  0.4992660000000  0.4896910000000 1.0
C      1  0.4316030000000  0.4734780000000  0.4569840000000 1.0
C      1  0.4509180000000  0.4495510000000  0.4925730000000 1.0
C      1  0.4635250000000  0.4696660000000  0.5655120000000 1.0
C      1  0.5740240000000  0.5130340000000  0.4765360000000 1.0
C      1  0.4297410000000  0.5021930000000  0.4493540000000 1.0
C      1  0.4296020000000  0.5222850000000  0.4958910000000 1.0
C      1  0.4163870000000  0.5073870000000  0.4754450000000 1.0
C      1  0.5288920000000  0.4875150000000  0.5322060000000 1.0
C      1  0.5402110000000  0.4707390000000  0.5110510000000 1.0
C      1  0.4744070000000  0.5080520000000  0.4250930000000 1.0
C      1  0.5170100000000  0.4316300000000  0.5312110000000 1.0
C      1  0.5484140000000  0.5274210000000  0.4706650000000 1.0
C      1  0.5654060000000  0.4434820000000  0.4760530000000 1.0
C      1  0.5202240000000  0.5299720000000  0.5671270000000 1.0
C      1  0.4363260000000  0.5093350000000  0.5568020000000 1.0
C      1  0.4361180000000  0.5489440000000  0.5043040000000 1.0
C      1  0.4159440000000  0.4779410000000  0.4810280000000 1.0
C      1  0.4161280000000  0.4884590000000  0.5489730000000 1.0
C      1  0.5702970000000  0.5433640000000  0.5136340000000 1.0
C      1  0.4852600000000  0.4600520000000  0.5493240000000 1.0
C      1  0.5271060000000  0.5092840000000  0.4889300000000 1.0
C      1  0.4793450000000  0.4817430000000  0.4650880000000 1.0
C      1  0.4850330000000  0.5094300000000  0.5384580000000 1.0
C      1  0.5451140000000  0.4295280000000  0.4901960000000 1.0
C      1  0.4986370000000  0.4825660000000  0.5335940000000 1.0
C      1  0.5395430000000  0.4962610000000  0.4347270000000 1.0
C      1  0.5563950000000  0.4507620000000  0.4498090000000 1.0
C      1  0.5055230000000  0.5729270000000  0.5097030000000 1.0
C      1  0.5131490000000  0.5411940000000  0.4413010000000 1.0
C      1  0.5315650000000  0.4381180000000  0.4462020000000 1.0
C      1  0.4564670000000  0.4592370000000  0.4655000000000 1.0
C      1  0.4875060000000  0.5337410000000  0.4306980000000 1.0
END
