TITL C-71058-5695-5 -0.149761069915447 125000 -866.076639043267 0 0 127 (C3) n - 1
REM
REM in /rds/project/t2_vol4/rds-t2-cs072/BORA/CARBON/from-Arr/AIRSS/Generating-Clusters/GAP-ML-2020/Higher-Symm/SD-CG/HFTN-CG
REM
REM
REM
REM
REM
REM ./C.cell (b20cbc046b6831c77cfcea5457e17084)
REM AIRSS Version 0.9.1 bugfix July 2018 build 013d7b7c2542+ Fri, 06 Jul 2018 19:26:36 +0100
REM compiler GCC version 9.3.0
REM options -cpp -mtune=generic -march=x86-64 -g -O0
REM seed 2071080929 -1767931130 -1129025254 -1087714691 -1867618969 641632059 530080678 -1562058291 -926874697 -400819450 -1732839199 -1020567914 -1309722619 -1525044964 -981207269 1973901256 535308305 1630437538 -1175933044 246070597 -1676500236 1234034485 -1205029506 -1580134359 -351833666 2091426226 1682792535 1543077012 2098786955 1609953020 -61387313 -1092189378 -1380279719
REM
CELL 1.54180   50.00000   50.00000   50.00000   90.00000   90.00000   90.00000
LATT -1
SFAC C  
C      1  0.5084340000000  0.5855370000000  0.5423300000000 1.0
C      1  0.4218900000000  0.4649210000000  0.5423370000000 1.0
C      1  0.5696180000000  0.4502800000000  0.5423210000000 1.0
C      1  0.5069210000000  0.5821980000000  0.4547370000000 1.0
C      1  0.4255250000000  0.4652910000000  0.4547440000000 1.0
C      1  0.5674670000000  0.4532530000000  0.4547290000000 1.0
C      1  0.4855960000000  0.4505810000000  0.4768350000000 1.0
C      1  0.5501740000000  0.5126290000000  0.4768290000000 1.0
C      1  0.4641500000000  0.5375310000000  0.4768390000000 1.0
C      1  0.4843120000000  0.4530950000000  0.5237080000000 1.0
C      1  0.5486470000000  0.5102550000000  0.5237020000000 1.0
C      1  0.4669770000000  0.5373900000000  0.5237110000000 1.0
C      1  0.5572030000000  0.5495390000000  0.4363440000000 1.0
C      1  0.4286650000000  0.5251680000000  0.4363570000000 1.0
C      1  0.5140400000000  0.4260360000000  0.4363460000000 1.0
C      1  0.5571140000000  0.5434800000000  0.5641910000000 1.0
C      1  0.4339750000000  0.5281060000000  0.5642040000000 1.0
C      1  0.5088590000000  0.4291520000000  0.5641950000000 1.0
C      1  0.4906490000000  0.5666530000000  0.4369830000000 1.0
C      1  0.4471210000000  0.4589740000000  0.4369860000000 1.0
C      1  0.5621370000000  0.4751170000000  0.4369740000000 1.0
C      1  0.4929720000000  0.5740600000000  0.5632040000000 1.0
C      1  0.4395630000000  0.4572670000000  0.5632080000000 1.0
C      1  0.5674130000000  0.4694100000000  0.5631950000000 1.0
C      1  0.5076790000000  0.5499630000000  0.5683560000000 1.0
C      1  0.4530790000000  0.4820520000000  0.5683600000000 1.0
C      1  0.5391920000000  0.4687230000000  0.5683510000000 1.0
C      1  0.4949750000000  0.5378020000000  0.4408810000000 1.0
C      1  0.4699440000000  0.4771450000000  0.4408830000000 1.0
C      1  0.5349900000000  0.4857960000000  0.4408760000000 1.0
C      1  0.4385420000000  0.5688420000000  0.4854240000000 1.0
C      1  0.4712860000000  0.4127480000000  0.4854180000000 1.0
C      1  0.5900950000000  0.5191520000000  0.4854070000000 1.0
C      1  0.4386670000000  0.5696610000000  0.5138510000000 1.0
C      1  0.4705180000000  0.4124430000000  0.5138450000000 1.0
C      1  0.5907470000000  0.5186360000000  0.5138330000000 1.0
C      1  0.5196610000000  0.4253880000000  0.5375960000000 1.0
C      1  0.5549680000000  0.5547200000000  0.5375940000000 1.0
C      1  0.4253100000000  0.5206310000000  0.5376070000000 1.0
C      1  0.5229230000000  0.4237370000000  0.4640020000000 1.0
C      1  0.5547570000000  0.5583790000000  0.4640010000000 1.0
C      1  0.4222360000000  0.5186260000000  0.4640140000000 1.0
C      1  0.4830810000000  0.5837630000000  0.4709390000000 1.0
C      1  0.4360920000000  0.4438610000000  0.4709420000000 1.0
C      1  0.5807460000000  0.4731180000000  0.4709270000000 1.0
C      1  0.4840470000000  0.5854140000000  0.5267360000000 1.0
C      1  0.4341870000000  0.4438650000000  0.5267390000000 1.0
C      1  0.5817020000000  0.4714600000000  0.5267240000000 1.0
C      1  0.5344100000000  0.4644950000000  0.5159610000000 1.0
C      1  0.5137230000000  0.5479410000000  0.5159640000000 1.0
C      1  0.4518000000000  0.4883030000000  0.5159700000000 1.0
C      1  0.5336930000000  0.4648710000000  0.4838630000000 1.0
C      1  0.5137510000000  0.5471370000000  0.4838660000000 1.0
C      1  0.4524780000000  0.4887330000000  0.4838720000000 1.0
C      1  0.5372410000000  0.5556550000000  0.4180300000000 1.0
C      1  0.4333470000000  0.5048250000000  0.4180400000000 1.0
C      1  0.5293130000000  0.4402650000000  0.4180290000000 1.0
C      1  0.5354470000000  0.5519080000000  0.5801070000000 1.0
C      1  0.4375120000000  0.5051260000000  0.5801170000000 1.0
C      1  0.5269940000000  0.4437020000000  0.5801060000000 1.0
C      1  0.4684840000000  0.5299920000000  0.4060120000000 1.0
C      1  0.4899480000000  0.4581130000000  0.4060080000000 1.0
C      1  0.5414650000000  0.5126410000000  0.4060040000000 1.0
C      1  0.4709030000000  0.5325670000000  0.5947400000000 1.0
C      1  0.4865360000000  0.4588980000000  0.5947370000000 1.0
C      1  0.5425190000000  0.5092710000000  0.5947320000000 1.0
C      1  0.4594170000000  0.5069780000000  0.5996810000000 1.0
C      1  0.5144400000000  0.4617450000000  0.5996740000000 1.0
C      1  0.5261020000000  0.5320130000000  0.5996740000000 1.0
C      1  0.4580330000000  0.5031960000000  0.4040270000000 1.0
C      1  0.5183800000000  0.4624600000000  0.4040200000000 1.0
C      1  0.5234850000000  0.5350900000000  0.4040200000000 1.0
C      1  0.5608540000000  0.5206310000000  0.4288310000000 1.0
C      1  0.4518730000000  0.5427850000000  0.4288430000000 1.0
C      1  0.4871780000000  0.4373280000000  0.4288370000000 1.0
C      1  0.5637920000000  0.5167280000000  0.5742050000000 1.0
C      1  0.4538050000000  0.5472640000000  0.5742170000000 1.0
C      1  0.4823540000000  0.4367450000000  0.5742120000000 1.0
C      1  0.5647930000000  0.5365270000000  0.4849650000000 1.0
C      1  0.4361460000000  0.5382420000000  0.4849790000000 1.0
C      1  0.4989840000000  0.4259730000000  0.4849700000000 1.0
C      1  0.5647090000000  0.5349100000000  0.5165270000000 1.0
C      1  0.4375930000000  0.5389740000000  0.5165410000000 1.0
C      1  0.4976310000000  0.4268560000000  0.5165330000000 1.0
C      1  0.4693070000000  0.4806450000000  0.5938950000000 1.0
C      1  0.5323000000000  0.4834770000000  0.5938890000000 1.0
C      1  0.4983510000000  0.5366140000000  0.5938930000000 1.0
C      1  0.4706770000000  0.4783330000000  0.4116740000000 1.0
C      1  0.5335910000000  0.4858410000000  0.4116670000000 1.0
C      1  0.4956320000000  0.5365720000000  0.4116720000000 1.0
C      1  0.4716230000000  0.5000100000000  0.4615260000000 1.0
C      1  0.5143520000000  0.4758150000000  0.4615210000000 1.0
C      1  0.5139410000000  0.5249170000000  0.4615220000000 1.0
C      1  0.4716760000000  0.4930580000000  0.5416460000000 1.0
C      1  0.5203570000000  0.4793280000000  0.5416400000000 1.0
C      1  0.5079080000000  0.5283520000000  0.5416420000000 1.0
C      1  0.5794920000000  0.4967150000000  0.5609570000000 1.0
C      1  0.4632850000000  0.5708690000000  0.5609710000000 1.0
C      1  0.4571690000000  0.4331540000000  0.5609690000000 1.0
C      1  0.5794110000000  0.4990420000000  0.4382300000000 1.0
C      1  0.4612930000000  0.5696500000000  0.4382440000000 1.0
C      1  0.4592040000000  0.4320520000000  0.4382420000000 1.0
C      1  0.5290420000000  0.5688510000000  0.4693900000000 1.0
C      1  0.4260250000000  0.4911200000000  0.4694000000000 1.0
C      1  0.5448510000000  0.4407700000000  0.4693860000000 1.0
C      1  0.5304750000000  0.5685600000000  0.5298000000000 1.0
C      1  0.4255690000000  0.4925000000000  0.5298100000000 1.0
C      1  0.5438920000000  0.4396790000000  0.5297970000000 1.0
C      1  0.5577050000000  0.4839160000000  0.5137220000000 1.0
C      1  0.4852570000000  0.5584060000000  0.5137310000000 1.0
C      1  0.4569700000000  0.4584180000000  0.5137320000000 1.0
C      1  0.5568510000000  0.4848420000000  0.4852890000000 1.0
C      1  0.4848770000000  0.5572060000000  0.4852980000000 1.0
C      1  0.4581950000000  0.4586930000000  0.4852990000000 1.0
C      1  0.4561250000000  0.5823770000000  0.5352840000000 1.0
C      1  0.4507800000000  0.4212020000000  0.5352820000000 1.0
C      1  0.5930340000000  0.4971600000000  0.5352680000000 1.0
C      1  0.4550870000000  0.5819600000000  0.4631740000000 1.0
C      1  0.4516490000000  0.4205200000000  0.4631720000000 1.0
C      1  0.5931790000000  0.4982630000000  0.4631580000000 1.0
C      1  0.5264450000000  0.5073440000000  0.5399930000000 1.0
C      1  0.4806010000000  0.5196170000000  0.5399980000000 1.0
C      1  0.4928940000000  0.4737780000000  0.5399960000000 1.0
C      1  0.5394250000000  0.5135650000000  0.4507690000000 1.0
C      1  0.4687100000000  0.5277570000000  0.4507770000000 1.0
C      1  0.4917770000000  0.4594210000000  0.4507730000000 1.0
C      1  0.4999730000000  0.5002470000000  0.4688270000000 1.0
END
