TITL C-71062-7616-2 123.100742243905 125000 -381.027852749064 0 0 58 (Cs) n - 1
REM
REM in /rds/project/t2_vol4/rds-t2-cs072/BORA/CARBON/from-Arr/AIRSS/Generating-Clusters/GAP-ML-2020/Higher-Symm/SD-CG/HFTN-CG
REM
REM
REM
REM
REM
REM ./C.cell (b20cbc046b6831c77cfcea5457e17084)
REM AIRSS Version 0.9.1 bugfix July 2018 build 013d7b7c2542+ Fri, 06 Jul 2018 19:26:36 +0100
REM compiler GCC version 9.3.0
REM options -cpp -mtune=generic -march=x86-64 -g -O0
REM seed -659454811 109525036 -692177133 -1291304616 -1570064781 -916025407 1557061925 -588554170 1959846885 431837096 698738993 617122802 -1586948925 -1016629301 -248932950 1274601934 -2031543692 -1564116931 -80339605 -1714559103 -1564822414 390123904 -1906609342 -1122232744 -360974836 1584043589 -899241810 1047797549 -169873543 -1329231299 -534758380 -412694121 120800514
REM
CELL 1.54180   50.00000   50.00000   50.00000   90.00000   90.00000   90.00000
LATT -1
SFAC C  
C      1  0.4377550000000  0.5286380000000  0.5088910000000 1.0
C      1  0.4848280000000  0.5650210000000  0.5077680000000 1.0
C      1  0.5398180000000  0.5491840000000  0.5052210000000 1.0
C      1  0.5654710000000  0.4980670000000  0.5084160000000 1.0
C      1  0.5383540000000  0.4451150000000  0.5097000000000 1.0
C      1  0.4822190000000  0.4396740000000  0.5071470000000 1.0
C      1  0.4427530000000  0.4724420000000  0.5068300000000 1.0
C      1  0.4988830000000  0.5392600000000  0.4424150000000 1.0
C      1  0.5381890000000  0.5066270000000  0.4427310000000 1.0
C      1  0.5341610000000  0.4780840000000  0.4461730000000 1.0
C      1  0.5084520000000  0.4645220000000  0.4468240000000 1.0
C      1  0.4796500000000  0.4761880000000  0.4508620000000 1.0
C      1  0.4629260000000  0.5023200000000  0.4464580000000 1.0
C      1  0.4715360000000  0.5300790000000  0.4456700000000 1.0
C      1  0.4418790000000  0.4718730000000  0.4780420000000 1.0
C      1  0.4367540000000  0.5281330000000  0.4798030000000 1.0
C      1  0.4838700000000  0.5659250000000  0.4791310000000 1.0
C      1  0.5390290000000  0.5479500000000  0.4759790000000 1.0
C      1  0.5668090000000  0.4970650000000  0.4797980000000 1.0
C      1  0.5383190000000  0.4438080000000  0.4806190000000 1.0
C      1  0.4820950000000  0.4384840000000  0.4783650000000 1.0
C      1  0.4767660000000  0.4735810000000  0.5404000000000 1.0
C      1  0.4643300000000  0.5007300000000  0.5402390000000 1.0
C      1  0.4776660000000  0.5273680000000  0.5393060000000 1.0
C      1  0.5068490000000  0.5330250000000  0.5382880000000 1.0
C      1  0.5296830000000  0.5140670000000  0.5384710000000 1.0
C      1  0.5294790000000  0.4843510000000  0.5397220000000 1.0
C      1  0.5057390000000  0.4663500000000  0.5405710000000 1.0
C      1  0.5084710000000  0.5527280000000  0.4676730000000 1.0
C      1  0.5494220000000  0.5187280000000  0.4680020000000 1.0
C      1  0.5489050000000  0.4714170000000  0.4704610000000 1.0
C      1  0.5101040000000  0.4455870000000  0.4691560000000 1.0
C      1  0.4636700000000  0.4570810000000  0.4653650000000 1.0
C      1  0.4437990000000  0.5006380000000  0.4686230000000 1.0
C      1  0.4620410000000  0.5435370000000  0.4697630000000 1.0
C      1  0.4671860000000  0.5016070000000  0.5711170000000 1.0
C      1  0.4797620000000  0.5263870000000  0.5701630000000 1.0
C      1  0.5069660000000  0.5319200000000  0.5691860000000 1.0
C      1  0.5282810000000  0.5142230000000  0.5693570000000 1.0
C      1  0.5278350000000  0.4864740000000  0.5705500000000 1.0
C      1  0.5057820000000  0.4695620000000  0.5714270000000 1.0
C      1  0.4787870000000  0.4763160000000  0.5715160000000 1.0
C      1  0.4449510000000  0.5003050000000  0.5181580000000 1.0
C      1  0.4648080000000  0.5429800000000  0.5179330000000 1.0
C      1  0.5113040000000  0.5517200000000  0.5161290000000 1.0
C      1  0.5474500000000  0.5217100000000  0.5164200000000 1.0
C      1  0.5473910000000  0.4744140000000  0.5185970000000 1.0
C      1  0.5090940000000  0.4470500000000  0.5186730000000 1.0
C      1  0.4627500000000  0.4565110000000  0.5209110000000 1.0
C      1  0.4756760000000  0.5272630000000  0.4934180000000 1.0
C      1  0.5036030000000  0.5298250000000  0.4899610000000 1.0
C      1  0.5275950000000  0.5099060000000  0.4901540000000 1.0
C      1  0.5301780000000  0.4820130000000  0.4938560000000 1.0
C      1  0.5050570000000  0.4672670000000  0.4929440000000 1.0
C      1  0.4874940000000  0.4859230000000  0.4805240000000 1.0
C      1  0.4658100000000  0.4998520000000  0.4926290000000 1.0
C      1  0.5124510000000  0.5156050000000  0.4415750000000 1.0
C      1  0.5048100000000  0.5067080000000  0.4731290000000 1.0
END
