TITL C-71057-6709-7 24.8606167179692 125000 -1186.19358098159 0 0 167 (S4) n - 1
REM
REM in /rds/project/t2_vol4/rds-t2-cs072/BORA/CARBON/from-Arr/AIRSS/Generating-Clusters/GAP-ML-2020/Higher-Symm/SD-CG/HFTN-CG
REM
REM
REM
REM
REM
REM ./C.cell (b20cbc046b6831c77cfcea5457e17084)
REM AIRSS Version 0.9.1 bugfix July 2018 build 013d7b7c2542+ Fri, 06 Jul 2018 19:26:36 +0100
REM compiler GCC version 9.3.0
REM options -cpp -mtune=generic -march=x86-64 -g -O0
REM seed -585473610 1247511437 1781422609 -1314324662 -1250370423 -595059754 -794048281 -232887625 1550279291 -1454341556 624733973 359954066 -1197368267 -2098347715 -1447734020 -261233218 918005890 1283089065 -964923735 -1869794905 -1454208135 1154055572 592466823 1551495610 184570805 -32530623 489334979 -1956005276 1553754171 893948149 502475287 -1837481838 762360192
REM
CELL 1.54180   50.00000   50.00000   50.00000   90.00000   90.00000   90.00000
LATT -1
SFAC C  
C      1  0.4697250000000  0.4939710000000  0.5879930000000 1.0
C      1  0.5307530000000  0.4122520000000  0.4938340000000 1.0
C      1  0.4697220000000  0.5064120000000  0.4121160000000 1.0
C      1  0.5307570000000  0.5881290000000  0.5062740000000 1.0
C      1  0.4810630000000  0.5776200000000  0.4293650000000 1.0
C      1  0.5194190000000  0.5708800000000  0.5774830000000 1.0
C      1  0.4810620000000  0.4227630000000  0.5707440000000 1.0
C      1  0.5194130000000  0.4295010000000  0.4226260000000 1.0
C      1  0.4318800000000  0.4835420000000  0.4192030000000 1.0
C      1  0.5685980000000  0.5810420000000  0.4834030000000 1.0
C      1  0.4318840000000  0.5168430000000  0.5809080000000 1.0
C      1  0.5685950000000  0.4193370000000  0.5167040000000 1.0
C      1  0.4478990000000  0.5610740000000  0.5660360000000 1.0
C      1  0.5525810000000  0.4342080000000  0.5609360000000 1.0
C      1  0.4478950000000  0.4393100000000  0.4340740000000 1.0
C      1  0.5525820000000  0.5661710000000  0.4391710000000 1.0
C      1  0.4077820000000  0.4416090000000  0.5176510000000 1.0
C      1  0.5926940000000  0.4825930000000  0.4414690000000 1.0
C      1  0.4077840000000  0.5587770000000  0.4824600000000 1.0
C      1  0.5926970000000  0.5177840000000  0.5586370000000 1.0
C      1  0.5959960000000  0.4531610000000  0.4803990000000 1.0
C      1  0.4044810000000  0.5198470000000  0.4530280000000 1.0
C      1  0.5959990000000  0.5472160000000  0.5197070000000 1.0
C      1  0.4044810000000  0.4805390000000  0.5470840000000 1.0
C      1  0.5488680000000  0.4178960000000  0.5372490000000 1.0
C      1  0.4516070000000  0.4629960000000  0.4177610000000 1.0
C      1  0.5488700000000  0.5824840000000  0.4628580000000 1.0
C      1  0.4516110000000  0.5373880000000  0.5823490000000 1.0
C      1  0.5084170000000  0.5774400000000  0.4246920000000 1.0
C      1  0.4920640000000  0.5755530000000  0.5773040000000 1.0
C      1  0.5084160000000  0.4229410000000  0.5754170000000 1.0
C      1  0.4920590000000  0.4248280000000  0.4228050000000 1.0
C      1  0.5289990000000  0.5242440000000  0.5651620000000 1.0
C      1  0.4714800000000  0.4350840000000  0.5241090000000 1.0
C      1  0.5289950000000  0.4761360000000  0.4349460000000 1.0
C      1  0.4714820000000  0.5652990000000  0.4760010000000 1.0
C      1  0.4830820000000  0.6174260000000  0.4823060000000 1.0
C      1  0.5174010000000  0.5179390000000  0.6172890000000 1.0
C      1  0.4830770000000  0.3829560000000  0.5178030000000 1.0
C      1  0.5173970000000  0.4824420000000  0.3828190000000 1.0
C      1  0.5501290000000  0.4755290000000  0.4143750000000 1.0
C      1  0.4503490000000  0.5858700000000  0.4753950000000 1.0
C      1  0.5501330000000  0.5248500000000  0.5857320000000 1.0
C      1  0.4503460000000  0.4145130000000  0.5247160000000 1.0
C      1  0.5932540000000  0.4288290000000  0.5211670000000 1.0
C      1  0.4072220000000  0.4790780000000  0.4286960000000 1.0
C      1  0.5932560000000  0.5715490000000  0.4789380000000 1.0
C      1  0.4072250000000  0.5213070000000  0.5714160000000 1.0
C      1  0.4587130000000  0.3919710000000  0.5087420000000 1.0
C      1  0.5417620000000  0.4915020000000  0.3918330000000 1.0
C      1  0.4587170000000  0.6084120000000  0.4913680000000 1.0
C      1  0.5417660000000  0.5088770000000  0.6082740000000 1.0
C      1  0.5235790000000  0.5892640000000  0.4769960000000 1.0
C      1  0.4769020000000  0.5232500000000  0.5891290000000 1.0
C      1  0.5235760000000  0.4111160000000  0.5231120000000 1.0
C      1  0.4768990000000  0.4771330000000  0.4109810000000 1.0
C      1  0.5737010000000  0.5641300000000  0.5295050000000 1.0
C      1  0.4267790000000  0.4707400000000  0.5639960000000 1.0
C      1  0.5736980000000  0.4362490000000  0.4706010000000 1.0
C      1  0.4267780000000  0.5296440000000  0.4361150000000 1.0
C      1  0.3976040000000  0.4926790000000  0.4503940000000 1.0
C      1  0.6028740000000  0.5498510000000  0.4925390000000 1.0
C      1  0.3976060000000  0.5077070000000  0.5497180000000 1.0
C      1  0.6028730000000  0.4505260000000  0.5075670000000 1.0
C      1  0.5064770000000  0.5382790000000  0.4703420000000 1.0
C      1  0.4940030000000  0.5299030000000  0.5381430000000 1.0
C      1  0.5064760000000  0.4621020000000  0.5297660000000 1.0
C      1  0.4940010000000  0.4704790000000  0.4619660000000 1.0
C      1  0.5286650000000  0.4419850000000  0.5764080000000 1.0
C      1  0.4718110000000  0.4238370000000  0.4418490000000 1.0
C      1  0.5286650000000  0.5583960000000  0.4237000000000 1.0
C      1  0.4718160000000  0.5765460000000  0.5582600000000 1.0
C      1  0.4787560000000  0.4152090000000  0.4689640000000 1.0
C      1  0.5217190000000  0.5312810000000  0.4150720000000 1.0
C      1  0.4787610000000  0.5851740000000  0.5311450000000 1.0
C      1  0.5217210000000  0.4691000000000  0.5850370000000 1.0
C      1  0.5038520000000  0.5613550000000  0.5985820000000 1.0
C      1  0.4966280000000  0.4016640000000  0.5612190000000 1.0
C      1  0.5038470000000  0.4390260000000  0.4015270000000 1.0
C      1  0.4966300000000  0.5987180000000  0.4388900000000 1.0
C      1  0.4425360000000  0.4899060000000  0.5798610000000 1.0
C      1  0.5579420000000  0.4203840000000  0.4897670000000 1.0
C      1  0.4425340000000  0.5104780000000  0.4202500000000 1.0
C      1  0.5579460000000  0.5799950000000  0.5103400000000 1.0
C      1  0.5728080000000  0.4654380000000  0.4298880000000 1.0
C      1  0.4276700000000  0.5703570000000  0.4653050000000 1.0
C      1  0.5728110000000  0.5349400000000  0.5702180000000 1.0
C      1  0.4276680000000  0.4300270000000  0.5348060000000 1.0
C      1  0.4851390000000  0.5310450000000  0.4482590000000 1.0
C      1  0.5153410000000  0.5519860000000  0.5309080000000 1.0
C      1  0.4851390000000  0.4693370000000  0.5518500000000 1.0
C      1  0.5153380000000  0.4483950000000  0.4692000000000 1.0
C      1  0.4679160000000  0.5322350000000  0.5224740000000 1.0
C      1  0.5325630000000  0.4777710000000  0.5320980000000 1.0
C      1  0.4679140000000  0.4681480000000  0.4776360000000 1.0
C      1  0.5325630000000  0.5226090000000  0.4680100000000 1.0
C      1  0.5342750000000  0.4947240000000  0.4590700000000 1.0
C      1  0.4662030000000  0.5411760000000  0.4945890000000 1.0
C      1  0.5342770000000  0.5056560000000  0.5410380000000 1.0
C      1  0.4662020000000  0.4592070000000  0.5055210000000 1.0
C      1  0.4994440000000  0.5178050000000  0.5665460000000 1.0
C      1  0.5010350000000  0.4337000000000  0.5176690000000 1.0
C      1  0.4994410000000  0.4825760000000  0.4335630000000 1.0
C      1  0.5010370000000  0.5666820000000  0.4824400000000 1.0
C      1  0.5044470000000  0.4257400000000  0.4846470000000 1.0
C      1  0.4960280000000  0.5155980000000  0.4256040000000 1.0
C      1  0.5044510000000  0.5746410000000  0.5154620000000 1.0
C      1  0.4960300000000  0.4847830000000  0.5745050000000 1.0
C      1  0.4560840000000  0.4057210000000  0.4832290000000 1.0
C      1  0.5443910000000  0.5170160000000  0.4055830000000 1.0
C      1  0.4560880000000  0.5946620000000  0.5168810000000 1.0
C      1  0.5443940000000  0.4833640000000  0.5945240000000 1.0
C      1  0.4669410000000  0.5161860000000  0.4684770000000 1.0
C      1  0.5335380000000  0.5317680000000  0.5160480000000 1.0
C      1  0.4669410000000  0.4841970000000  0.5316320000000 1.0
C      1  0.5335360000000  0.4686130000000  0.4840590000000 1.0
C      1  0.6098520000000  0.5013190000000  0.4855950000000 1.0
C      1  0.3906260000000  0.5146510000000  0.5011870000000 1.0
C      1  0.6098530000000  0.4990580000000  0.5145110000000 1.0
C      1  0.3906260000000  0.4857350000000  0.4989250000000 1.0
C      1  0.4267030000000  0.5644100000000  0.5473840000000 1.0
C      1  0.5737780000000  0.4528610000000  0.5642710000000 1.0
C      1  0.4266990000000  0.4359740000000  0.4527270000000 1.0
C      1  0.5737780000000  0.5475170000000  0.4358350000000 1.0
C      1  0.5892290000000  0.5093330000000  0.4329610000000 1.0
C      1  0.4112500000000  0.5672840000000  0.5092000000000 1.0
C      1  0.5892300000000  0.4910450000000  0.5671450000000 1.0
C      1  0.4112470000000  0.4331010000000  0.4909110000000 1.0
C      1  0.4380710000000  0.4463200000000  0.5553990000000 1.0
C      1  0.5624060000000  0.4448460000000  0.4461810000000 1.0
C      1  0.4380710000000  0.5540650000000  0.4447110000000 1.0
C      1  0.5624100000000  0.5555330000000  0.5539260000000 1.0
C      1  0.5955060000000  0.5321470000000  0.4494640000000 1.0
C      1  0.4049740000000  0.5507810000000  0.5320140000000 1.0
C      1  0.5955060000000  0.4682300000000  0.5506420000000 1.0
C      1  0.4049710000000  0.4496040000000  0.4680970000000 1.0
C      1  0.3934280000000  0.5249940000000  0.5275720000000 1.0
C      1  0.6070510000000  0.4726730000000  0.5248530000000 1.0
C      1  0.3934260000000  0.4753920000000  0.4725400000000 1.0
C      1  0.6070510000000  0.5277040000000  0.4752520000000 1.0
C      1  0.5683040000000  0.4762200000000  0.5811050000000 1.0
C      1  0.4321730000000  0.4191410000000  0.4760870000000 1.0
C      1  0.5683020000000  0.5241580000000  0.4190020000000 1.0
C      1  0.4321780000000  0.5812440000000  0.5240240000000 1.0
C      1  0.4520950000000  0.5080510000000  0.5239840000000 1.0
C      1  0.5483840000000  0.4762610000000  0.5079130000000 1.0
C      1  0.4520940000000  0.4923330000000  0.4761260000000 1.0
C      1  0.5483850000000  0.5241190000000  0.4921950000000 1.0
C      1  0.3978820000000  0.5318570000000  0.4780670000000 1.0
C      1  0.6025980000000  0.5221780000000  0.5317170000000 1.0
C      1  0.3978810000000  0.4685290000000  0.5220450000000 1.0
C      1  0.6025960000000  0.4781990000000  0.4683890000000 1.0
C      1  0.4869470000000  0.5227870000000  0.4874950000000 1.0
C      1  0.5135330000000  0.5127500000000  0.5226510000000 1.0
C      1  0.4869460000000  0.4775950000000  0.5126140000000 1.0
C      1  0.5135320000000  0.4876310000000  0.4774580000000 1.0
C      1  0.5322160000000  0.4466600000000  0.4442410000000 1.0
C      1  0.4682600000000  0.5560040000000  0.4465250000000 1.0
C      1  0.5322200000000  0.5537200000000  0.5558670000000 1.0
C      1  0.4682600000000  0.4443790000000  0.5535850000000 1.0
C      1  0.5026620000000  0.6091240000000  0.4656450000000 1.0
C      1  0.4978200000000  0.5346000000000  0.6089880000000 1.0
C      1  0.5026590000000  0.3912570000000  0.5344630000000 1.0
C      1  0.4978150000000  0.4657820000000  0.3911210000000 1.0
C      1  0.5620210000000  0.5001890000000  0.5000530000000 1.0
C      1  0.4384580000000  0.5001920000000  0.5000550000000 1.0
C      1  0.5002390000000  0.5001910000000  0.5000540000000 1.0
END
