TITL C-71059-6524-1 0.0354493733956728 125000 -834.986081556729 0 0 119 (C1) n - 1
REM
REM in /rds/project/t2_vol4/rds-t2-cs072/BORA/CARBON/from-Arr/AIRSS/Generating-Clusters/GAP-ML-2020/Higher-Symm/SD-CG/HFTN-CG
REM
REM
REM
REM
REM
REM ./C.cell (b20cbc046b6831c77cfcea5457e17084)
REM AIRSS Version 0.9.1 bugfix July 2018 build 013d7b7c2542+ Fri, 06 Jul 2018 19:26:36 +0100
REM compiler GCC version 9.3.0
REM options -cpp -mtune=generic -march=x86-64 -g -O0
REM seed 2018417046 -1088637806 923460377 1437686789 1186174841 -726369270 -1436347033 194681710 -1933245420 833994251 1772018319 1126058160 1124060359 1892448389 -298509012 -308330821 -836682384 1390301162 -125760782 -1547203177 -558737108 -1534708699 1019898212 -318690282 1993133841 1170473509 -415552922 -1450033329 1315973012 -1944109161 302092359 -379672425 -1887992535
REM
CELL 1.54180   50.00000   50.00000   50.00000   90.00000   90.00000   90.00000
LATT -1
SFAC C  
C      1  0.4452190000000  0.5330150000000  0.4386140000000 1.0
C      1  0.4697860000000  0.4519470000000  0.4269740000000 1.0
C      1  0.4490150000000  0.4808980000000  0.4968850000000 1.0
C      1  0.4971760000000  0.5426340000000  0.5040930000000 1.0
C      1  0.4353100000000  0.5642930000000  0.5274800000000 1.0
C      1  0.4418980000000  0.5023200000000  0.5616450000000 1.0
C      1  0.5000430000000  0.4786340000000  0.4564640000000 1.0
C      1  0.4938900000000  0.5177010000000  0.4091710000000 1.0
C      1  0.5237830000000  0.5672890000000  0.5471350000000 1.0
C      1  0.5704620000000  0.4626870000000  0.4269010000000 1.0
C      1  0.4155690000000  0.4906860000000  0.4658510000000 1.0
C      1  0.4099000000000  0.5094630000000  0.5236170000000 1.0
C      1  0.4823420000000  0.5012520000000  0.5851420000000 1.0
C      1  0.5047250000000  0.4521100000000  0.4739640000000 1.0
C      1  0.4483370000000  0.5061280000000  0.4287810000000 1.0
C      1  0.5148460000000  0.5560750000000  0.4254570000000 1.0
C      1  0.5859620000000  0.4540850000000  0.5527160000000 1.0
C      1  0.4555550000000  0.4154750000000  0.5232820000000 1.0
C      1  0.4872090000000  0.4282810000000  0.4795790000000 1.0
C      1  0.5591310000000  0.5352100000000  0.4617990000000 1.0
C      1  0.4199720000000  0.4729250000000  0.4912280000000 1.0
C      1  0.4451610000000  0.4585340000000  0.4408820000000 1.0
C      1  0.5810920000000  0.5279280000000  0.4837310000000 1.0
C      1  0.5017350000000  0.4905800000000  0.5422130000000 1.0
C      1  0.4692060000000  0.5497150000000  0.4374760000000 1.0
C      1  0.4850880000000  0.4999510000000  0.5213760000000 1.0
C      1  0.5432030000000  0.4463750000000  0.5558770000000 1.0
C      1  0.5853430000000  0.4880330000000  0.5155820000000 1.0
C      1  0.4868390000000  0.4972120000000  0.4733630000000 1.0
C      1  0.4085730000000  0.4808930000000  0.5182960000000 1.0
C      1  0.5396210000000  0.4178910000000  0.4704250000000 1.0
C      1  0.5742300000000  0.4671490000000  0.4533380000000 1.0
C      1  0.4285940000000  0.5593970000000  0.4769630000000 1.0
C      1  0.4719500000000  0.4235570000000  0.5633650000000 1.0
C      1  0.5657690000000  0.4420690000000  0.5382840000000 1.0
C      1  0.4764680000000  0.5266060000000  0.5155180000000 1.0
C      1  0.5676070000000  0.5707430000000  0.4925020000000 1.0
C      1  0.5288830000000  0.4893180000000  0.4570970000000 1.0
C      1  0.5439160000000  0.4646130000000  0.4163730000000 1.0
C      1  0.4827970000000  0.5665980000000  0.4569900000000 1.0
C      1  0.5908260000000  0.4761880000000  0.4755630000000 1.0
C      1  0.5866110000000  0.4993190000000  0.5447330000000 1.0
C      1  0.5761090000000  0.4786410000000  0.5620690000000 1.0
C      1  0.5469030000000  0.4673060000000  0.4662920000000 1.0
C      1  0.4813150000000  0.4784390000000  0.5675780000000 1.0
C      1  0.5163250000000  0.5425110000000  0.5270400000000 1.0
C      1  0.4245770000000  0.5382560000000  0.4581870000000 1.0
C      1  0.5107320000000  0.5047610000000  0.5900970000000 1.0
C      1  0.5560520000000  0.4864360000000  0.5162410000000 1.0
C      1  0.5341920000000  0.4881150000000  0.4055920000000 1.0
C      1  0.5323170000000  0.5167900000000  0.4656570000000 1.0
C      1  0.4201090000000  0.5543790000000  0.5039440000000 1.0
C      1  0.5270350000000  0.4087500000000  0.4934130000000 1.0
C      1  0.4577540000000  0.5445590000000  0.5683970000000 1.0
C      1  0.5519130000000  0.5700530000000  0.5358410000000 1.0
C      1  0.5031830000000  0.5964450000000  0.5122150000000 1.0
C      1  0.4357240000000  0.5458930000000  0.5494000000000 1.0
C      1  0.4787400000000  0.5816550000000  0.5484650000000 1.0
C      1  0.4762760000000  0.5887860000000  0.5043630000000 1.0
C      1  0.5100510000000  0.5715270000000  0.4490880000000 1.0
C      1  0.5175680000000  0.5214650000000  0.4900260000000 1.0
C      1  0.4092710000000  0.5274770000000  0.5014190000000 1.0
C      1  0.5483020000000  0.4700600000000  0.5714580000000 1.0
C      1  0.5500870000000  0.5835240000000  0.5106950000000 1.0
C      1  0.5210980000000  0.5144700000000  0.5456720000000 1.0
C      1  0.5371360000000  0.5302430000000  0.5099810000000 1.0
C      1  0.5092260000000  0.5528510000000  0.5694110000000 1.0
C      1  0.4994630000000  0.4117540000000  0.4994110000000 1.0
C      1  0.4536870000000  0.4768100000000  0.5538120000000 1.0
C      1  0.4603920000000  0.5009530000000  0.4806530000000 1.0
C      1  0.5182780000000  0.5259150000000  0.5731370000000 1.0
C      1  0.4871110000000  0.4752780000000  0.4279050000000 1.0
C      1  0.5541400000000  0.4189110000000  0.4940110000000 1.0
C      1  0.4790200000000  0.4547040000000  0.5209430000000 1.0
C      1  0.5363170000000  0.5377730000000  0.4179650000000 1.0
C      1  0.5295150000000  0.4426340000000  0.4577330000000 1.0
C      1  0.5050260000000  0.5889390000000  0.5393250000000 1.0
C      1  0.4488860000000  0.4274950000000  0.5490640000000 1.0
C      1  0.4118800000000  0.5178870000000  0.4731590000000 1.0
C      1  0.5260900000000  0.5903190000000  0.4962620000000 1.0
C      1  0.4961720000000  0.4466720000000  0.4202260000000 1.0
C      1  0.4423980000000  0.4234270000000  0.4995900000000 1.0
C      1  0.4575870000000  0.5251830000000  0.4950200000000 1.0
C      1  0.4739240000000  0.4989130000000  0.4169690000000 1.0
C      1  0.5810000000000  0.5487870000000  0.5038510000000 1.0
C      1  0.5911290000000  0.5020520000000  0.4888570000000 1.0
C      1  0.5036320000000  0.4608630000000  0.5752250000000 1.0
C      1  0.5240060000000  0.4791410000000  0.5842530000000 1.0
C      1  0.5466080000000  0.5100960000000  0.5296980000000 1.0
C      1  0.5893960000000  0.4615920000000  0.5010200000000 1.0
C      1  0.4900830000000  0.5434460000000  0.4192300000000 1.0
C      1  0.4601420000000  0.5172840000000  0.5771630000000 1.0
C      1  0.5141270000000  0.4425420000000  0.5525090000000 1.0
C      1  0.4245810000000  0.4436520000000  0.4862760000000 1.0
C      1  0.5539420000000  0.5643340000000  0.4692660000000 1.0
C      1  0.5731540000000  0.5490090000000  0.5322430000000 1.0
C      1  0.5586910000000  0.5379170000000  0.4330070000000 1.0
C      1  0.5157140000000  0.4666640000000  0.5001070000000 1.0
C      1  0.4347310000000  0.4523980000000  0.5512310000000 1.0
C      1  0.4332280000000  0.4849940000000  0.4426310000000 1.0
C      1  0.5714430000000  0.5228680000000  0.5422750000000 1.0
C      1  0.4541960000000  0.5516130000000  0.4840840000000 1.0
C      1  0.5292560000000  0.5787670000000  0.4691220000000 1.0
C      1  0.5059550000000  0.4613010000000  0.5286350000000 1.0
C      1  0.5451560000000  0.4673070000000  0.4973210000000 1.0
C      1  0.4135970000000  0.4610720000000  0.5365770000000 1.0
C      1  0.4779500000000  0.5667720000000  0.4858570000000 1.0
C      1  0.4845010000000  0.4099920000000  0.5233940000000 1.0
C      1  0.5031280000000  0.4955720000000  0.4978180000000 1.0
C      1  0.4592020000000  0.5815660000000  0.5273980000000 1.0
C      1  0.4951080000000  0.4191550000000  0.5493510000000 1.0
C      1  0.4245710000000  0.5193370000000  0.5465570000000 1.0
C      1  0.4634890000000  0.4783160000000  0.5212980000000 1.0
C      1  0.5654920000000  0.4428700000000  0.5080720000000 1.0
C      1  0.4811840000000  0.5609500000000  0.5673160000000 1.0
C      1  0.5232000000000  0.5128470000000  0.4065740000000 1.0
C      1  0.4403460000000  0.4411540000000  0.4619210000000 1.0
C      1  0.5232820000000  0.4457530000000  0.4288610000000 1.0
C      1  0.4592610000000  0.4252820000000  0.4765550000000 1.0
END
