TITL C-72197-6957-7 -46.3671259611107 125000 -406.813750848048 0 0 60 (C5v) n - 1
REM
REM in /rds/project/t2_vol4/rds-t2-cs072/BORA/CARBON/from-Arr/AIRSS/Generating-Clusters/GAP-ML-2020/Higher-Symm/SD-CG/HFTN-CG
REM
REM
REM
REM
REM
REM ./C.cell (b20cbc046b6831c77cfcea5457e17084)
REM AIRSS Version 0.9.1 bugfix July 2018 build 013d7b7c2542+ Fri, 06 Jul 2018 19:26:36 +0100
REM compiler GCC version 9.3.0
REM options -cpp -mtune=generic -march=x86-64 -g -O0
REM seed -1856936507 -2085004137 1171075944 -576373940 -320440304 -106520241 -1162530639 -227071525 -326687807 1457721660 -398834031 -2018715553 -1696927550 -453388268 -435881220 -2011366699 -934737184 1396914167 -2038335341 -1074301481 1138186837 53744206 -170470600 -349458804 -690443111 -602913580 1575386738 1886123678 1528052473 -162055471 1400017099 -395832988 -2129258685
REM
CELL 1.54180   50.00000   50.00000   50.00000   90.00000   90.00000   90.00000
LATT -1
SFAC C  
C      1  0.5399990000000  0.5446640000000  0.4764120000000 1.0
C      1  0.5399970000000  0.4913670000000  0.4502310000000 1.0
C      1  0.5399960000000  0.4499990000000  0.4928300000000 1.0
C      1  0.5399970000000  0.4777290000000  0.5453370000000 1.0
C      1  0.5399980000000  0.5362350000000  0.5351900000000 1.0
C      1  0.4970200000000  0.5396850000000  0.5578840000000 1.0
C      1  0.4970210000000  0.5673140000000  0.4801440000000 1.0
C      1  0.4970190000000  0.5019170000000  0.4298450000000 1.0
C      1  0.4970170000000  0.4338710000000  0.4764970000000 1.0
C      1  0.4970180000000  0.4572130000000  0.5556300000000 1.0
C      1  0.4579680000000  0.5351790000000  0.5341620000000 1.0
C      1  0.4579680000000  0.5433620000000  0.4771010000000 1.0
C      1  0.4579670000000  0.4916220000000  0.4516850000000 1.0
C      1  0.4579660000000  0.4514620000000  0.4930390000000 1.0
C      1  0.4579660000000  0.4783820000000  0.5440130000000 1.0
C      1  0.4725810000000  0.4962350000000  0.5615210000000 1.0
C      1  0.4725830000000  0.5573470000000  0.5225920000000 1.0
C      1  0.4725830000000  0.5392080000000  0.4524420000000 1.0
C      1  0.4725800000000  0.4668860000000  0.4480160000000 1.0
C      1  0.4725800000000  0.4403280000000  0.5154300000000 1.0
C      1  0.4725800000000  0.4536110000000  0.5405830000000 1.0
C      1  0.4725820000000  0.5242620000000  0.5566600000000 1.0
C      1  0.4725830000000  0.5613850000000  0.4944350000000 1.0
C      1  0.4725820000000  0.5136770000000  0.4399010000000 1.0
C      1  0.4725800000000  0.4470690000000  0.4684220000000 1.0
C      1  0.5236770000000  0.5587500000000  0.5270330000000 1.0
C      1  0.5236760000000  0.5438650000000  0.4524780000000 1.0
C      1  0.5236740000000  0.4683580000000  0.4435970000000 1.0
C      1  0.5236730000000  0.4365790000000  0.5126630000000 1.0
C      1  0.5236750000000  0.4924440000000  0.5642290000000 1.0
C      1  0.4970210000000  0.5543530000000  0.4556020000000 1.0
C      1  0.4970180000000  0.4745710000000  0.4345870000000 1.0
C      1  0.4970170000000  0.4299310000000  0.5039710000000 1.0
C      1  0.4970180000000  0.4821240000000  0.5678670000000 1.0
C      1  0.4970210000000  0.5590210000000  0.5379730000000 1.0
C      1  0.4445710000000  0.5214620000000  0.4886660000000 1.0
C      1  0.4445700000000  0.4958550000000  0.4760880000000 1.0
C      1  0.4445690000000  0.4759780000000  0.4965550000000 1.0
C      1  0.4445700000000  0.4893020000000  0.5217830000000 1.0
C      1  0.4445710000000  0.5174120000000  0.5169080000000 1.0
C      1  0.5236730000000  0.4426940000000  0.4700240000000 1.0
C      1  0.5236740000000  0.4537820000000  0.5452380000000 1.0
C      1  0.5236760000000  0.5287410000000  0.5579340000000 1.0
C      1  0.5236770000000  0.5639800000000  0.4905670000000 1.0
C      1  0.5236750000000  0.5107990000000  0.4362360000000 1.0
C      1  0.5183940000000  0.5071990000000  0.5415130000000 1.0
C      1  0.5183950000000  0.5417050000000  0.5059810000000 1.0
C      1  0.5183940000000  0.5185750000000  0.4621840000000 1.0
C      1  0.5183930000000  0.4697740000000  0.4706470000000 1.0
C      1  0.5183930000000  0.4627430000000  0.5196750000000 1.0
C      1  0.4964390000000  0.5105620000000  0.4784990000000 1.0
C      1  0.4964390000000  0.4828150000000  0.4833110000000 1.0
C      1  0.4964380000000  0.4788180000000  0.5111870000000 1.0
C      1  0.4964390000000  0.5040940000000  0.5236030000000 1.0
C      1  0.4964400000000  0.5237120000000  0.5034010000000 1.0
C      1  0.5560820000000  0.5177410000000  0.5172300000000 1.0
C      1  0.5560820000000  0.5218680000000  0.4884500000000 1.0
C      1  0.5560820000000  0.4957720000000  0.4756320000000 1.0
C      1  0.5560810000000  0.4755170000000  0.4964890000000 1.0
C      1  0.5560820000000  0.4890940000000  0.5221980000000 1.0
END
