TITL C-72204-6831-3 49.1072539186258 125000 -405.058954094446 0 0 60 (C1) n - 1
REM
REM in /rds/project/t2_vol4/rds-t2-cs072/BORA/CARBON/from-Arr/AIRSS/Generating-Clusters/GAP-ML-2020/Higher-Symm/SD-CG/HFTN-CG
REM
REM
REM
REM
REM
REM ./C.cell (b20cbc046b6831c77cfcea5457e17084)
REM AIRSS Version 0.9.1 bugfix July 2018 build 013d7b7c2542+ Fri, 06 Jul 2018 19:26:36 +0100
REM compiler GCC version 9.3.0
REM options -cpp -mtune=generic -march=x86-64 -g -O0
REM seed -2133358014 -459427895 -1962577674 -1401707199 -2085715965 -214866521 118027425 -2015398148 1080354837 252733850 -495283962 1299439165 -703806803 834505061 1318935815 1738317532 -439930548 -1984301342 -2053854026 2040245265 1112998154 -1604181101 880105892 -235388371 -1120471973 1725531141 -309193044 1010772158 -202240433 -1183074277 -1994853848 -974415401 -1927254507
REM
CELL 1.54180   50.00000   50.00000   50.00000   90.00000   90.00000   90.00000
LATT -1
SFAC C  
C      1  0.4533540000000  0.5115200000000  0.5597350000000 1.0
C      1  0.5189490000000  0.5595320000000  0.4682770000000 1.0
C      1  0.5458660000000  0.4699310000000  0.5045320000000 1.0
C      1  0.4765070000000  0.4959440000000  0.4578220000000 1.0
C      1  0.5342110000000  0.5114290000000  0.4542870000000 1.0
C      1  0.5171810000000  0.4881720000000  0.5454410000000 1.0
C      1  0.5087410000000  0.4388960000000  0.5270370000000 1.0
C      1  0.4986400000000  0.5559920000000  0.5211080000000 1.0
C      1  0.4961700000000  0.4485520000000  0.4717360000000 1.0
C      1  0.5505900000000  0.5338870000000  0.4950100000000 1.0
C      1  0.4539220000000  0.4685670000000  0.4958040000000 1.0
C      1  0.4375200000000  0.5207860000000  0.5150040000000 1.0
C      1  0.4769880000000  0.5568520000000  0.5007070000000 1.0
C      1  0.5012850000000  0.4629050000000  0.5465850000000 1.0
C      1  0.5574700000000  0.5187710000000  0.4719590000000 1.0
C      1  0.4740400000000  0.4455750000000  0.4923260000000 1.0
C      1  0.5296770000000  0.4419650000000  0.5073710000000 1.0
C      1  0.5426710000000  0.5596740000000  0.4859750000000 1.0
C      1  0.5128690000000  0.5334640000000  0.4544550000000 1.0
C      1  0.4810610000000  0.5209250000000  0.5622960000000 1.0
C      1  0.4972540000000  0.4745970000000  0.4556790000000 1.0
C      1  0.5396120000000  0.4923540000000  0.5235180000000 1.0
C      1  0.4536300000000  0.4925230000000  0.4774520000000 1.0
C      1  0.4446080000000  0.4997990000000  0.5343660000000 1.0
C      1  0.4788800000000  0.5646920000000  0.5413580000000 1.0
C      1  0.5784840000000  0.5553460000000  0.4626320000000 1.0
C      1  0.5381440000000  0.4748010000000  0.5631790000000 1.0
C      1  0.4775430000000  0.4364980000000  0.4509190000000 1.0
C      1  0.5343750000000  0.5722870000000  0.4470180000000 1.0
C      1  0.5283080000000  0.4289390000000  0.5467430000000 1.0
C      1  0.5644480000000  0.4574940000000  0.5244230000000 1.0
C      1  0.4352620000000  0.5473490000000  0.5253690000000 1.0
C      1  0.4369140000000  0.4542010000000  0.4739720000000 1.0
C      1  0.5495430000000  0.5271900000000  0.4327890000000 1.0
C      1  0.4590890000000  0.4806050000000  0.4374600000000 1.0
C      1  0.4432110000000  0.5385700000000  0.5628700000000 1.0
C      1  0.4717320000000  0.5487350000000  0.5640450000000 1.0
C      1  0.5585980000000  0.4783150000000  0.5436150000000 1.0
C      1  0.5571160000000  0.5722750000000  0.4657190000000 1.0
C      1  0.4792740000000  0.4604830000000  0.4348890000000 1.0
C      1  0.5216140000000  0.4508050000000  0.5647930000000 1.0
C      1  0.5289800000000  0.5480220000000  0.4318030000000 1.0
C      1  0.5713700000000  0.5317260000000  0.4514770000000 1.0
C      1  0.4227160000000  0.5492200000000  0.5500190000000 1.0
C      1  0.4379550000000  0.4768730000000  0.4567470000000 1.0
C      1  0.5500290000000  0.4323420000000  0.5263130000000 1.0
C      1  0.4566710000000  0.4336410000000  0.4704950000000 1.0
C      1  0.4575560000000  0.5650890000000  0.5204330000000 1.0
C      1  0.5241070000000  0.4430570000000  0.4791270000000 1.0
C      1  0.4728630000000  0.4582230000000  0.5380940000000 1.0
C      1  0.4864100000000  0.5239690000000  0.4621300000000 1.0
C      1  0.4542930000000  0.4753400000000  0.5250160000000 1.0
C      1  0.5256150000000  0.4840950000000  0.4584660000000 1.0
C      1  0.4703290000000  0.5363110000000  0.4819830000000 1.0
C      1  0.4491670000000  0.5185290000000  0.4895880000000 1.0
C      1  0.5398970000000  0.4668420000000  0.4755390000000 1.0
C      1  0.4805810000000  0.4373330000000  0.5197680000000 1.0
C      1  0.5048790000000  0.5145940000000  0.5482970000000 1.0
C      1  0.5143080000000  0.5327070000000  0.5283720000000 1.0
C      1  0.5369190000000  0.5208900000000  0.5160600000000 1.0
END
