TITL C-72184-6716-6 -0.158451464757611 125000 -793.494070038482 0 0 116 (C4h) n - 1
REM
REM in /rds/project/t2_vol4/rds-t2-cs072/BORA/CARBON/from-Arr/AIRSS/Generating-Clusters/GAP-ML-2020/Higher-Symm/SD-CG/HFTN-CG
REM
REM
REM
REM
REM
REM ./C.cell (b20cbc046b6831c77cfcea5457e17084)
REM AIRSS Version 0.9.1 bugfix July 2018 build 013d7b7c2542+ Fri, 06 Jul 2018 19:26:36 +0100
REM compiler GCC version 9.3.0
REM options -cpp -mtune=generic -march=x86-64 -g -O0
REM seed 1981618596 -126037280 -1828326430 1603532434 -365006981 -857566996 1731801611 -2008574622 985406962 1429952827 -527357427 -506726047 -1531782566 2658976 1147543356 -1141691927 635431577 -1233909365 -770106945 1542610701 882847069 -1370143261 1067090186 498194737 -1255964162 856702406 742730798 1967946651 -1499541513 -735619051 -1862625590 1979583136 123676654
REM
CELL 1.54180   50.00000   50.00000   50.00000   90.00000   90.00000   90.00000
LATT -1
SFAC C  
C      1  0.5126740000000  0.5129240000000  0.4054910000000 1.0
C      1  0.5947230000000  0.5116390000000  0.5122480000000 1.0
C      1  0.4880150000000  0.5150460000000  0.5943000000000 1.0
C      1  0.4059660000000  0.5163310000000  0.4875430000000 1.0
C      1  0.5119850000000  0.4863240000000  0.4057000000000 1.0
C      1  0.5940340000000  0.4850390000000  0.5124570000000 1.0
C      1  0.4873260000000  0.4884460000000  0.5945090000000 1.0
C      1  0.4052770000000  0.4897310000000  0.4877520000000 1.0
C      1  0.4453770000000  0.5377590000000  0.5715370000000 1.0
C      1  0.4291060000000  0.5371790000000  0.4441620000000 1.0
C      1  0.5564390000000  0.5337550000000  0.4279120000000 1.0
C      1  0.5727100000000  0.5343350000000  0.5552870000000 1.0
C      1  0.4435610000000  0.4676150000000  0.5720880000000 1.0
C      1  0.4272900000000  0.4670350000000  0.4447130000000 1.0
C      1  0.5546230000000  0.4636110000000  0.4284630000000 1.0
C      1  0.5708940000000  0.4641910000000  0.5558380000000 1.0
C      1  0.4698550000000  0.4785790000000  0.4235380000000 1.0
C      1  0.5760310000000  0.4762000000000  0.4706130000000 1.0
C      1  0.5289920000000  0.4782530000000  0.5768120000000 1.0
C      1  0.4228160000000  0.4806320000000  0.5297370000000 1.0
C      1  0.4710080000000  0.5231170000000  0.4231880000000 1.0
C      1  0.5771840000000  0.5207380000000  0.4702630000000 1.0
C      1  0.5301450000000  0.5227910000000  0.5764620000000 1.0
C      1  0.4239690000000  0.5251700000000  0.5293870000000 1.0
C      1  0.5206990000000  0.4337610000000  0.5310660000000 1.0
C      1  0.4677470000000  0.4350680000000  0.5229470000000 1.0
C      1  0.4758530000000  0.4344420000000  0.4699810000000 1.0
C      1  0.5288050000000  0.4331350000000  0.4781000000000 1.0
C      1  0.5241470000000  0.5669280000000  0.5300190000000 1.0
C      1  0.4711950000000  0.5682350000000  0.5219000000000 1.0
C      1  0.4793010000000  0.5676090000000  0.4689340000000 1.0
C      1  0.5322530000000  0.5663020000000  0.4770530000000 1.0
C      1  0.4547630000000  0.4870260000000  0.5230230000000 1.0
C      1  0.4767040000000  0.4859250000000  0.4552510000000 1.0
C      1  0.5444600000000  0.4843440000000  0.4772130000000 1.0
C      1  0.5225190000000  0.4854450000000  0.5449850000000 1.0
C      1  0.4555400000000  0.5170260000000  0.5227870000000 1.0
C      1  0.4774810000000  0.5159250000000  0.4550150000000 1.0
C      1  0.5452370000000  0.5143440000000  0.4769770000000 1.0
C      1  0.5232960000000  0.5154450000000  0.5447490000000 1.0
C      1  0.5734990000000  0.4684750000000  0.5258390000000 1.0
C      1  0.4736350000000  0.4714430000000  0.5745450000000 1.0
C      1  0.4249220000000  0.4719190000000  0.4746410000000 1.0
C      1  0.5247870000000  0.4689510000000  0.4259340000000 1.0
C      1  0.5750780000000  0.5294510000000  0.5253590000000 1.0
C      1  0.4752130000000  0.5324190000000  0.5740660000000 1.0
C      1  0.4265010000000  0.5328950000000  0.4741610000000 1.0
C      1  0.5263650000000  0.5299270000000  0.4254550000000 1.0
C      1  0.5442970000000  0.4848640000000  0.5242340000000 1.0
C      1  0.4755140000000  0.4868070000000  0.5448070000000 1.0
C      1  0.4549340000000  0.4867990000000  0.4759990000000 1.0
C      1  0.5237160000000  0.4848560000000  0.4554270000000 1.0
C      1  0.5450660000000  0.5145710000000  0.5240010000000 1.0
C      1  0.4762840000000  0.5165140000000  0.5445730000000 1.0
C      1  0.4557030000000  0.5165060000000  0.4757660000000 1.0
C      1  0.5244860000000  0.5145630000000  0.4551930000000 1.0
C      1  0.4346600000000  0.5546470000000  0.4930590000000 1.0
C      1  0.5078680000000  0.5522790000000  0.4328760000000 1.0
C      1  0.5680480000000  0.5512970000000  0.5061190000000 1.0
C      1  0.4948390000000  0.5536650000000  0.5663020000000 1.0
C      1  0.4319520000000  0.4500730000000  0.4938810000000 1.0
C      1  0.5051610000000  0.4477050000000  0.4336980000000 1.0
C      1  0.5653400000000  0.4467230000000  0.5069410000000 1.0
C      1  0.4921320000000  0.4490910000000  0.5671240000000 1.0
C      1  0.4410710000000  0.5629790000000  0.5617900000000 1.0
C      1  0.4393030000000  0.5620600000000  0.4390070000000 1.0
C      1  0.5620480000000  0.5588680000000  0.4372630000000 1.0
C      1  0.5638160000000  0.5597880000000  0.5600460000000 1.0
C      1  0.4379520000000  0.4425020000000  0.5627370000000 1.0
C      1  0.4361840000000  0.4415820000000  0.4399540000000 1.0
C      1  0.5589290000000  0.4383910000000  0.4382100000000 1.0
C      1  0.5606970000000  0.4393100000000  0.5609930000000 1.0
C      1  0.5182880000000  0.4504630000000  0.5760400000000 1.0
C      1  0.4230800000000  0.4524880000000  0.5199760000000 1.0
C      1  0.4791070000000  0.4502890000000  0.4247510000000 1.0
C      1  0.5743150000000  0.4482640000000  0.4808150000000 1.0
C      1  0.5208930000000  0.5510810000000  0.5752490000000 1.0
C      1  0.4256850000000  0.5531060000000  0.5191850000000 1.0
C      1  0.4817120000000  0.5509070000000  0.4239600000000 1.0
C      1  0.5769200000000  0.5488820000000  0.4800240000000 1.0
C      1  0.5336230000000  0.5264890000000  0.5007140000000 1.0
C      1  0.4997730000000  0.5276170000000  0.5327340000000 1.0
C      1  0.4677570000000  0.5281800000000  0.4988670000000 1.0
C      1  0.5016070000000  0.5270520000000  0.4668470000000 1.0
C      1  0.5322430000000  0.4731900000000  0.5011330000000 1.0
C      1  0.4983930000000  0.4743180000000  0.5331530000000 1.0
C      1  0.4663770000000  0.4748810000000  0.4992860000000 1.0
C      1  0.5002270000000  0.4737530000000  0.4672660000000 1.0
C      1  0.5731770000000  0.5123600000000  0.4417140000000 1.0
C      1  0.5585360000000  0.5137690000000  0.5727380000000 1.0
C      1  0.4275480000000  0.5170440000000  0.5580650000000 1.0
C      1  0.4421900000000  0.5156350000000  0.4270410000000 1.0
C      1  0.5724520000000  0.4843260000000  0.4419350000000 1.0
C      1  0.5578100000000  0.4857350000000  0.5729590000000 1.0
C      1  0.4268230000000  0.4890100000000  0.5582860000000 1.0
C      1  0.4414640000000  0.4876010000000  0.4272620000000 1.0
C      1  0.5341110000000  0.4364130000000  0.5563770000000 1.0
C      1  0.4424970000000  0.4386260000000  0.5362640000000 1.0
C      1  0.4625860000000  0.4373860000000  0.4446260000000 1.0
C      1  0.5542000000000  0.4351720000000  0.4647390000000 1.0
C      1  0.5374140000000  0.5639840000000  0.5553740000000 1.0
C      1  0.4458000000000  0.5661980000000  0.5352610000000 1.0
C      1  0.4658890000000  0.5649570000000  0.4436230000000 1.0
C      1  0.5575030000000  0.5627440000000  0.4637360000000 1.0
C      1  0.5349500000000  0.4418840000000  0.5059290000000 1.0
C      1  0.4930360000000  0.4432130000000  0.5369140000000 1.0
C      1  0.4620520000000  0.4436850000000  0.4949810000000 1.0
C      1  0.5039660000000  0.4423570000000  0.4639960000000 1.0
C      1  0.5379480000000  0.5576850000000  0.5050190000000 1.0
C      1  0.4960340000000  0.5590130000000  0.5360040000000 1.0
C      1  0.4650500000000  0.5594860000000  0.4940710000000 1.0
C      1  0.5069640000000  0.5581570000000  0.4630860000000 1.0
C      1  0.5898770000000  0.4982440000000  0.4855340000000 1.0
C      1  0.5144800000000  0.5010170000000  0.5899070000000 1.0
C      1  0.4101230000000  0.5031260000000  0.5144660000000 1.0
C      1  0.4855200000000  0.5003530000000  0.4100930000000 1.0
END
