TITL C-72194-6819-9 -0.0369787400902074 125000 -176.426241499237 0 0 27 (C1) n - 1
REM
REM in /rds/project/t2_vol4/rds-t2-cs072/BORA/CARBON/from-Arr/AIRSS/Generating-Clusters/GAP-ML-2020/Higher-Symm/SD-CG/HFTN-CG
REM
REM
REM
REM
REM
REM ./C.cell (b20cbc046b6831c77cfcea5457e17084)
REM AIRSS Version 0.9.1 bugfix July 2018 build 013d7b7c2542+ Fri, 06 Jul 2018 19:26:36 +0100
REM compiler GCC version 9.3.0
REM options -cpp -mtune=generic -march=x86-64 -g -O0
REM seed 1063970268 -1759224111 1906504653 1269598919 -1362049076 -644362110 -1512481313 -489783213 -1367029503 547115682 -295653624 -224878865 -1247169117 -556446993 -161865708 1947646182 -676209944 380016664 1751006877 2052200845 -720145575 1089409548 830542488 638914049 -923237377 866657899 -98427198 -1576424136 1657602179 -2061300016 -777710366 -1620569771 -1555510257
REM
CELL 1.54180   50.00000   50.00000   50.00000   90.00000   90.00000   90.00000
LATT -1
SFAC C  
C      1  0.4876710000000  0.5308930000000  0.5225480000000 1.0
C      1  0.5365090000000  0.5211930000000  0.5276870000000 1.0
C      1  0.5269700000000  0.4929090000000  0.5296990000000 1.0
C      1  0.4827300000000  0.4553350000000  0.5303330000000 1.0
C      1  0.4689290000000  0.5103580000000  0.5279530000000 1.0
C      1  0.4926410000000  0.4644300000000  0.4759960000000 1.0
C      1  0.5190460000000  0.4774880000000  0.4791480000000 1.0
C      1  0.5466530000000  0.5252670000000  0.4798150000000 1.0
C      1  0.4906430000000  0.5224250000000  0.4738170000000 1.0
C      1  0.4462130000000  0.4898280000000  0.4842470000000 1.0
C      1  0.5277670000000  0.4961340000000  0.4596790000000 1.0
C      1  0.4737120000000  0.4600270000000  0.4567020000000 1.0
C      1  0.4613070000000  0.4854370000000  0.4608350000000 1.0
C      1  0.4771100000000  0.5080770000000  0.4536000000000 1.0
C      1  0.5528410000000  0.5091260000000  0.4603880000000 1.0
C      1  0.5308020000000  0.5391400000000  0.5475860000000 1.0
C      1  0.5038420000000  0.5343470000000  0.5467750000000 1.0
C      1  0.4736370000000  0.4988390000000  0.5545280000000 1.0
C      1  0.4867320000000  0.4721470000000  0.5510300000000 1.0
C      1  0.5126930000000  0.4866390000000  0.5546530000000 1.0
C      1  0.4864300000000  0.4716570000000  0.5056410000000 1.0
C      1  0.4628340000000  0.4918760000000  0.5057470000000 1.0
C      1  0.5017420000000  0.5308400000000  0.4971690000000 1.0
C      1  0.5151910000000  0.4827480000000  0.5068220000000 1.0
C      1  0.5308480000000  0.5309140000000  0.5004360000000 1.0
C      1  0.4982410000000  0.5110070000000  0.5635050000000 1.0
C      1  0.5045410000000  0.5105680000000  0.4509440000000 1.0
END
