TITL C-72208-6792-1 1.6270366888878 125000 -123.338049921352 0 0 20 (Cs) n - 1
REM
REM in /rds/project/t2_vol4/rds-t2-cs072/BORA/CARBON/from-Arr/AIRSS/Generating-Clusters/GAP-ML-2020/Higher-Symm/SD-CG/HFTN-CG
REM
REM
REM
REM
REM
REM ./C.cell (b20cbc046b6831c77cfcea5457e17084)
REM AIRSS Version 0.9.1 bugfix July 2018 build 013d7b7c2542+ Fri, 06 Jul 2018 19:26:36 +0100
REM compiler GCC version 9.3.0
REM options -cpp -mtune=generic -march=x86-64 -g -O0
REM seed -1437521287 -687861811 340424238 -1025235442 1957903389 -1065566072 884317641 -1186026145 -337084256 -1073499456 -1943052625 2121552722 -1174408726 1132923997 -1222058124 1710030077 -2005435278 1141006178 -1820940323 1993151323 -991362550 -1578295990 1478846647 596264790 666753180 325867003 1035956268 -826668015 -770116941 -595770546 1999646705 -342168375 -2083947463
REM
CELL 1.54180   50.00000   50.00000   50.00000   90.00000   90.00000   90.00000
LATT -1
SFAC C  
C      1  0.4631080000000  0.4854700000000  0.5005560000000 1.0
C      1  0.4631080000000  0.5145310000000  0.5005570000000 1.0
C      1  0.5070750000000  0.5150080000000  0.4700440000000 1.0
C      1  0.5070740000000  0.4849930000000  0.4700430000000 1.0
C      1  0.4515440000000  0.5151670000000  0.4737850000000 1.0
C      1  0.4515440000000  0.4848350000000  0.4737840000000 1.0
C      1  0.4592150000000  0.4665070000000  0.4565830000000 1.0
C      1  0.4592160000000  0.5334960000000  0.4565840000000 1.0
C      1  0.5160890000000  0.5232070000000  0.5166570000000 1.0
C      1  0.5160890000000  0.4767920000000  0.5166560000000 1.0
C      1  0.5368400000000  0.5144270000000  0.4741860000000 1.0
C      1  0.5368390000000  0.4855730000000  0.4741860000000 1.0
C      1  0.5411100000000  0.4855520000000  0.5040440000000 1.0
C      1  0.5411100000000  0.5144470000000  0.5040450000000 1.0
C      1  0.4947270000000  0.4847970000000  0.4978700000000 1.0
C      1  0.4947280000000  0.5152040000000  0.4978710000000 1.0
C      1  0.5150890000000  0.4707760000000  0.5430520000000 1.0
C      1  0.5150890000000  0.5292220000000  0.5430530000000 1.0
C      1  0.5152030000000  0.5134510000000  0.5632220000000 1.0
C      1  0.5152030000000  0.4865460000000  0.5632220000000 1.0
END
