TITL C-72183-6792-5 348.115454696395 125000 -96.1284939323989 0 0 15 (C5v) n - 1
REM
REM in /rds/project/t2_vol4/rds-t2-cs072/BORA/CARBON/from-Arr/AIRSS/Generating-Clusters/GAP-ML-2020/Higher-Symm/SD-CG/HFTN-CG
REM
REM
REM
REM
REM
REM ./C.cell (b20cbc046b6831c77cfcea5457e17084)
REM AIRSS Version 0.9.1 bugfix July 2018 build 013d7b7c2542+ Fri, 06 Jul 2018 19:26:36 +0100
REM compiler GCC version 9.3.0
REM options -cpp -mtune=generic -march=x86-64 -g -O0
REM seed 1603714854 -1392593038 1906354208 -861800512 2133137415 1325509783 -859966998 -1158233111 -719586526 636186908 -851982262 -1288636449 -1896953850 1875709854 1568611866 201937144 -1303681099 -1187467141 -1601677986 1522411502 810255238 314453566 896641089 -561033335 -1160396540 -941750329 866304153 224609773 -979993760 -1605018999 -1452687202 -1119107084 1371011202
REM
CELL 1.54180   50.00000   50.00000   50.00000   90.00000   90.00000   90.00000
LATT -1
SFAC C  
C      1  0.4796470000000  0.5014830000000  0.5245110000000 1.0
C      1  0.4796460000000  0.5237700000000  0.5061640000000 1.0
C      1  0.4796470000000  0.5132070000000  0.4792980000000 1.0
C      1  0.4796470000000  0.4843930000000  0.4810420000000 1.0
C      1  0.4796470000000  0.4771460000000  0.5089850000000 1.0
C      1  0.5050240000000  0.5373700000000  0.5096900000000 1.0
C      1  0.5050240000000  0.5207640000000  0.4674540000000 1.0
C      1  0.5050240000000  0.4754630000000  0.4701950000000 1.0
C      1  0.5050240000000  0.4640710000000  0.5141260000000 1.0
C      1  0.5050240000000  0.5023320000000  0.5385350000000 1.0
C      1  0.5153300000000  0.4571700000000  0.4888940000000 1.0
C      1  0.5153300000000  0.4762020000000  0.5373020000000 1.0
C      1  0.5153290000000  0.5281220000000  0.5341610000000 1.0
C      1  0.5153290000000  0.5411790000000  0.4838100000000 1.0
C      1  0.5153300000000  0.4973280000000  0.4558340000000 1.0
END
