TITL C-72192-6814-4 -71.0923098025976 125000 -95.2252489026098 0 0 15 (C3v) n - 1
REM
REM in /rds/project/t2_vol4/rds-t2-cs072/BORA/CARBON/from-Arr/AIRSS/Generating-Clusters/GAP-ML-2020/Higher-Symm/SD-CG/HFTN-CG
REM
REM
REM
REM
REM
REM ./C.cell (b20cbc046b6831c77cfcea5457e17084)
REM AIRSS Version 0.9.1 bugfix July 2018 build 013d7b7c2542+ Fri, 06 Jul 2018 19:26:36 +0100
REM compiler GCC version 9.3.0
REM options -cpp -mtune=generic -march=x86-64 -g -O0
REM seed -1632419920 1799618939 1257910125 -365872669 -1261109268 1077864436 1986924895 1194625413 -1218691417 -2136924244 487209305 498680070 -1146303378 -1209541239 580109871 -2077349758 579449588 1589613397 870224490 1623794679 2109435598 -713821520 1429137380 201159786 1494788313 1850312468 2118606233 1448257139 -355467040 215559260 -863830223 969845911 -1213288354
REM
CELL 1.54180   50.00000   50.00000   50.00000   90.00000   90.00000   90.00000
LATT -1
SFAC C  
C      1  0.5090640000000  0.4260600000000  0.4949930000000 1.0
C      1  0.5097150000000  0.5417820000000  0.4388920000000 1.0
C      1  0.5046710000000  0.5324850000000  0.5670620000000 1.0
C      1  0.5002680000000  0.4451410000000  0.5111040000000 1.0
C      1  0.5018430000000  0.5178300000000  0.4469760000000 1.0
C      1  0.4977440000000  0.5370270000000  0.5419140000000 1.0
C      1  0.4962880000000  0.5265670000000  0.4869740000000 1.0
C      1  0.4949810000000  0.4977770000000  0.5293110000000 1.0
C      1  0.4971510000000  0.4754940000000  0.4832480000000 1.0
C      1  0.4975920000000  0.5099920000000  0.5550200000000 1.0
C      1  0.5014470000000  0.4473130000000  0.4811620000000 1.0
C      1  0.5008170000000  0.5426920000000  0.4638120000000 1.0
C      1  0.4973000000000  0.5020520000000  0.4703730000000 1.0
C      1  0.4951310000000  0.5244340000000  0.5163880000000 1.0
C      1  0.4959890000000  0.4733530000000  0.5127720000000 1.0
END
