TITL C-72203-6802-7 -0.154765978281372 125000 -808.591459433591 0 0 123 (D3h) n - 1
REM
REM in /rds/project/t2_vol4/rds-t2-cs072/BORA/CARBON/from-Arr/AIRSS/Generating-Clusters/GAP-ML-2020/Higher-Symm/SD-CG/HFTN-CG
REM
REM
REM
REM
REM
REM ./C.cell (b20cbc046b6831c77cfcea5457e17084)
REM AIRSS Version 0.9.1 bugfix July 2018 build 013d7b7c2542+ Fri, 06 Jul 2018 19:26:36 +0100
REM compiler GCC version 9.3.0
REM options -cpp -mtune=generic -march=x86-64 -g -O0
REM seed 1899059304 -1827409221 -133344256 -1755463192 1498220107 -1432899738 -509993739 -1893874384 445788054 -276714013 87457123 1630352280 -574589925 961950444 555037202 -286144890 -1072509237 -1522823167 2116426855 781715068 757246059 616844610 -1287286609 -900631474 1484211578 -1533853036 -1543689758 1214429592 1715261845 -1062482661 -711414968 -127882931 -343624026
REM
CELL 1.54180   50.00000   50.00000   50.00000   90.00000   90.00000   90.00000
LATT -1
SFAC C  
C      1  0.5217050000000  0.5208600000000  0.5824620000000 1.0
C      1  0.5217030000000  0.4181560000000  0.4768330000000 1.0
C      1  0.5217000000000  0.5609850000000  0.4407030000000 1.0
C      1  0.4782040000000  0.5208590000000  0.5824630000000 1.0
C      1  0.4782020000000  0.4181560000000  0.4768340000000 1.0
C      1  0.4782000000000  0.5609840000000  0.4407050000000 1.0
C      1  0.5217000000000  0.5208630000000  0.4175380000000 1.0
C      1  0.5217040000000  0.4181550000000  0.5231620000000 1.0
C      1  0.5217030000000  0.5609820000000  0.5592980000000 1.0
C      1  0.4781990000000  0.5208630000000  0.4175390000000 1.0
C      1  0.4782040000000  0.4181550000000  0.5231640000000 1.0
C      1  0.4782030000000  0.5609820000000  0.5592990000000 1.0
C      1  0.4258290000000  0.4892970000000  0.5512650000000 1.0
C      1  0.4258270000000  0.4609560000000  0.4651020000000 1.0
C      1  0.4258260000000  0.5497450000000  0.4836390000000 1.0
C      1  0.5740790000000  0.4892980000000  0.5512600000000 1.0
C      1  0.5740760000000  0.4609570000000  0.4650980000000 1.0
C      1  0.5740760000000  0.5497470000000  0.4836350000000 1.0
C      1  0.4258260000000  0.4892990000000  0.4487390000000 1.0
C      1  0.4258290000000  0.4609540000000  0.5349000000000 1.0
C      1  0.4258270000000  0.5497440000000  0.5163670000000 1.0
C      1  0.5740760000000  0.4893010000000  0.4487350000000 1.0
C      1  0.5740780000000  0.4609560000000  0.5348960000000 1.0
C      1  0.5740770000000  0.5497460000000  0.5163630000000 1.0
C      1  0.4714990000000  0.5737340000000  0.5320220000000 1.0
C      1  0.4715010000000  0.4354010000000  0.5478460000000 1.0
C      1  0.4714960000000  0.4908640000000  0.4201350000000 1.0
C      1  0.5284060000000  0.5737340000000  0.5320210000000 1.0
C      1  0.5284080000000  0.4354020000000  0.5478440000000 1.0
C      1  0.5284040000000  0.4908650000000  0.4201330000000 1.0
C      1  0.4714970000000  0.5737350000000  0.4679830000000 1.0
C      1  0.4714980000000  0.4354030000000  0.4521530000000 1.0
C      1  0.4715010000000  0.4908610000000  0.5798670000000 1.0
C      1  0.5284040000000  0.5737360000000  0.4679810000000 1.0
C      1  0.5284050000000  0.4354040000000  0.4521520000000 1.0
C      1  0.5284080000000  0.4908610000000  0.5798650000000 1.0
C      1  0.5584180000000  0.4994330000000  0.4254480000000 1.0
C      1  0.5584200000000  0.5648470000000  0.5367820000000 1.0
C      1  0.5584220000000  0.4357220000000  0.5377650000000 1.0
C      1  0.4414820000000  0.4994320000000  0.4254510000000 1.0
C      1  0.4414850000000  0.5648460000000  0.5367860000000 1.0
C      1  0.4414860000000  0.4357200000000  0.5377680000000 1.0
C      1  0.5584220000000  0.4994300000000  0.5745490000000 1.0
C      1  0.5584180000000  0.5648490000000  0.4632170000000 1.0
C      1  0.5584200000000  0.4357230000000  0.4622290000000 1.0
C      1  0.4414870000000  0.4994290000000  0.5745520000000 1.0
C      1  0.4414830000000  0.5648470000000  0.4632210000000 1.0
C      1  0.4414840000000  0.4357220000000  0.4622320000000 1.0
C      1  0.4758720000000  0.5001970000000  0.5296710000000 1.0
C      1  0.4758710000000  0.4742060000000  0.4853370000000 1.0
C      1  0.4758710000000  0.5255960000000  0.4849950000000 1.0
C      1  0.5240340000000  0.5001980000000  0.5296690000000 1.0
C      1  0.5240330000000  0.4742060000000  0.4853350000000 1.0
C      1  0.5240320000000  0.5255960000000  0.4849930000000 1.0
C      1  0.4758710000000  0.5001990000000  0.4703310000000 1.0
C      1  0.4758720000000  0.4742050000000  0.5146640000000 1.0
C      1  0.4758720000000  0.5255950000000  0.5150080000000 1.0
C      1  0.5240320000000  0.5001990000000  0.4703290000000 1.0
C      1  0.5240340000000  0.4742060000000  0.5146620000000 1.0
C      1  0.5240330000000  0.5255960000000  0.5150060000000 1.0
C      1  0.4856290000000  0.4594370000000  0.5385490000000 1.0
C      1  0.4856260000000  0.4868970000000  0.4455980000000 1.0
C      1  0.4856270000000  0.5536650000000  0.5158550000000 1.0
C      1  0.5142790000000  0.4594370000000  0.5385480000000 1.0
C      1  0.5142760000000  0.4868980000000  0.4455970000000 1.0
C      1  0.5142770000000  0.5536660000000  0.5158540000000 1.0
C      1  0.4856270000000  0.4594380000000  0.4614500000000 1.0
C      1  0.4856290000000  0.4868950000000  0.5544030000000 1.0
C      1  0.4856260000000  0.5536660000000  0.4841480000000 1.0
C      1  0.5142760000000  0.4594390000000  0.4614490000000 1.0
C      1  0.5142790000000  0.4868960000000  0.5544020000000 1.0
C      1  0.5142760000000  0.5536660000000  0.4841470000000 1.0
C      1  0.4055880000000  0.5255950000000  0.4857170000000 1.0
C      1  0.4055900000000  0.4995720000000  0.5293130000000 1.0
C      1  0.4055890000000  0.4748290000000  0.4849790000000 1.0
C      1  0.5943150000000  0.5255970000000  0.4857120000000 1.0
C      1  0.5943160000000  0.4995750000000  0.5293070000000 1.0
C      1  0.5943150000000  0.4748310000000  0.4849730000000 1.0
C      1  0.4055890000000  0.5255950000000  0.5142890000000 1.0
C      1  0.4055880000000  0.4995740000000  0.4706930000000 1.0
C      1  0.4055900000000  0.4748290000000  0.5150260000000 1.0
C      1  0.5943160000000  0.5255970000000  0.5142840000000 1.0
C      1  0.5943150000000  0.4995760000000  0.4706870000000 1.0
C      1  0.5943160000000  0.4748310000000  0.5150200000000 1.0
C      1  0.5145370000000  0.4392070000000  0.5747040000000 1.0
C      1  0.5145320000000  0.4657010000000  0.4099990000000 1.0
C      1  0.5145340000000  0.5950930000000  0.5152960000000 1.0
C      1  0.4853730000000  0.4392070000000  0.5747050000000 1.0
C      1  0.4853680000000  0.4657000000000  0.4100000000000 1.0
C      1  0.4853690000000  0.5950920000000  0.5152960000000 1.0
C      1  0.5145330000000  0.4392100000000  0.4252920000000 1.0
C      1  0.5145370000000  0.4656970000000  0.5899990000000 1.0
C      1  0.5145330000000  0.5950930000000  0.4847080000000 1.0
C      1  0.4853690000000  0.4392100000000  0.4252930000000 1.0
C      1  0.4853730000000  0.4656960000000  0.5900000000000 1.0
C      1  0.4853690000000  0.5950930000000  0.4847080000000 1.0
C      1  0.4448190000000  0.4743950000000  0.5146730000000 1.0
C      1  0.4448170000000  0.5000960000000  0.4704920000000 1.0
C      1  0.4448180000000  0.5255070000000  0.5148400000000 1.0
C      1  0.5550870000000  0.4743960000000  0.5146700000000 1.0
C      1  0.5550860000000  0.5000970000000  0.4704890000000 1.0
C      1  0.5550870000000  0.5255090000000  0.5148370000000 1.0
C      1  0.4448180000000  0.4743950000000  0.4853290000000 1.0
C      1  0.4448190000000  0.5000950000000  0.5295110000000 1.0
C      1  0.4448170000000  0.5255080000000  0.4851640000000 1.0
C      1  0.5550860000000  0.4743970000000  0.4853260000000 1.0
C      1  0.5550870000000  0.5000960000000  0.5295080000000 1.0
C      1  0.5550860000000  0.5255090000000  0.4851610000000 1.0
C      1  0.4509130000000  0.5273500000000  0.4235900000000 1.0
C      1  0.4509170000000  0.5524980000000  0.5618940000000 1.0
C      1  0.4509170000000  0.4201500000000  0.5145210000000 1.0
C      1  0.5489870000000  0.5273520000000  0.4235870000000 1.0
C      1  0.5489900000000  0.5524990000000  0.5618910000000 1.0
C      1  0.5489910000000  0.4201510000000  0.5145180000000 1.0
C      1  0.4509170000000  0.5273470000000  0.5764140000000 1.0
C      1  0.4509130000000  0.5525010000000  0.4381110000000 1.0
C      1  0.4509160000000  0.4201500000000  0.4854790000000 1.0
C      1  0.5489910000000  0.5273480000000  0.5764110000000 1.0
C      1  0.5489870000000  0.5525020000000  0.4381080000000 1.0
C      1  0.5489900000000  0.4201510000000  0.4854760000000 1.0
C      1  0.4999530000000  0.4203130000000  0.4999980000000 1.0
C      1  0.4999540000000  0.5398420000000  0.5690110000000 1.0
C      1  0.4999500000000  0.5398450000000  0.4309900000000 1.0
END
