TITL C-72195-6770-5 -32.4980707670197 125000 -444.760928990424 0 0 67 (C2v) n - 1
REM
REM in /rds/project/t2_vol4/rds-t2-cs072/BORA/CARBON/from-Arr/AIRSS/Generating-Clusters/GAP-ML-2020/Higher-Symm/SD-CG/HFTN-CG
REM
REM
REM
REM
REM
REM ./C.cell (b20cbc046b6831c77cfcea5457e17084)
REM AIRSS Version 0.9.1 bugfix July 2018 build 013d7b7c2542+ Fri, 06 Jul 2018 19:26:36 +0100
REM compiler GCC version 9.3.0
REM options -cpp -mtune=generic -march=x86-64 -g -O0
REM seed -1695962975 397992537 539210442 1524227329 -1764348279 -676221929 -550692240 -335260766 1777261187 1247969380 -7545382 -776800376 1927435878 -2001813854 353245479 -894161575 -1502821496 -222408481 -1130500177 2123177550 -1567705795 1339481098 891940909 333445019 -910471137 -653661869 1821893224 352086950 2136127773 1292262536 569064556 1695004183 304967722
REM
CELL 1.54180   50.00000   50.00000   50.00000   90.00000   90.00000   90.00000
LATT -1
SFAC C  
C      1  0.5478030000000  0.5340920000000  0.5300030000000 1.0
C      1  0.4496960000000  0.5320630000000  0.5272140000000 1.0
C      1  0.4997290000000  0.5330880000000  0.4430860000000 1.0
C      1  0.5478000000000  0.4651010000000  0.5300020000000 1.0
C      1  0.4496930000000  0.4671380000000  0.5272130000000 1.0
C      1  0.4997270000000  0.4661110000000  0.4430850000000 1.0
C      1  0.5477830000000  0.5340920000000  0.4699630000000 1.0
C      1  0.4496780000000  0.5320630000000  0.4728170000000 1.0
C      1  0.4997670000000  0.5330860000000  0.5569120000000 1.0
C      1  0.5477800000000  0.4651020000000  0.4699630000000 1.0
C      1  0.4496750000000  0.4671380000000  0.4728160000000 1.0
C      1  0.4997640000000  0.4661100000000  0.5569110000000 1.0
C      1  0.5474430000000  0.5601860000000  0.5257500000000 1.0
C      1  0.4544030000000  0.5582800000000  0.5249800000000 1.0
C      1  0.4990310000000  0.5596140000000  0.4466360000000 1.0
C      1  0.5474380000000  0.4390070000000  0.5257490000000 1.0
C      1  0.4543990000000  0.4409200000000  0.5249790000000 1.0
C      1  0.4990270000000  0.4395850000000  0.4466350000000 1.0
C      1  0.5474260000000  0.5601860000000  0.4742160000000 1.0
C      1  0.4543870000000  0.5582800000000  0.4750480000000 1.0
C      1  0.4990660000000  0.5596130000000  0.5533630000000 1.0
C      1  0.5474210000000  0.4390070000000  0.4742160000000 1.0
C      1  0.4543820000000  0.4409210000000  0.4750470000000 1.0
C      1  0.4990620000000  0.4395840000000  0.5533610000000 1.0
C      1  0.5001270000000  0.4247600000000  0.4706710000000 1.0
C      1  0.5254640000000  0.4244830000000  0.5144710000000 1.0
C      1  0.4748650000000  0.4247880000000  0.5145810000000 1.0
C      1  0.5001320000000  0.5744380000000  0.4706730000000 1.0
C      1  0.5254700000000  0.5747120000000  0.5144730000000 1.0
C      1  0.4748710000000  0.5744110000000  0.5145820000000 1.0
C      1  0.5001460000000  0.4247600000000  0.5293240000000 1.0
C      1  0.5254540000000  0.4244830000000  0.4855080000000 1.0
C      1  0.4748560000000  0.4247880000000  0.4854310000000 1.0
C      1  0.5001520000000  0.5744370000000  0.5293260000000 1.0
C      1  0.5254600000000  0.5747120000000  0.4855090000000 1.0
C      1  0.4748610000000  0.5744110000000  0.4854330000000 1.0
C      1  0.5241110000000  0.5236840000000  0.4849160000000 1.0
C      1  0.4988550000000  0.5246540000000  0.5287940000000 1.0
C      1  0.4751030000000  0.5245120000000  0.4856730000000 1.0
C      1  0.5241090000000  0.4755110000000  0.4849150000000 1.0
C      1  0.4988530000000  0.4745430000000  0.5287930000000 1.0
C      1  0.4751010000000  0.4746870000000  0.4856720000000 1.0
C      1  0.5241210000000  0.5236840000000  0.5150660000000 1.0
C      1  0.4988360000000  0.5246550000000  0.4712050000000 1.0
C      1  0.4751130000000  0.5245120000000  0.5143410000000 1.0
C      1  0.5241190000000  0.4755110000000  0.5150650000000 1.0
C      1  0.4988340000000  0.4745430000000  0.4712040000000 1.0
C      1  0.4751100000000  0.4746870000000  0.5143400000000 1.0
C      1  0.4278490000000  0.5142410000000  0.4748810000000 1.0
C      1  0.5563130000000  0.5145060000000  0.4506320000000 1.0
C      1  0.5116530000000  0.5141830000000  0.5747230000000 1.0
C      1  0.4278480000000  0.4849620000000  0.4748810000000 1.0
C      1  0.5563120000000  0.4846870000000  0.4506320000000 1.0
C      1  0.5116520000000  0.4850120000000  0.5747230000000 1.0
C      1  0.4278660000000  0.5142410000000  0.5251640000000 1.0
C      1  0.5563460000000  0.5145050000000  0.5493280000000 1.0
C      1  0.5116040000000  0.5141840000000  0.4252660000000 1.0
C      1  0.4278640000000  0.4849610000000  0.5251640000000 1.0
C      1  0.5563440000000  0.4846860000000  0.5493270000000 1.0
C      1  0.5116020000000  0.4850140000000  0.4252660000000 1.0
C      1  0.5412300000000  0.4847980000000  0.4250580000000 1.0
C      1  0.5412310000000  0.5143980000000  0.4250580000000 1.0
C      1  0.4120880000000  0.5147650000000  0.5000280000000 1.0
C      1  0.5412790000000  0.4847960000000  0.5749110000000 1.0
C      1  0.5412800000000  0.5143960000000  0.5749120000000 1.0
C      1  0.4120870000000  0.4844390000000  0.5000270000000 1.0
C      1  0.5310780000000  0.4995970000000  0.4999880000000 1.0
END
