TITL C-72181-6712-5 499.743554240599 125000 -311.66063152359 0 0 44 (D3h) n - 1
REM
REM in /rds/project/t2_vol4/rds-t2-cs072/BORA/CARBON/from-Arr/AIRSS/Generating-Clusters/GAP-ML-2020/Higher-Symm/SD-CG/HFTN-CG
REM
REM
REM
REM
REM
REM ./C.cell (b20cbc046b6831c77cfcea5457e17084)
REM AIRSS Version 0.9.1 bugfix July 2018 build 013d7b7c2542+ Fri, 06 Jul 2018 19:26:36 +0100
REM compiler GCC version 9.3.0
REM options -cpp -mtune=generic -march=x86-64 -g -O0
REM seed -1325704752 -214940651 1206365780 -1584538033 1218285366 -1550097045 -117116004 445164170 474186609 -1509353314 1860505207 40391985 2101532123 -1418790600 1040897964 1504362920 -1858282877 888189870 192082883 -2066981709 -1589912079 2116685736 -856883367 327623405 -237580021 22094266 690503683 1273651665 774869919 -682791597 101575233 -1797020796 -2041318365
REM
CELL 1.54180   50.00000   50.00000   50.00000   90.00000   90.00000   90.00000
LATT -1
SFAC C  
C      1  0.5467340000000  0.5089280000000  0.5174480000000 1.0
C      1  0.4841430000000  0.4542070000000  0.5133860000000 1.0
C      1  0.4679360000000  0.5357520000000  0.5174350000000 1.0
C      1  0.5472630000000  0.5104640000000  0.4886140000000 1.0
C      1  0.4846710000000  0.4557440000000  0.4845520000000 1.0
C      1  0.4684640000000  0.5372890000000  0.4886010000000 1.0
C      1  0.4527150000000  0.5101580000000  0.5157920000000 1.0
C      1  0.5139590000000  0.4538170000000  0.5139120000000 1.0
C      1  0.5321390000000  0.5349120000000  0.5185660000000 1.0
C      1  0.4532430000000  0.5116940000000  0.4869580000000 1.0
C      1  0.5144870000000  0.4553540000000  0.4850780000000 1.0
C      1  0.5326670000000  0.5364490000000  0.4897310000000 1.0
C      1  0.4606420000000  0.5028050000000  0.5624110000000 1.0
C      1  0.5226820000000  0.5272630000000  0.5648500000000 1.0
C      1  0.5129220000000  0.4613520000000  0.5611600000000 1.0
C      1  0.4628810000000  0.5093200000000  0.4401430000000 1.0
C      1  0.5249220000000  0.5337780000000  0.4425820000000 1.0
C      1  0.5151610000000  0.4678670000000  0.4388910000000 1.0
C      1  0.5369810000000  0.5018060000000  0.5637560000000 1.0
C      1  0.4755540000000  0.5278790000000  0.5640200000000 1.0
C      1  0.4837110000000  0.4617340000000  0.5606450000000 1.0
C      1  0.5392200000000  0.5083210000000  0.4414870000000 1.0
C      1  0.4777930000000  0.5343940000000  0.4417520000000 1.0
C      1  0.4859510000000  0.4682490000000  0.4383770000000 1.0
C      1  0.4566560000000  0.4949610000000  0.4647770000000 1.0
C      1  0.5160550000000  0.5439160000000  0.4684730000000 1.0
C      1  0.5288560000000  0.4680210000000  0.4646640000000 1.0
C      1  0.4553490000000  0.4911570000000  0.5361800000000 1.0
C      1  0.5147470000000  0.5401120000000  0.5398760000000 1.0
C      1  0.5275480000000  0.4642160000000  0.5360670000000 1.0
C      1  0.5441970000000  0.4938160000000  0.4663190000000 1.0
C      1  0.4860040000000  0.5443100000000  0.4679440000000 1.0
C      1  0.4713660000000  0.4687730000000  0.4636510000000 1.0
C      1  0.5428880000000  0.4900110000000  0.5377220000000 1.0
C      1  0.4846970000000  0.5405050000000  0.5393470000000 1.0
C      1  0.4700590000000  0.4649680000000  0.5350540000000 1.0
C      1  0.4750530000000  0.4831670000000  0.5782220000000 1.0
C      1  0.5215140000000  0.4825590000000  0.5790400000000 1.0
C      1  0.5016160000000  0.5313260000000  0.4254310000000 1.0
C      1  0.5243590000000  0.4908370000000  0.4236910000000 1.0
C      1  0.4987710000000  0.5230480000000  0.5807810000000 1.0
C      1  0.4778980000000  0.4914450000000  0.4228720000000 1.0
C      1  0.4982660000000  0.4957340000000  0.5891880000000 1.0
C      1  0.5014710000000  0.5050600000000  0.4141570000000 1.0
END
