TITL C-72182-6742-10 -0.105415845494376 125000 -948.502361024595 0 0 139 (C1) n - 1
REM
REM in /rds/project/t2_vol4/rds-t2-cs072/BORA/CARBON/from-Arr/AIRSS/Generating-Clusters/GAP-ML-2020/Higher-Symm/SD-CG/HFTN-CG
REM
REM
REM
REM
REM
REM ./C.cell (b20cbc046b6831c77cfcea5457e17084)
REM AIRSS Version 0.9.1 bugfix July 2018 build 013d7b7c2542+ Fri, 06 Jul 2018 19:26:36 +0100
REM compiler GCC version 9.3.0
REM options -cpp -mtune=generic -march=x86-64 -g -O0
REM seed 1937267826 -443951971 -815970572 764700916 1139979765 407834223 -219261739 1952183964 -87953233 474712831 638940575 -1285966308 1440128382 -356933568 1701663712 864558567 1472842176 -1544603384 1245662433 -788494960 -822485315 850089599 889901780 -1501036403 1618649425 -1033216021 -828445861 -1026026305 1834525319 -1303685458 -1510034112 1018937937 608913151
REM
CELL 1.54180   50.00000   50.00000   50.00000   90.00000   90.00000   90.00000
LATT -1
SFAC C  
C      1  0.5300390000000  0.4236020000000  0.5578430000000 1.0
C      1  0.5122600000000  0.5738660000000  0.5253620000000 1.0
C      1  0.5211350000000  0.4863210000000  0.4157260000000 1.0
C      1  0.4843940000000  0.4403340000000  0.4486290000000 1.0
C      1  0.4802120000000  0.5810260000000  0.4646050000000 1.0
C      1  0.4703240000000  0.4825690000000  0.5948230000000 1.0
C      1  0.4716590000000  0.5737230000000  0.4364000000000 1.0
C      1  0.4833040000000  0.4234770000000  0.4729770000000 1.0
C      1  0.4800750000000  0.5101960000000  0.5883180000000 1.0
C      1  0.5140180000000  0.5591390000000  0.5522160000000 1.0
C      1  0.5208630000000  0.4159470000000  0.5302790000000 1.0
C      1  0.5307100000000  0.5133970000000  0.4059940000000 1.0
C      1  0.5844060000000  0.5319580000000  0.4536110000000 1.0
C      1  0.5816330000000  0.4421910000000  0.4953450000000 1.0
C      1  0.5810310000000  0.5240380000000  0.5511440000000 1.0
C      1  0.4165910000000  0.5339440000000  0.5483830000000 1.0
C      1  0.4214070000000  0.4463280000000  0.5070510000000 1.0
C      1  0.4153370000000  0.5249150000000  0.4478360000000 1.0
C      1  0.4182500000000  0.4710210000000  0.5487390000000 1.0
C      1  0.4136640000000  0.5613050000000  0.5037180000000 1.0
C      1  0.4194770000000  0.4761450000000  0.4500320000000 1.0
C      1  0.5846850000000  0.4645520000000  0.4511920000000 1.0
C      1  0.5808280000000  0.5564600000000  0.4955760000000 1.0
C      1  0.5823430000000  0.4753080000000  0.5501270000000 1.0
C      1  0.4465970000000  0.5321040000000  0.5532820000000 1.0
C      1  0.4451880000000  0.5301910000000  0.4472920000000 1.0
C      1  0.4509370000000  0.4434510000000  0.5028270000000 1.0
C      1  0.5548630000000  0.5291580000000  0.4489800000000 1.0
C      1  0.5507030000000  0.5259440000000  0.5513920000000 1.0
C      1  0.5517610000000  0.4386980000000  0.4964350000000 1.0
C      1  0.5544820000000  0.4664280000000  0.4476890000000 1.0
C      1  0.5532540000000  0.4695420000000  0.5485310000000 1.0
C      1  0.5501670000000  0.5579330000000  0.4966540000000 1.0
C      1  0.4478390000000  0.4732210000000  0.5490780000000 1.0
C      1  0.4501630000000  0.4753010000000  0.4490900000000 1.0
C      1  0.4434700000000  0.5646010000000  0.4977530000000 1.0
C      1  0.5172610000000  0.4623660000000  0.5864890000000 1.0
C      1  0.5195360000000  0.5989140000000  0.4854980000000 1.0
C      1  0.5184850000000  0.4396660000000  0.4203590000000 1.0
C      1  0.4816120000000  0.4618350000000  0.4080180000000 1.0
C      1  0.4809180000000  0.6024900000000  0.5044770000000 1.0
C      1  0.4834170000000  0.4409280000000  0.5724750000000 1.0
C      1  0.4844340000000  0.5350500000000  0.4103060000000 1.0
C      1  0.4818670000000  0.3981040000000  0.5102310000000 1.0
C      1  0.4823940000000  0.5556880000000  0.5870340000000 1.0
C      1  0.5203250000000  0.5360570000000  0.5932830000000 1.0
C      1  0.5189100000000  0.3982630000000  0.4859680000000 1.0
C      1  0.5186180000000  0.5579780000000  0.4232560000000 1.0
C      1  0.4018560000000  0.5579460000000  0.5477420000000 1.0
C      1  0.4018210000000  0.5108400000000  0.4273200000000 1.0
C      1  0.4126920000000  0.4372340000000  0.5320490000000 1.0
C      1  0.5945420000000  0.5574680000000  0.4583140000000 1.0
C      1  0.5952950000000  0.5172940000000  0.5758120000000 1.0
C      1  0.5950890000000  0.4332720000000  0.4725540000000 1.0
C      1  0.6015600000000  0.4420540000000  0.4488720000000 1.0
C      1  0.5900250000000  0.4925870000000  0.5705070000000 1.0
C      1  0.5957910000000  0.5739800000000  0.4781010000000 1.0
C      1  0.4071470000000  0.4456710000000  0.5560420000000 1.0
C      1  0.4042500000000  0.4851790000000  0.4277120000000 1.0
C      1  0.3994510000000  0.5714920000000  0.5253220000000 1.0
C      1  0.5434720000000  0.4832100000000  0.5206120000000 1.0
C      1  0.5444140000000  0.5282610000000  0.4986780000000 1.0
C      1  0.5546180000000  0.4840070000000  0.4741210000000 1.0
C      1  0.4563700000000  0.4894180000000  0.4754360000000 1.0
C      1  0.4428790000000  0.5325560000000  0.4995290000000 1.0
C      1  0.4527560000000  0.4913650000000  0.5243160000000 1.0
C      1  0.4522680000000  0.5191490000000  0.4754780000000 1.0
C      1  0.4605820000000  0.4754370000000  0.5012770000000 1.0
C      1  0.4559020000000  0.5212740000000  0.5237950000000 1.0
C      1  0.5443470000000  0.5132730000000  0.5242000000000 1.0
C      1  0.5400480000000  0.4689200000000  0.4947540000000 1.0
C      1  0.5461000000000  0.5118330000000  0.4735400000000 1.0
C      1  0.5407480000000  0.5668690000000  0.5223780000000 1.0
C      1  0.5487180000000  0.4844450000000  0.4267280000000 1.0
C      1  0.5509450000000  0.4400710000000  0.5470670000000 1.0
C      1  0.4520980000000  0.5730190000000  0.4719750000000 1.0
C      1  0.4489350000000  0.4863430000000  0.5754280000000 1.0
C      1  0.4566850000000  0.4477310000000  0.4534420000000 1.0
C      1  0.4560440000000  0.4328100000000  0.4770410000000 1.0
C      1  0.4529570000000  0.5146360000000  0.5752030000000 1.0
C      1  0.4490880000000  0.5592520000000  0.4470890000000 1.0
C      1  0.5473770000000  0.4273050000000  0.5219970000000 1.0
C      1  0.5524820000000  0.5125870000000  0.4248630000000 1.0
C      1  0.5418940000000  0.5531060000000  0.5465610000000 1.0
C      1  0.5140130000000  0.5345980000000  0.4066720000000 1.0
C      1  0.5107560000000  0.3943160000000  0.5140880000000 1.0
C      1  0.5106130000000  0.5606170000000  0.5808770000000 1.0
C      1  0.4918460000000  0.5327670000000  0.6024310000000 1.0
C      1  0.4887580000000  0.3973770000000  0.4824970000000 1.0
C      1  0.4891990000000  0.5619140000000  0.4197020000000 1.0
C      1  0.4877870000000  0.4621680000000  0.5914250000000 1.0
C      1  0.4910970000000  0.6047700000000  0.4773470000000 1.0
C      1  0.4889660000000  0.4373030000000  0.4209560000000 1.0
C      1  0.5115010000000  0.4621170000000  0.4034980000000 1.0
C      1  0.5088610000000  0.5996000000000  0.5126850000000 1.0
C      1  0.5125070000000  0.4365250000000  0.5740770000000 1.0
C      1  0.5006520000000  0.5123200000000  0.5643790000000 1.0
C      1  0.5086640000000  0.5363890000000  0.4633710000000 1.0
C      1  0.5049430000000  0.4371790000000  0.4903820000000 1.0
C      1  0.4920420000000  0.5140230000000  0.4510600000000 1.0
C      1  0.4931380000000  0.5365140000000  0.5482410000000 1.0
C      1  0.4995680000000  0.4349450000000  0.5195190000000 1.0
C      1  0.5002000000000  0.4868810000000  0.4390130000000 1.0
C      1  0.4937010000000  0.4634420000000  0.5329620000000 1.0
C      1  0.4901230000000  0.5586340000000  0.5085120000000 1.0
C      1  0.5079680000000  0.4870480000000  0.5494270000000 1.0
C      1  0.5061740000000  0.4626540000000  0.4561080000000 1.0
C      1  0.4999420000000  0.5605250000000  0.4791180000000 1.0
C      1  0.5312170000000  0.4449660000000  0.4484690000000 1.0
C      1  0.5320100000000  0.4818060000000  0.5691200000000 1.0
C      1  0.5306900000000  0.5715760000000  0.4761790000000 1.0
C      1  0.4693720000000  0.4495860000000  0.5470550000000 1.0
C      1  0.4701870000000  0.4847410000000  0.4266200000000 1.0
C      1  0.4668970000000  0.5776930000000  0.5107530000000 1.0
C      1  0.4693230000000  0.5491260000000  0.5621420000000 1.0
C      1  0.4687340000000  0.5167870000000  0.4285420000000 1.0
C      1  0.4694880000000  0.4278580000000  0.5224200000000 1.0
C      1  0.5324370000000  0.5525490000000  0.4493740000000 1.0
C      1  0.5314570000000  0.5144610000000  0.5738820000000 1.0
C      1  0.5309610000000  0.4252220000000  0.4773480000000 1.0
C      1  0.5923150000000  0.4699270000000  0.5004110000000 1.0
C      1  0.5933000000000  0.5138350000000  0.5247190000000 1.0
C      1  0.5941890000000  0.5141500000000  0.4753310000000 1.0
C      1  0.4084580000000  0.4728090000000  0.5013150000000 1.0
C      1  0.4052300000000  0.5148500000000  0.4748230000000 1.0
C      1  0.4062680000000  0.5160200000000  0.5261970000000 1.0
C      1  0.4119410000000  0.5302900000000  0.5003620000000 1.0
C      1  0.4069530000000  0.4864600000000  0.4760640000000 1.0
C      1  0.4062860000000  0.4875490000000  0.5256760000000 1.0
C      1  0.5937760000000  0.5283180000000  0.4999540000000 1.0
C      1  0.5937360000000  0.4852120000000  0.5244700000000 1.0
C      1  0.5863320000000  0.4843980000000  0.4754860000000 1.0
C      1  0.4785290000000  0.5088880000000  0.4760730000000 1.0
C      1  0.5189140000000  0.4995830000000  0.5257660000000 1.0
C      1  0.4849450000000  0.5309150000000  0.5200120000000 1.0
C      1  0.4901720000000  0.4777190000000  0.5061490000000 1.0
C      1  0.5203590000000  0.5199670000000  0.4843810000000 1.0
C      1  0.5098440000000  0.4654070000000  0.4859540000000 1.0
C      1  0.4982370000000  0.5085570000000  0.5032470000000 1.0
END
