TITL C-72194-6819-1 35.6832599696401 125000 -692.031001934948 0 0 102 (C1) n - 1
REM
REM in /rds/project/t2_vol4/rds-t2-cs072/BORA/CARBON/from-Arr/AIRSS/Generating-Clusters/GAP-ML-2020/Higher-Symm/SD-CG/HFTN-CG
REM
REM
REM
REM
REM
REM ./C.cell (b20cbc046b6831c77cfcea5457e17084)
REM AIRSS Version 0.9.1 bugfix July 2018 build 013d7b7c2542+ Fri, 06 Jul 2018 19:26:36 +0100
REM compiler GCC version 9.3.0
REM options -cpp -mtune=generic -march=x86-64 -g -O0
REM seed -1798611353 -918881497 952061914 -1241723684 -1011991046 1823785017 807871958 1843229474 1727070117 1135051553 -837554059 -1253489861 1178841674 1338298342 -934154424 -683942903 1297028977 -1934380639 -2139190874 -377209995 -2039143380 1263876296 -2040499340 2025758264 -768399161 -1815490996 723332735 793597988 1411020145 -1254264205 -921059431 1238714738 -1015759125
REM
CELL 1.54180   50.00000   50.00000   50.00000   90.00000   90.00000   90.00000
LATT -1
SFAC C  
C      1  0.4434890000000  0.5203020000000  0.4532160000000 1.0
C      1  0.4328280000000  0.5553000000000  0.4822410000000 1.0
C      1  0.4411850000000  0.5430640000000  0.5299220000000 1.0
C      1  0.4410050000000  0.5029880000000  0.5554700000000 1.0
C      1  0.4410200000000  0.4584110000000  0.5391060000000 1.0
C      1  0.4410320000000  0.4430740000000  0.4938820000000 1.0
C      1  0.4409350000000  0.4686850000000  0.4542370000000 1.0
C      1  0.4180600000000  0.5304110000000  0.4916060000000 1.0
C      1  0.4196960000000  0.5257630000000  0.5197630000000 1.0
C      1  0.4207530000000  0.5005660000000  0.5339840000000 1.0
C      1  0.4206360000000  0.4733850000000  0.5239610000000 1.0
C      1  0.4209200000000  0.4645480000000  0.4963470000000 1.0
C      1  0.4212620000000  0.4813140000000  0.4726670000000 1.0
C      1  0.4215940000000  0.5102430000000  0.4711720000000 1.0
C      1  0.4461830000000  0.5033660000000  0.5833500000000 1.0
C      1  0.4460680000000  0.4362370000000  0.5561340000000 1.0
C      1  0.4463830000000  0.4159910000000  0.4869110000000 1.0
C      1  0.4463140000000  0.4574980000000  0.4288090000000 1.0
C      1  0.4441900000000  0.5302190000000  0.4241170000000 1.0
C      1  0.4418610000000  0.5815170000000  0.4804740000000 1.0
C      1  0.4469740000000  0.5652000000000  0.5467560000000 1.0
C      1  0.4671920000000  0.4594950000000  0.4976800000000 1.0
C      1  0.4676220000000  0.4743990000000  0.4687580000000 1.0
C      1  0.4688140000000  0.5049900000000  0.4640320000000 1.0
C      1  0.4555400000000  0.5428550000000  0.4699590000000 1.0
C      1  0.4666520000000  0.5285370000000  0.5207770000000 1.0
C      1  0.4670930000000  0.5028600000000  0.5385750000000 1.0
C      1  0.4670760000000  0.4717510000000  0.5283830000000 1.0
C      1  0.5443650000000  0.4625810000000  0.4934640000000 1.0
C      1  0.5464600000000  0.4814750000000  0.4686700000000 1.0
C      1  0.5451940000000  0.5123370000000  0.4707930000000 1.0
C      1  0.5592620000000  0.5250600000000  0.4969360000000 1.0
C      1  0.5448590000000  0.5237100000000  0.5231220000000 1.0
C      1  0.5435670000000  0.4968710000000  0.5374290000000 1.0
C      1  0.5439230000000  0.4693820000000  0.5238140000000 1.0
C      1  0.5241630000000  0.4126770000000  0.5150790000000 1.0
C      1  0.5248220000000  0.4335350000000  0.4429520000000 1.0
C      1  0.5242710000000  0.5035990000000  0.4148310000000 1.0
C      1  0.5194180000000  0.5723880000000  0.4462650000000 1.0
C      1  0.5251800000000  0.5745420000000  0.5182410000000 1.0
C      1  0.5240230000000  0.5312230000000  0.5794960000000 1.0
C      1  0.5236880000000  0.4557910000000  0.5764760000000 1.0
C      1  0.5508460000000  0.5395840000000  0.4584580000000 1.0
C      1  0.5544450000000  0.5525140000000  0.4837150000000 1.0
C      1  0.5521630000000  0.5436410000000  0.5423250000000 1.0
C      1  0.5510380000000  0.4937320000000  0.5646030000000 1.0
C      1  0.5516510000000  0.4459740000000  0.5378570000000 1.0
C      1  0.5524230000000  0.4370610000000  0.4839930000000 1.0
C      1  0.5529280000000  0.4736540000000  0.4423590000000 1.0
C      1  0.4694340000000  0.5736750000000  0.5554620000000 1.0
C      1  0.4686230000000  0.5003210000000  0.5954400000000 1.0
C      1  0.4683500000000  0.4246090000000  0.5613510000000 1.0
C      1  0.4686980000000  0.4046050000000  0.4811570000000 1.0
C      1  0.4686320000000  0.4552030000000  0.4162210000000 1.0
C      1  0.4659470000000  0.5358740000000  0.4124240000000 1.0
C      1  0.4681440000000  0.5872880000000  0.4745760000000 1.0
C      1  0.4917450000000  0.4610040000000  0.5436770000000 1.0
C      1  0.4919130000000  0.4411130000000  0.4987520000000 1.0
C      1  0.4922660000000  0.4632220000000  0.4551490000000 1.0
C      1  0.4925080000000  0.5123960000000  0.4463700000000 1.0
C      1  0.4768920000000  0.5616730000000  0.4621220000000 1.0
C      1  0.4912890000000  0.5463010000000  0.5267070000000 1.0
C      1  0.4916650000000  0.5085130000000  0.5560710000000 1.0
C      1  0.4927550000000  0.5381550000000  0.4254150000000 1.0
C      1  0.4938380000000  0.5917110000000  0.4864870000000 1.0
C      1  0.4954050000000  0.5597210000000  0.5529960000000 1.0
C      1  0.4945920000000  0.4938540000000  0.5825900000000 1.0
C      1  0.4944270000000  0.4308380000000  0.5484540000000 1.0
C      1  0.4948750000000  0.4184860000000  0.4779230000000 1.0
C      1  0.4947750000000  0.4664330000000  0.4250880000000 1.0
C      1  0.5122310000000  0.4635560000000  0.4971300000000 1.0
C      1  0.5121190000000  0.4785540000000  0.4718830000000 1.0
C      1  0.5137530000000  0.5080090000000  0.4691590000000 1.0
C      1  0.4986840000000  0.5509420000000  0.4819660000000 1.0
C      1  0.5129230000000  0.5255190000000  0.5177540000000 1.0
C      1  0.5117800000000  0.5014620000000  0.5346500000000 1.0
C      1  0.5119210000000  0.4735100000000  0.5251910000000 1.0
C      1  0.5398240000000  0.5750130000000  0.4929150000000 1.0
C      1  0.5406840000000  0.5512380000000  0.5650630000000 1.0
C      1  0.5401390000000  0.4791000000000  0.5844960000000 1.0
C      1  0.5402690000000  0.4212510000000  0.5382920000000 1.0
C      1  0.5407580000000  0.4215470000000  0.4648130000000 1.0
C      1  0.5405920000000  0.4786150000000  0.4186450000000 1.0
C      1  0.5356910000000  0.5502960000000  0.4374750000000 1.0
C      1  0.4994060000000  0.4342880000000  0.4545090000000 1.0
C      1  0.4992570000000  0.4947270000000  0.4232840000000 1.0
C      1  0.4933730000000  0.5635750000000  0.4387820000000 1.0
C      1  0.4985130000000  0.5686990000000  0.5071020000000 1.0
C      1  0.4990840000000  0.5352300000000  0.5677800000000 1.0
C      1  0.4986420000000  0.4673970000000  0.5721570000000 1.0
C      1  0.4988920000000  0.4228400000000  0.5213330000000 1.0
C      1  0.5219410000000  0.5317610000000  0.4197970000000 1.0
C      1  0.5196160000000  0.5842300000000  0.4725330000000 1.0
C      1  0.5244960000000  0.5687030000000  0.5466300000000 1.0
C      1  0.5231720000000  0.5037060000000  0.5882770000000 1.0
C      1  0.5229810000000  0.4321740000000  0.5600580000000 1.0
C      1  0.5235160000000  0.4106970000000  0.4864170000000 1.0
C      1  0.5237540000000  0.4550460000000  0.4237670000000 1.0
C      1  0.4723900000000  0.5237060000000  0.4899320000000 1.0
C      1  0.6061570000000  0.5016690000000  0.4931670000000 1.0
C      1  0.5020740000000  0.5241650000000  0.4900790000000 1.0
C      1  0.5858020000000  0.5149160000000  0.4989980000000 1.0
END
