TITL C-72207-6811-1 29.4882416645453 125000 -322.461495549261 0 0 48 (S12) n - 1
REM
REM in /rds/project/t2_vol4/rds-t2-cs072/BORA/CARBON/from-Arr/AIRSS/Generating-Clusters/GAP-ML-2020/Higher-Symm/SD-CG/HFTN-CG
REM
REM
REM
REM
REM
REM ./C.cell (b20cbc046b6831c77cfcea5457e17084)
REM AIRSS Version 0.9.1 bugfix July 2018 build 013d7b7c2542+ Fri, 06 Jul 2018 19:26:36 +0100
REM compiler GCC version 9.3.0
REM options -cpp -mtune=generic -march=x86-64 -g -O0
REM seed -1049486955 1050913782 953010756 -1648796093 781099684 1764929445 1469505070 -921741132 -1447570273 1271222681 1448259039 -1718573179 15002631 707609006 757577382 -1011672751 536249922 -255178677 847215897 -1692266716 -889677718 -952410585 -1901450041 -689933243 447353025 -1774223758 -711316007 553737175 1167345074 -66407355 1577166596 -838750240 1529853673
REM
CELL 1.54180   50.00000   50.00000   50.00000   90.00000   90.00000   90.00000
LATT -1
SFAC C  
C      1  0.5254170000000  0.5125470000000  0.4282760000000 1.0
C      1  0.4505940000000  0.5125470000000  0.4421260000000 1.0
C      1  0.4251770000000  0.5125490000000  0.5138500000000 1.0
C      1  0.4745830000000  0.5125510000000  0.5717230000000 1.0
C      1  0.5494060000000  0.5125510000000  0.5578730000000 1.0
C      1  0.5748230000000  0.5125490000000  0.4861500000000 1.0
C      1  0.4745820000000  0.5125470000000  0.4282770000000 1.0
C      1  0.5494050000000  0.5125480000000  0.4421250000000 1.0
C      1  0.5748230000000  0.5125500000000  0.5138480000000 1.0
C      1  0.5254180000000  0.5125510000000  0.5717230000000 1.0
C      1  0.4505950000000  0.5125500000000  0.5578740000000 1.0
C      1  0.4251770000000  0.5125480000000  0.4861510000000 1.0
C      1  0.4615810000000  0.4658570000000  0.5392270000000 1.0
C      1  0.5147610000000  0.4658580000000  0.5528860000000 1.0
C      1  0.5531810000000  0.4658570000000  0.5136600000000 1.0
C      1  0.5384200000000  0.4658560000000  0.4607750000000 1.0
C      1  0.4852390000000  0.4658550000000  0.4471160000000 1.0
C      1  0.4468200000000  0.4658560000000  0.4863420000000 1.0
C      1  0.5384210000000  0.4658580000000  0.5392260000000 1.0
C      1  0.4852400000000  0.4658580000000  0.5528870000000 1.0
C      1  0.4468200000000  0.4658560000000  0.5136610000000 1.0
C      1  0.4615800000000  0.4658550000000  0.4607760000000 1.0
C      1  0.5147600000000  0.4658550000000  0.4471150000000 1.0
C      1  0.5531810000000  0.4658570000000  0.4863410000000 1.0
C      1  0.4282770000000  0.4874510000000  0.5254190000000 1.0
C      1  0.4861510000000  0.4874530000000  0.5748230000000 1.0
C      1  0.5578740000000  0.4874530000000  0.5494050000000 1.0
C      1  0.5717230000000  0.4874510000000  0.4745820000000 1.0
C      1  0.5138490000000  0.4874490000000  0.4251770000000 1.0
C      1  0.4421260000000  0.4874490000000  0.4505960000000 1.0
C      1  0.5717240000000  0.4874530000000  0.5254170000000 1.0
C      1  0.5138500000000  0.4874530000000  0.5748230000000 1.0
C      1  0.4421270000000  0.4874520000000  0.5494060000000 1.0
C      1  0.4282770000000  0.4874500000000  0.4745830000000 1.0
C      1  0.4861500000000  0.4874490000000  0.4251780000000 1.0
C      1  0.5578740000000  0.4874500000000  0.4505940000000 1.0
C      1  0.4607740000000  0.5341420000000  0.4615800000000 1.0
C      1  0.4471140000000  0.5341430000000  0.5147600000000 1.0
C      1  0.4863400000000  0.5341450000000  0.5531800000000 1.0
C      1  0.5392260000000  0.5341450000000  0.5384190000000 1.0
C      1  0.5528850000000  0.5341440000000  0.4852380000000 1.0
C      1  0.5136590000000  0.5341420000000  0.4468180000000 1.0
C      1  0.5392250000000  0.5341430000000  0.4615790000000 1.0
C      1  0.5528850000000  0.5341440000000  0.5147590000000 1.0
C      1  0.5136600000000  0.5341450000000  0.5531790000000 1.0
C      1  0.4607740000000  0.5341440000000  0.5384190000000 1.0
C      1  0.4471140000000  0.5341430000000  0.4852390000000 1.0
C      1  0.4863400000000  0.5341420000000  0.4468190000000 1.0
END
