TITL C-72192-6814-5 -0.211335431411627 125000 -774.524602873522 0 0 111 (C1) n - 1
REM
REM in /rds/project/t2_vol4/rds-t2-cs072/BORA/CARBON/from-Arr/AIRSS/Generating-Clusters/GAP-ML-2020/Higher-Symm/SD-CG/HFTN-CG
REM
REM
REM
REM
REM
REM ./C.cell (b20cbc046b6831c77cfcea5457e17084)
REM AIRSS Version 0.9.1 bugfix July 2018 build 013d7b7c2542+ Fri, 06 Jul 2018 19:26:36 +0100
REM compiler GCC version 9.3.0
REM options -cpp -mtune=generic -march=x86-64 -g -O0
REM seed 18671607 754524489 -1682729209 -75632427 1056006059 -1523042246 897044609 -381704464 1449063910 278077187 2116537087 -811313183 1736679409 742596712 442391623 866411356 1110911666 1593825573 42791079 -1420974006 1087957337 1206221593 1923624729 -1619630205 831614872 464171113 1416524439 -1577038210 533676664 -126069774 917850842 1338070538 897456566
REM
CELL 1.54180   50.00000   50.00000   50.00000   90.00000   90.00000   90.00000
LATT -1
SFAC C  
C      1  0.5634180000000  0.5548310000000  0.4896720000000 1.0
C      1  0.5143950000000  0.5249560000000  0.4753640000000 1.0
C      1  0.4794350000000  0.5051800000000  0.4351850000000 1.0
C      1  0.4559860000000  0.4395500000000  0.4742230000000 1.0
C      1  0.5308740000000  0.4672380000000  0.4270830000000 1.0
C      1  0.4823100000000  0.5269550000000  0.4804050000000 1.0
C      1  0.4782290000000  0.5695350000000  0.4429750000000 1.0
C      1  0.5362030000000  0.4312300000000  0.4586060000000 1.0
C      1  0.5019660000000  0.5373760000000  0.5219790000000 1.0
C      1  0.5669000000000  0.4693790000000  0.5342100000000 1.0
C      1  0.4687320000000  0.4766390000000  0.5824410000000 1.0
C      1  0.4261630000000  0.5753390000000  0.4604710000000 1.0
C      1  0.5257180000000  0.5506310000000  0.4245370000000 1.0
C      1  0.5060620000000  0.5616900000000  0.4415050000000 1.0
C      1  0.5595790000000  0.4451930000000  0.4678960000000 1.0
C      1  0.4179820000000  0.5271580000000  0.4565490000000 1.0
C      1  0.5809060000000  0.4815440000000  0.4919420000000 1.0
C      1  0.5082370000000  0.5048290000000  0.4268580000000 1.0
C      1  0.4861720000000  0.4212730000000  0.5126630000000 1.0
C      1  0.4618170000000  0.5635570000000  0.5218570000000 1.0
C      1  0.5264720000000  0.4674240000000  0.5550990000000 1.0
C      1  0.4824910000000  0.4722260000000  0.4053050000000 1.0
C      1  0.4601820000000  0.4287420000000  0.5213840000000 1.0
C      1  0.4723870000000  0.5271750000000  0.4514470000000 1.0
C      1  0.5845820000000  0.4621920000000  0.5129880000000 1.0
C      1  0.4455590000000  0.5786860000000  0.4798870000000 1.0
C      1  0.4078090000000  0.5061490000000  0.5017770000000 1.0
C      1  0.5376680000000  0.5364420000000  0.5626590000000 1.0
C      1  0.5472690000000  0.4136520000000  0.5284750000000 1.0
C      1  0.5327150000000  0.5123570000000  0.5783380000000 1.0
C      1  0.4964530000000  0.4642480000000  0.5454280000000 1.0
C      1  0.5239820000000  0.4153670000000  0.4800590000000 1.0
C      1  0.4714480000000  0.5632190000000  0.5495350000000 1.0
C      1  0.4955090000000  0.5730270000000  0.4868880000000 1.0
C      1  0.5563920000000  0.5347840000000  0.5391770000000 1.0
C      1  0.5163160000000  0.5561510000000  0.4682620000000 1.0
C      1  0.4761950000000  0.4741020000000  0.4964780000000 1.0
C      1  0.4759740000000  0.4534340000000  0.5652550000000 1.0
C      1  0.4547250000000  0.4439230000000  0.5459720000000 1.0
C      1  0.5476360000000  0.5929190000000  0.4706330000000 1.0
C      1  0.5255160000000  0.4223190000000  0.5443190000000 1.0
C      1  0.4828720000000  0.5498800000000  0.5033390000000 1.0
C      1  0.5131250000000  0.5521530000000  0.5684740000000 1.0
C      1  0.5241620000000  0.4949330000000  0.5115100000000 1.0
C      1  0.4730000000000  0.5814250000000  0.4691690000000 1.0
C      1  0.4991240000000  0.5728050000000  0.5528820000000 1.0
C      1  0.5479570000000  0.5428840000000  0.5119200000000 1.0
C      1  0.5279780000000  0.5233940000000  0.4164710000000 1.0
C      1  0.5533490000000  0.5179040000000  0.4330970000000 1.0
C      1  0.5119890000000  0.5913310000000  0.5052410000000 1.0
C      1  0.5063790000000  0.4618260000000  0.6007650000000 1.0
C      1  0.5672460000000  0.4275220000000  0.4883500000000 1.0
C      1  0.5063380000000  0.4732460000000  0.4936360000000 1.0
C      1  0.4261640000000  0.5005980000000  0.4473050000000 1.0
C      1  0.5202340000000  0.5016310000000  0.4562150000000 1.0
C      1  0.4587810000000  0.5492130000000  0.4389160000000 1.0
C      1  0.4625710000000  0.4950900000000  0.4122420000000 1.0
C      1  0.4313400000000  0.4813130000000  0.4686130000000 1.0
C      1  0.4319080000000  0.5515540000000  0.4482890000000 1.0
C      1  0.5254430000000  0.4383180000000  0.5668700000000 1.0
C      1  0.5093730000000  0.4794900000000  0.4133370000000 1.0
C      1  0.4461530000000  0.5219920000000  0.5679790000000 1.0
C      1  0.5835820000000  0.4342080000000  0.5102090000000 1.0
C      1  0.5498470000000  0.5466560000000  0.4403380000000 1.0
C      1  0.5465270000000  0.5624270000000  0.4665450000000 1.0
C      1  0.5488250000000  0.4904290000000  0.4472510000000 1.0
C      1  0.4793610000000  0.4774890000000  0.4508570000000 1.0
C      1  0.5845870000000  0.5071500000000  0.5063840000000 1.0
C      1  0.5052930000000  0.4790310000000  0.4658780000000 1.0
C      1  0.5227840000000  0.4527900000000  0.5089890000000 1.0
C      1  0.4186420000000  0.5467050000000  0.5057090000000 1.0
C      1  0.5660910000000  0.4741680000000  0.4667180000000 1.0
C      1  0.5447770000000  0.4129060000000  0.4987790000000 1.0
C      1  0.4667260000000  0.5422520000000  0.5694890000000 1.0
C      1  0.5343410000000  0.5174450000000  0.4961350000000 1.0
C      1  0.4931810000000  0.5356090000000  0.5807470000000 1.0
C      1  0.4584980000000  0.4687060000000  0.4700940000000 1.0
C      1  0.4383660000000  0.5675950000000  0.5062930000000 1.0
C      1  0.4373700000000  0.4958410000000  0.4215500000000 1.0
C      1  0.5246540000000  0.5561940000000  0.5209240000000 1.0
C      1  0.4927650000000  0.4353810000000  0.4399360000000 1.0
C      1  0.4325400000000  0.4613460000000  0.5398110000000 1.0
C      1  0.4290100000000  0.4853470000000  0.5548300000000 1.0
C      1  0.4478700000000  0.4931160000000  0.5756360000000 1.0
C      1  0.5380540000000  0.4702150000000  0.5270650000000 1.0
C      1  0.4102630000000  0.5286490000000  0.4833750000000 1.0
C      1  0.5745340000000  0.5127130000000  0.5358090000000 1.0
C      1  0.4651340000000  0.5121280000000  0.4960950000000 1.0
C      1  0.4693920000000  0.4935790000000  0.5151150000000 1.0
C      1  0.4954870000000  0.4159840000000  0.4856600000000 1.0
C      1  0.4802270000000  0.4578280000000  0.4286690000000 1.0
C      1  0.4174640000000  0.4803500000000  0.4937630000000 1.0
C      1  0.5020460000000  0.4413100000000  0.5832440000000 1.0
C      1  0.5329220000000  0.6016660000000  0.4896910000000 1.0
C      1  0.4429210000000  0.4375710000000  0.5002790000000 1.0
C      1  0.4250290000000  0.5142440000000  0.5485560000000 1.0
C      1  0.4868840000000  0.4919200000000  0.5365870000000 1.0
C      1  0.4267060000000  0.4588390000000  0.5108990000000 1.0
C      1  0.4143060000000  0.5241260000000  0.5242150000000 1.0
C      1  0.5742890000000  0.4178840000000  0.5319780000000 1.0
C      1  0.5055420000000  0.4369060000000  0.5277190000000 1.0
C      1  0.5151330000000  0.5808600000000  0.5312590000000 1.0
C      1  0.4934640000000  0.4856700000000  0.5946290000000 1.0
C      1  0.5058300000000  0.5098360000000  0.5280740000000 1.0
C      1  0.5060010000000  0.5111570000000  0.5891100000000 1.0
C      1  0.5675340000000  0.4910720000000  0.5521370000000 1.0
C      1  0.5939400000000  0.5301210000000  0.4948760000000 1.0
C      1  0.4798400000000  0.4265310000000  0.4644430000000 1.0
C      1  0.5917460000000  0.5543410000000  0.4872470000000 1.0
C      1  0.5216810000000  0.4417730000000  0.4377550000000 1.0
C      1  0.5441470000000  0.4888130000000  0.5682380000000 1.0
END
