TITL C-72184-6716-1 0.130840581652288 125000 -114.321716075345 0 0 18 (C1) n - 1
REM
REM in /rds/project/t2_vol4/rds-t2-cs072/BORA/CARBON/from-Arr/AIRSS/Generating-Clusters/GAP-ML-2020/Higher-Symm/SD-CG/HFTN-CG
REM
REM
REM
REM
REM
REM ./C.cell (b20cbc046b6831c77cfcea5457e17084)
REM AIRSS Version 0.9.1 bugfix July 2018 build 013d7b7c2542+ Fri, 06 Jul 2018 19:26:36 +0100
REM compiler GCC version 9.3.0
REM options -cpp -mtune=generic -march=x86-64 -g -O0
REM seed -542038257 1643757818 -1223487702 1400883839 -1977268501 -1381947844 -565218558 -802380764 1281885957 -1915904241 -287120768 974671562 1917285321 -1732677655 -1569049964 -39327920 -789132012 -1789196094 -574893268 1568156645 -2076205350 -421562398 -816684119 -1618477879 -1546574279 -284050477 -1592110756 -236811047 -656858998 1008102180 -270963455 -1527788933 2104416285
REM
CELL 1.54180   50.00000   50.00000   50.00000   90.00000   90.00000   90.00000
LATT -1
SFAC C  
C      1  0.5253950000000  0.5326050000000  0.4825620000000 1.0
C      1  0.4785340000000  0.5248840000000  0.5346760000000 1.0
C      1  0.5355490000000  0.4792930000000  0.5256540000000 1.0
C      1  0.5238920000000  0.4557170000000  0.5150260000000 1.0
C      1  0.4833010000000  0.4548600000000  0.4888310000000 1.0
C      1  0.4904690000000  0.5476000000000  0.5199700000000 1.0
C      1  0.4769000000000  0.4916170000000  0.4579150000000 1.0
C      1  0.5186240000000  0.4957150000000  0.5429830000000 1.0
C      1  0.5121030000000  0.5240010000000  0.4589440000000 1.0
C      1  0.5467780000000  0.5158080000000  0.4938440000000 1.0
C      1  0.4568240000000  0.5093690000000  0.5213390000000 1.0
C      1  0.4666520000000  0.4764020000000  0.4799600000000 1.0
C      1  0.4992470000000  0.5105100000000  0.5489940000000 1.0
C      1  0.5534470000000  0.4964720000000  0.5085720000000 1.0
C      1  0.5039320000000  0.4446100000000  0.5013600000000 1.0
C      1  0.5085270000000  0.5460070000000  0.5022710000000 1.0
C      1  0.4932620000000  0.5093340000000  0.4472020000000 1.0
C      1  0.4544680000000  0.4928000000000  0.5021660000000 1.0
END
