TITL C-72182-6742-9 9.50770987492981 125000 -767.997821114022 0 0 111 (C1) n - 1
REM
REM in /rds/project/t2_vol4/rds-t2-cs072/BORA/CARBON/from-Arr/AIRSS/Generating-Clusters/GAP-ML-2020/Higher-Symm/SD-CG/HFTN-CG
REM
REM
REM
REM
REM
REM ./C.cell (b20cbc046b6831c77cfcea5457e17084)
REM AIRSS Version 0.9.1 bugfix July 2018 build 013d7b7c2542+ Fri, 06 Jul 2018 19:26:36 +0100
REM compiler GCC version 9.3.0
REM options -cpp -mtune=generic -march=x86-64 -g -O0
REM seed 745390779 -422812577 -729256438 54183028 869232847 -60425348 -446865665 702998387 -143817919 -317417299 -547722284 -702424532 1456338537 -2076579743 -712814483 64954384 -783362086 494534358 1074103859 -2041768184 1616414841 1548369991 1977929778 -1292795975 1918721731 103202916 852349223 -1821536958 -1459650908 -2007289491 -886628589 556200811 358629512
REM
CELL 1.54180   50.00000   50.00000   50.00000   90.00000   90.00000   90.00000
LATT -1
SFAC C  
C      1  0.5169210000000  0.5522640000000  0.4787650000000 1.0
C      1  0.5098790000000  0.5520930000000  0.5254220000000 1.0
C      1  0.4727600000000  0.5523120000000  0.4964310000000 1.0
C      1  0.4732140000000  0.4677140000000  0.4904090000000 1.0
C      1  0.5220150000000  0.4664040000000  0.4839680000000 1.0
C      1  0.5030050000000  0.4634140000000  0.5296210000000 1.0
C      1  0.5798730000000  0.5039500000000  0.5258640000000 1.0
C      1  0.4374330000000  0.5034330000000  0.5564930000000 1.0
C      1  0.4820090000000  0.5016020000000  0.4197430000000 1.0
C      1  0.5134200000000  0.5464350000000  0.5545160000000 1.0
C      1  0.4458120000000  0.5467390000000  0.4842840000000 1.0
C      1  0.5402820000000  0.5459610000000  0.4611830000000 1.0
C      1  0.4289950000000  0.5438850000000  0.5097610000000 1.0
C      1  0.5270950000000  0.5421260000000  0.4340960000000 1.0
C      1  0.5433380000000  0.5427540000000  0.5564730000000 1.0
C      1  0.4673650000000  0.5486720000000  0.5747810000000 1.0
C      1  0.4516540000000  0.5468520000000  0.4346110000000 1.0
C      1  0.5806110000000  0.5479150000000  0.4907570000000 1.0
C      1  0.5114390000000  0.4944010000000  0.5955620000000 1.0
C      1  0.4084420000000  0.4967830000000  0.4645030000000 1.0
C      1  0.5761820000000  0.4952120000000  0.4403850000000 1.0
C      1  0.4782690000000  0.5349040000000  0.5960580000000 1.0
C      1  0.4306570000000  0.5296940000000  0.4317530000000 1.0
C      1  0.5933350000000  0.5334760000000  0.4711800000000 1.0
C      1  0.5816490000000  0.4651300000000  0.4843150000000 1.0
C      1  0.4736960000000  0.4628990000000  0.5734930000000 1.0
C      1  0.4461350000000  0.4642810000000  0.4390500000000 1.0
C      1  0.4574910000000  0.4222770000000  0.5175770000000 1.0
C      1  0.5024960000000  0.4210240000000  0.4602380000000 1.0
C      1  0.5439690000000  0.4204030000000  0.5213230000000 1.0
C      1  0.5697160000000  0.4385000000000  0.4873350000000 1.0
C      1  0.4771250000000  0.4380630000000  0.5575970000000 1.0
C      1  0.4532470000000  0.4374710000000  0.4498770000000 1.0
C      1  0.4531490000000  0.4334160000000  0.5437750000000 1.0
C      1  0.4814510000000  0.4321780000000  0.4432460000000 1.0
C      1  0.5683710000000  0.4339210000000  0.5151530000000 1.0
C      1  0.5297430000000  0.4306080000000  0.5429800000000 1.0
C      1  0.4370050000000  0.4306510000000  0.4979640000000 1.0
C      1  0.5288490000000  0.4295800000000  0.4523830000000 1.0
C      1  0.5125960000000  0.4661860000000  0.4216420000000 1.0
C      1  0.5643050000000  0.4675320000000  0.5514640000000 1.0
C      1  0.4216990000000  0.4688630000000  0.5289030000000 1.0
C      1  0.5406630000000  0.5798090000000  0.5208310000000 1.0
C      1  0.4617030000000  0.5804060000000  0.5246090000000 1.0
C      1  0.4978860000000  0.5792890000000  0.4542430000000 1.0
C      1  0.4864570000000  0.4179380000000  0.5137490000000 1.0
C      1  0.5034160000000  0.4130470000000  0.4901220000000 1.0
C      1  0.5316250000000  0.4133540000000  0.4962620000000 1.0
C      1  0.5471020000000  0.4247150000000  0.4747580000000 1.0
C      1  0.4996990000000  0.4325150000000  0.5373420000000 1.0
C      1  0.4391740000000  0.4265210000000  0.4707810000000 1.0
C      1  0.4960060000000  0.5164430000000  0.5869560000000 1.0
C      1  0.4306900000000  0.5111320000000  0.4527810000000 1.0
C      1  0.5761650000000  0.5141080000000  0.4615940000000 1.0
C      1  0.5091390000000  0.4947420000000  0.4163450000000 1.0
C      1  0.5686070000000  0.4964270000000  0.5509500000000 1.0
C      1  0.4204960000000  0.4974810000000  0.5346570000000 1.0
C      1  0.5161700000000  0.4731110000000  0.5557710000000 1.0
C      1  0.4436200000000  0.4758700000000  0.4859560000000 1.0
C      1  0.5403320000000  0.4739350000000  0.4594740000000 1.0
C      1  0.4709300000000  0.5829270000000  0.4661320000000 1.0
C      1  0.5435800000000  0.5836000000000  0.4913510000000 1.0
C      1  0.4856610000000  0.5839190000000  0.5418870000000 1.0
C      1  0.5567330000000  0.5537450000000  0.5342820000000 1.0
C      1  0.4417270000000  0.5547420000000  0.5322900000000 1.0
C      1  0.5013590000000  0.5532310000000  0.4336740000000 1.0
C      1  0.5601760000000  0.5641030000000  0.4788760000000 1.0
C      1  0.4880250000000  0.5646030000000  0.5625900000000 1.0
C      1  0.4513680000000  0.5638640000000  0.4582160000000 1.0
C      1  0.5010230000000  0.5192630000000  0.5566250000000 1.0
C      1  0.4510190000000  0.5193960000000  0.4737850000000 1.0
C      1  0.5477710000000  0.5188440000000  0.4711060000000 1.0
C      1  0.4875080000000  0.4540040000000  0.4245240000000 1.0
C      1  0.5780160000000  0.4567140000000  0.5293940000000 1.0
C      1  0.4352830000000  0.4557630000000  0.5496020000000 1.0
C      1  0.4315180000000  0.4789520000000  0.4587790000000 1.0
C      1  0.5700110000000  0.4757800000000  0.4606760000000 1.0
C      1  0.4994500000000  0.4732170000000  0.5798180000000 1.0
C      1  0.5572620000000  0.5016830000000  0.4219820000000 1.0
C      1  0.5373240000000  0.5022440000000  0.5890770000000 1.0
C      1  0.4035830000000  0.5040460000000  0.4894820000000 1.0
C      1  0.4270970000000  0.4580770000000  0.5033760000000 1.0
C      1  0.5318750000000  0.4550180000000  0.4384490000000 1.0
C      1  0.5394350000000  0.4550200000000  0.5561310000000 1.0
C      1  0.4916070000000  0.5405710000000  0.4791160000000 1.0
C      1  0.5233520000000  0.5410080000000  0.5037050000000 1.0
C      1  0.4848190000000  0.5411300000000  0.5189590000000 1.0
C      1  0.5299180000000  0.5016470000000  0.4558300000000 1.0
C      1  0.5230390000000  0.5016980000000  0.5484070000000 1.0
C      1  0.4461310000000  0.5031160000000  0.4973810000000 1.0
C      1  0.5188260000000  0.5809940000000  0.4739590000000 1.0
C      1  0.5130830000000  0.5809570000000  0.5291770000000 1.0
C      1  0.4682950000000  0.5811600000000  0.4965820000000 1.0
C      1  0.4961590000000  0.4759040000000  0.4768660000000 1.0
C      1  0.5243550000000  0.4729670000000  0.5105060000000 1.0
C      1  0.4794500000000  0.4750710000000  0.5167450000000 1.0
C      1  0.4675290000000  0.4998270000000  0.5198940000000 1.0
C      1  0.5003520000000  0.4999350000000  0.4638700000000 1.0
C      1  0.5309460000000  0.4988790000000  0.5190140000000 1.0
C      1  0.5314920000000  0.5125630000000  0.4265140000000 1.0
C      1  0.5475080000000  0.5132140000000  0.5646280000000 1.0
C      1  0.4197260000000  0.5149630000000  0.5100830000000 1.0
C      1  0.4515490000000  0.5332490000000  0.5531030000000 1.0
C      1  0.4785520000000  0.5321930000000  0.4327080000000 1.0
C      1  0.5697320000000  0.5326990000000  0.5155120000000 1.0
C      1  0.4679450000000  0.4751670000000  0.4233990000000 1.0
C      1  0.5856790000000  0.4776420000000  0.5115530000000 1.0
C      1  0.4474080000000  0.4756220000000  0.5663420000000 1.0
C      1  0.5426000000000  0.5202170000000  0.5020920000000 1.0
C      1  0.4764940000000  0.5211940000000  0.5374390000000 1.0
C      1  0.4800700000000  0.5208370000000  0.4623970000000 1.0
END
