TITL C-72195-6770-1 -0.100206054599586 125000 -338.138792196957 0 0 51 (C1) n - 1
REM
REM in /rds/project/t2_vol4/rds-t2-cs072/BORA/CARBON/from-Arr/AIRSS/Generating-Clusters/GAP-ML-2020/Higher-Symm/SD-CG/HFTN-CG
REM
REM
REM
REM
REM
REM ./C.cell (b20cbc046b6831c77cfcea5457e17084)
REM AIRSS Version 0.9.1 bugfix July 2018 build 013d7b7c2542+ Fri, 06 Jul 2018 19:26:36 +0100
REM compiler GCC version 9.3.0
REM options -cpp -mtune=generic -march=x86-64 -g -O0
REM seed -882161891 1307921979 1063686200 2027632023 17540088 -812338557 695862214 2085492217 461240386 -1482237704 -1961780561 -701087705 -496066389 1151748862 -2081979856 930005602 -1278420173 1486303530 -52762007 -27444962 146325279 141315321 -466556784 -1582670586 803285149 309725960 -1119642235 -1460687410 -533581325 -1163378145 1636084739 -1977318713 -984347468
REM
CELL 1.54180   50.00000   50.00000   50.00000   90.00000   90.00000   90.00000
LATT -1
SFAC C  
C      1  0.4717960000000  0.4369910000000  0.5122110000000 1.0
C      1  0.4668020000000  0.5222960000000  0.4401540000000 1.0
C      1  0.4710130000000  0.5411080000000  0.5505860000000 1.0
C      1  0.5056250000000  0.5729190000000  0.4943210000000 1.0
C      1  0.5190500000000  0.4662600000000  0.5545390000000 1.0
C      1  0.5091230000000  0.4634130000000  0.4404550000000 1.0
C      1  0.5748850000000  0.5059750000000  0.4523270000000 1.0
C      1  0.5740650000000  0.5445040000000  0.5232650000000 1.0
C      1  0.5426090000000  0.4749280000000  0.5415170000000 1.0
C      1  0.5285430000000  0.5271020000000  0.5320860000000 1.0
C      1  0.5254000000000  0.4603870000000  0.4997430000000 1.0
C      1  0.5286620000000  0.5197000000000  0.4631610000000 1.0
C      1  0.5066700000000  0.4779600000000  0.5116230000000 1.0
C      1  0.5084050000000  0.5013070000000  0.4697060000000 1.0
C      1  0.5080680000000  0.5294380000000  0.5131150000000 1.0
C      1  0.4878690000000  0.4336310000000  0.4901400000000 1.0
C      1  0.4865290000000  0.5400440000000  0.4482660000000 1.0
C      1  0.4906000000000  0.5242070000000  0.5614910000000 1.0
C      1  0.4939170000000  0.4851530000000  0.4499670000000 1.0
C      1  0.4926270000000  0.5539710000000  0.5104510000000 1.0
C      1  0.4963490000000  0.4672490000000  0.5371040000000 1.0
C      1  0.5561480000000  0.5253970000000  0.5233850000000 1.0
C      1  0.5455050000000  0.4749420000000  0.5130040000000 1.0
C      1  0.5554670000000  0.5107240000000  0.4696310000000 1.0
C      1  0.4623150000000  0.5160040000000  0.5592130000000 1.0
C      1  0.4600060000000  0.4410090000000  0.4869960000000 1.0
C      1  0.4588360000000  0.5417850000000  0.4587570000000 1.0
C      1  0.4470880000000  0.4731860000000  0.5322510000000 1.0
C      1  0.4443240000000  0.4864210000000  0.4635430000000 1.0
C      1  0.4446670000000  0.5391410000000  0.5098940000000 1.0
C      1  0.5200050000000  0.4445580000000  0.4536960000000 1.0
C      1  0.5162780000000  0.5694370000000  0.4713060000000 1.0
C      1  0.5313020000000  0.4908120000000  0.5621640000000 1.0
C      1  0.4703120000000  0.4563710000000  0.5336190000000 1.0
C      1  0.4660550000000  0.4941300000000  0.4465630000000 1.0
C      1  0.4668880000000  0.5505420000000  0.5234310000000 1.0
C      1  0.5177120000000  0.5167220000000  0.5562000000000 1.0
C      1  0.5152010000000  0.4416950000000  0.4816670000000 1.0
C      1  0.5135710000000  0.5444720000000  0.4572470000000 1.0
C      1  0.4423200000000  0.5343920000000  0.4805910000000 1.0
C      1  0.4450050000000  0.5006750000000  0.5426350000000 1.0
C      1  0.4435140000000  0.4637280000000  0.4825420000000 1.0
C      1  0.4316450000000  0.4733490000000  0.5071690000000 1.0
C      1  0.4298710000000  0.5084050000000  0.4772080000000 1.0
C      1  0.4309940000000  0.5165770000000  0.5227780000000 1.0
C      1  0.4219580000000  0.4992520000000  0.5026980000000 1.0
C      1  0.5884680000000  0.4899820000000  0.5050030000000 1.0
C      1  0.4983880000000  0.5036250000000  0.4981760000000 1.0
C      1  0.6111660000000  0.4809560000000  0.5109530000000 1.0
C      1  0.5612670000000  0.4985370000000  0.5018740000000 1.0
C      1  0.4713110000000  0.5003910000000  0.5008890000000 1.0
END
