TITL C-72187-6801-10 -0.650272720052155 125000 -560.587059041733 0 0 83 (C1) n - 1
REM
REM in /rds/project/t2_vol4/rds-t2-cs072/BORA/CARBON/from-Arr/AIRSS/Generating-Clusters/GAP-ML-2020/Higher-Symm/SD-CG/HFTN-CG
REM
REM
REM
REM
REM
REM ./C.cell (b20cbc046b6831c77cfcea5457e17084)
REM AIRSS Version 0.9.1 bugfix July 2018 build 013d7b7c2542+ Fri, 06 Jul 2018 19:26:36 +0100
REM compiler GCC version 9.3.0
REM options -cpp -mtune=generic -march=x86-64 -g -O0
REM seed 687225352 -1379345999 -912018654 -1216148837 -2021795682 -1577540049 -1236626140 -2030840833 -2083648788 -1952877439 1451289593 1419081310 1908933249 39136768 -322622582 1845293834 -2079045766 497316747 1375126761 1524250690 1284637252 324310970 1482289703 -1678639884 554157770 397976269 284073975 -1057791160 -312968732 1115682600 -1329336551 754360620 -241852714
REM
CELL 1.54180   50.00000   50.00000   50.00000   90.00000   90.00000   90.00000
LATT -1
SFAC C  
C      1  0.4650710000000  0.5155640000000  0.5652920000000 1.0
C      1  0.4657160000000  0.5629710000000  0.5128710000000 1.0
C      1  0.4514630000000  0.5271480000000  0.4477990000000 1.0
C      1  0.4650880000000  0.4381330000000  0.4555420000000 1.0
C      1  0.4697800000000  0.4405360000000  0.5256510000000 1.0
C      1  0.5305210000000  0.5072260000000  0.5658310000000 1.0
C      1  0.5369090000000  0.5647730000000  0.5035280000000 1.0
C      1  0.5231840000000  0.5337870000000  0.4408900000000 1.0
C      1  0.5524710000000  0.4605220000000  0.4664540000000 1.0
C      1  0.5356450000000  0.4414650000000  0.5400020000000 1.0
C      1  0.5133890000000  0.5204610000000  0.4829260000000 1.0
C      1  0.5103410000000  0.4859930000000  0.4476960000000 1.0
C      1  0.5103890000000  0.4588100000000  0.4864230000000 1.0
C      1  0.5184190000000  0.4871020000000  0.5221820000000 1.0
C      1  0.5101730000000  0.5321600000000  0.5279290000000 1.0
C      1  0.4869080000000  0.5329810000000  0.4770760000000 1.0
C      1  0.4818440000000  0.4847020000000  0.4623620000000 1.0
C      1  0.4865430000000  0.4767320000000  0.4901420000000 1.0
C      1  0.4926070000000  0.4803600000000  0.5381810000000 1.0
C      1  0.4850320000000  0.5184470000000  0.5190530000000 1.0
C      1  0.4725800000000  0.5127170000000  0.4624310000000 1.0
C      1  0.4669100000000  0.4640480000000  0.4449250000000 1.0
C      1  0.4706670000000  0.4693150000000  0.5199400000000 1.0
C      1  0.4833850000000  0.5073870000000  0.5441460000000 1.0
C      1  0.4709940000000  0.5356270000000  0.5015400000000 1.0
C      1  0.5285770000000  0.5091470000000  0.4577570000000 1.0
C      1  0.5231390000000  0.4589020000000  0.4587030000000 1.0
C      1  0.5299250000000  0.4648850000000  0.5064980000000 1.0
C      1  0.5305610000000  0.5112780000000  0.5361460000000 1.0
C      1  0.5197250000000  0.5412610000000  0.5016610000000 1.0
C      1  0.5082680000000  0.5733010000000  0.4645240000000 1.0
C      1  0.4998950000000  0.4965820000000  0.4211040000000 1.0
C      1  0.5166350000000  0.4266850000000  0.4902360000000 1.0
C      1  0.5097150000000  0.4616800000000  0.5745650000000 1.0
C      1  0.5178760000000  0.5514770000000  0.5503300000000 1.0
C      1  0.4797190000000  0.5626520000000  0.4680830000000 1.0
C      1  0.4716750000000  0.4978770000000  0.4168850000000 1.0
C      1  0.4895340000000  0.4151120000000  0.4882480000000 1.0
C      1  0.4817270000000  0.4658070000000  0.5652180000000 1.0
C      1  0.4883240000000  0.5567560000000  0.5582300000000 1.0
C      1  0.4368780000000  0.5008280000000  0.4491560000000 1.0
C      1  0.4499720000000  0.4395540000000  0.4808020000000 1.0
C      1  0.4468220000000  0.4799080000000  0.5383100000000 1.0
C      1  0.4480660000000  0.5355660000000  0.5501260000000 1.0
C      1  0.4445260000000  0.5470360000000  0.4925650000000 1.0
C      1  0.5575850000000  0.4989250000000  0.4605290000000 1.0
C      1  0.5565520000000  0.4563220000000  0.4954810000000 1.0
C      1  0.5505070000000  0.4649860000000  0.5518430000000 1.0
C      1  0.5545260000000  0.5283430000000  0.5323150000000 1.0
C      1  0.5506910000000  0.5576910000000  0.4769950000000 1.0
C      1  0.4823990000000  0.5770660000000  0.4952420000000 1.0
C      1  0.4712690000000  0.5253200000000  0.4249450000000 1.0
C      1  0.4877600000000  0.4214150000000  0.4596240000000 1.0
C      1  0.4828480000000  0.4395930000000  0.5508810000000 1.0
C      1  0.4882360000000  0.5332510000000  0.5750230000000 1.0
C      1  0.5114300000000  0.5781440000000  0.4929050000000 1.0
C      1  0.5017390000000  0.5263760000000  0.4249100000000 1.0
C      1  0.5155630000000  0.4302530000000  0.4593170000000 1.0
C      1  0.5121720000000  0.4385290000000  0.5563950000000 1.0
C      1  0.5175620000000  0.5309410000000  0.5736290000000 1.0
C      1  0.4241540000000  0.5310420000000  0.5041230000000 1.0
C      1  0.4272820000000  0.4867860000000  0.4745240000000 1.0
C      1  0.4321470000000  0.4603830000000  0.4804980000000 1.0
C      1  0.4281050000000  0.4967940000000  0.5264980000000 1.0
C      1  0.4287400000000  0.5255090000000  0.5329780000000 1.0
C      1  0.5713660000000  0.5409440000000  0.4768110000000 1.0
C      1  0.5753270000000  0.5137390000000  0.4783530000000 1.0
C      1  0.5763550000000  0.4715590000000  0.5096280000000 1.0
C      1  0.5705220000000  0.4789830000000  0.5376020000000 1.0
C      1  0.5745030000000  0.5080720000000  0.5291960000000 1.0
C      1  0.4661680000000  0.4260630000000  0.5016740000000 1.0
C      1  0.4588250000000  0.4854680000000  0.5639160000000 1.0
C      1  0.4652090000000  0.5579300000000  0.5420540000000 1.0
C      1  0.4509990000000  0.5519600000000  0.4649610000000 1.0
C      1  0.4517060000000  0.4829510000000  0.4305770000000 1.0
C      1  0.5372900000000  0.4359990000000  0.5112430000000 1.0
C      1  0.5323060000000  0.4788800000000  0.5706890000000 1.0
C      1  0.5438590000000  0.5555590000000  0.5319800000000 1.0
C      1  0.5293090000000  0.5575180000000  0.4559170000000 1.0
C      1  0.5692470000000  0.4752590000000  0.4510880000000 1.0
C      1  0.4221370000000  0.5020910000000  0.4984300000000 1.0
C      1  0.5818940000000  0.4992030000000  0.5024380000000 1.0
C      1  0.5010310000000  0.5000730000000  0.5013580000000 1.0
END
