TITL C-72200-6791-10 47.1030383688537 125000 -139.358338364778 0 0 22 (C1) n - 1
REM
REM in /rds/project/t2_vol4/rds-t2-cs072/BORA/CARBON/from-Arr/AIRSS/Generating-Clusters/GAP-ML-2020/Higher-Symm/SD-CG/HFTN-CG
REM
REM
REM
REM
REM
REM ./C.cell (b20cbc046b6831c77cfcea5457e17084)
REM AIRSS Version 0.9.1 bugfix July 2018 build 013d7b7c2542+ Fri, 06 Jul 2018 19:26:36 +0100
REM compiler GCC version 9.3.0
REM options -cpp -mtune=generic -march=x86-64 -g -O0
REM seed 393587583 1834395541 1089830771 -1874337144 -338796079 198157653 -414013037 -2123403982 254199341 1311409954 1050466239 -211486701 -1561730455 -4075261 1156203028 988873007 1921089437 -1453546672 -444481140 -1539597844 1933426211 562474736 278103496 -231774386 1574386706 -1392794734 -2115127428 -1299011409 1538359937 -1411772529 186558852 -161159393 221765923
REM
CELL 1.54180   50.00000   50.00000   50.00000   90.00000   90.00000   90.00000
LATT -1
SFAC C  
C      1  0.4834710000000  0.4425440000000  0.4745730000000 1.0
C      1  0.4834450000000  0.4388770000000  0.5228540000000 1.0
C      1  0.5086150000000  0.4426560000000  0.5156490000000 1.0
C      1  0.5288660000000  0.4432990000000  0.4972470000000 1.0
C      1  0.5094700000000  0.4432070000000  0.4777440000000 1.0
C      1  0.5327030000000  0.5200820000000  0.4692430000000 1.0
C      1  0.4853540000000  0.5203310000000  0.4654330000000 1.0
C      1  0.4606360000000  0.5287630000000  0.5139100000000 1.0
C      1  0.5021850000000  0.5292930000000  0.5500690000000 1.0
C      1  0.5511920000000  0.5346180000000  0.5213740000000 1.0
C      1  0.4698380000000  0.5020380000000  0.5200850000000 1.0
C      1  0.4865050000000  0.5109450000000  0.5404070000000 1.0
C      1  0.5653450000000  0.5154100000000  0.5133470000000 1.0
C      1  0.5093680000000  0.5046370000000  0.4660900000000 1.0
C      1  0.4852620000000  0.4936550000000  0.4755740000000 1.0
C      1  0.5039510000000  0.5445990000000  0.5269590000000 1.0
C      1  0.5280180000000  0.5455360000000  0.5120830000000 1.0
C      1  0.5213090000000  0.5405310000000  0.4846660000000 1.0
C      1  0.4928920000000  0.5429610000000  0.4815970000000 1.0
C      1  0.4814390000000  0.5461180000000  0.5074410000000 1.0
C      1  0.4735000000000  0.4821260000000  0.4987420000000 1.0
C      1  0.4746910000000  0.4541410000000  0.4999180000000 1.0
END
