TITL C-74230-4616-3 -732.083212631035 125000 -774.142642121364 0 0 112 (C1) n - 1
REM
REM in /rds/project/t2_vol4/rds-t2-cs072/BORA/CARBON/from-Arr/AIRSS/Generating-Clusters/GAP-ML-2020/Higher-Symm/SD-CG/HFTN-CG
REM
REM
REM
REM
REM
REM ./C.cell (b20cbc046b6831c77cfcea5457e17084)
REM AIRSS Version 0.9.1 bugfix July 2018 build 013d7b7c2542+ Fri, 06 Jul 2018 19:26:36 +0100
REM compiler GCC version 9.3.0
REM options -cpp -mtune=generic -march=x86-64 -g -O0
REM seed 92637300 22901633 -575067049 -1280468013 -2134314693 -2003131686 -1579855124 599699699 1092008325 -1826089622 -1267934383 -1452427936 1666794374 -665628731 -1185330435 -990230003 -2112970772 1748639873 1820407718 -361577346 2095992639 1679126083 721461317 377783060 -138115749 -1995905064 -542326174 973707509 833085055 -41477210 897293142 -1984483654 138503499
REM
CELL 1.54180   50.00000   50.00000   50.00000   90.00000   90.00000   90.00000
LATT -1
SFAC C  
C      1  0.5458450000000  0.4241200000000  0.4613710000000 1.0
C      1  0.4627590000000  0.5363590000000  0.4318230000000 1.0
C      1  0.4223260000000  0.4600050000000  0.5485540000000 1.0
C      1  0.4629510000000  0.4303810000000  0.5380580000000 1.0
C      1  0.5475380000000  0.5785180000000  0.5374700000000 1.0
C      1  0.4517410000000  0.5771980000000  0.4605390000000 1.0
C      1  0.5389130000000  0.5478970000000  0.5770850000000 1.0
C      1  0.4616630000000  0.4521000000000  0.5776800000000 1.0
C      1  0.5385190000000  0.4536510000000  0.4233840000000 1.0
C      1  0.5755840000000  0.4612550000000  0.4536130000000 1.0
C      1  0.4236660000000  0.5376360000000  0.4539340000000 1.0
C      1  0.5659490000000  0.5387540000000  0.5343080000000 1.0
C      1  0.4939160000000  0.4701810000000  0.5419700000000 1.0
C      1  0.5389770000000  0.4970230000000  0.4728780000000 1.0
C      1  0.4801170000000  0.5379400000000  0.4975910000000 1.0
C      1  0.5003570000000  0.4734530000000  0.4620810000000 1.0
C      1  0.5009100000000  0.5225120000000  0.4558420000000 1.0
C      1  0.5008580000000  0.5193090000000  0.5405980000000 1.0
C      1  0.4610030000000  0.4973150000000  0.5189270000000 1.0
C      1  0.5426350000000  0.5013750000000  0.5222440000000 1.0
C      1  0.4587910000000  0.5047400000000  0.4706310000000 1.0
C      1  0.5247660000000  0.5417150000000  0.5016740000000 1.0
C      1  0.4757130000000  0.4546140000000  0.5011360000000 1.0
C      1  0.5244330000000  0.4618800000000  0.4998090000000 1.0
C      1  0.5689700000000  0.4893010000000  0.5381940000000 1.0
C      1  0.5379680000000  0.5675090000000  0.4909220000000 1.0
C      1  0.4903900000000  0.5371250000000  0.5673070000000 1.0
C      1  0.4345800000000  0.4906280000000  0.4629210000000 1.0
C      1  0.5640720000000  0.5088690000000  0.4631500000000 1.0
C      1  0.4349100000000  0.5085710000000  0.5379830000000 1.0
C      1  0.4621910000000  0.5635820000000  0.5073010000000 1.0
C      1  0.5352090000000  0.4360620000000  0.5092340000000 1.0
C      1  0.4603410000000  0.4290490000000  0.4885800000000 1.0
C      1  0.5114870000000  0.5392700000000  0.4294290000000 1.0
C      1  0.4904740000000  0.4636770000000  0.4360310000000 1.0
C      1  0.5087000000000  0.4624990000000  0.5657670000000 1.0
C      1  0.5649050000000  0.5576710000000  0.4801890000000 1.0
C      1  0.4794280000000  0.5637450000000  0.5567500000000 1.0
C      1  0.5578570000000  0.4787050000000  0.5641850000000 1.0
C      1  0.4349880000000  0.5553430000000  0.5201220000000 1.0
C      1  0.5643230000000  0.4426700000000  0.5205850000000 1.0
C      1  0.4346280000000  0.4409720000000  0.4780830000000 1.0
C      1  0.5216450000000  0.5655130000000  0.4410930000000 1.0
C      1  0.4787230000000  0.4348430000000  0.4422600000000 1.0
C      1  0.5192410000000  0.4345380000000  0.5574410000000 1.0
C      1  0.4426360000000  0.4805770000000  0.4347160000000 1.0
C      1  0.5576540000000  0.5208660000000  0.4343600000000 1.0
C      1  0.4435550000000  0.5206100000000  0.5656020000000 1.0
C      1  0.4879050000000  0.5051860000000  0.4083690000000 1.0
C      1  0.4116230000000  0.4851730000000  0.5052370000000 1.0
C      1  0.5031550000000  0.4108290000000  0.4848200000000 1.0
C      1  0.5139810000000  0.5044970000000  0.5885060000000 1.0
C      1  0.4864140000000  0.4962250000000  0.5883100000000 1.0
C      1  0.5150460000000  0.4963130000000  0.4107170000000 1.0
C      1  0.5884660000000  0.4852320000000  0.4959820000000 1.0
C      1  0.4121900000000  0.5125170000000  0.4970200000000 1.0
C      1  0.5901550000000  0.5126700000000  0.5045530000000 1.0
C      1  0.4944080000000  0.4078500000000  0.5121050000000 1.0
C      1  0.5036100000000  0.5879210000000  0.5127940000000 1.0
C      1  0.4951210000000  0.5878700000000  0.4855460000000 1.0
C      1  0.4302460000000  0.4357220000000  0.4509220000000 1.0
C      1  0.4518880000000  0.4323030000000  0.4334140000000 1.0
C      1  0.4349450000000  0.4541490000000  0.4302350000000 1.0
C      1  0.5671490000000  0.4341310000000  0.5473590000000 1.0
C      1  0.4315010000000  0.5648320000000  0.5468770000000 1.0
C      1  0.5697560000000  0.5650650000000  0.4536640000000 1.0
C      1  0.5458010000000  0.4305870000000  0.5647990000000 1.0
C      1  0.4528450000000  0.5685230000000  0.5643580000000 1.0
C      1  0.5488230000000  0.5696550000000  0.4353760000000 1.0
C      1  0.5638880000000  0.4517120000000  0.5688070000000 1.0
C      1  0.4347410000000  0.5476770000000  0.5685720000000 1.0
C      1  0.5659720000000  0.5477460000000  0.4323860000000 1.0
C      1  0.4659790000000  0.5820960000000  0.4830090000000 1.0
C      1  0.4836130000000  0.4673530000000  0.5824340000000 1.0
C      1  0.5817430000000  0.4830680000000  0.4675420000000 1.0
C      1  0.5333170000000  0.5844640000000  0.5153820000000 1.0
C      1  0.4650220000000  0.4129150000000  0.5146860000000 1.0
C      1  0.5314160000000  0.4185020000000  0.4830480000000 1.0
C      1  0.5167190000000  0.4679360000000  0.4181880000000 1.0
C      1  0.4855930000000  0.5343840000000  0.4139360000000 1.0
C      1  0.5168340000000  0.5336480000000  0.5835340000000 1.0
C      1  0.4172950000000  0.4824750000000  0.5344100000000 1.0
C      1  0.5840200000000  0.5155790000000  0.5329900000000 1.0
C      1  0.4177630000000  0.5155610000000  0.4681280000000 1.0
C      1  0.5704230000000  0.5285700000000  0.4875270000000 1.0
C      1  0.4860000000000  0.5685660000000  0.5278340000000 1.0
C      1  0.5286960000000  0.4866290000000  0.5689600000000 1.0
C      1  0.4236050000000  0.5285770000000  0.5180120000000 1.0
C      1  0.5780570000000  0.4684750000000  0.5179020000000 1.0
C      1  0.4303680000000  0.4701470000000  0.4866570000000 1.0
C      1  0.5142000000000  0.5701370000000  0.4702580000000 1.0
C      1  0.4811030000000  0.4207480000000  0.4678560000000 1.0
C      1  0.5112640000000  0.4272980000000  0.5288410000000 1.0
C      1  0.4714420000000  0.4883140000000  0.4277880000000 1.0
C      1  0.5321300000000  0.5184760000000  0.4204340000000 1.0
C      1  0.4699990000000  0.5176110000000  0.5776570000000 1.0
C      1  0.5024430000000  0.5415810000000  0.4778620000000 1.0
C      1  0.4861650000000  0.4950570000000  0.5332430000000 1.0
C      1  0.5361780000000  0.4863450000000  0.4986800000000 1.0
C      1  0.5012790000000  0.5409110000000  0.5201860000000 1.0
C      1  0.4859720000000  0.4467500000000  0.5288060000000 1.0
C      1  0.4992840000000  0.4642280000000  0.4877820000000 1.0
C      1  0.5141270000000  0.4979730000000  0.4620410000000 1.0
C      1  0.4723500000000  0.5136190000000  0.4479680000000 1.0
C      1  0.5254210000000  0.5050830000000  0.5447500000000 1.0
C      1  0.4540280000000  0.4723990000000  0.5055120000000 1.0
C      1  0.5492030000000  0.5287030000000  0.5110220000000 1.0
C      1  0.4674550000000  0.5125980000000  0.4952110000000 1.0
C      1  0.4441390000000  0.5545760000000  0.4453350000000 1.0
C      1  0.4447700000000  0.4443780000000  0.5565190000000 1.0
C      1  0.5550460000000  0.4445950000000  0.4444110000000 1.0
C      1  0.5538040000000  0.5566020000000  0.5542710000000 1.0
END
