TITL C-74241-4575-8 0.0488747915461582 125000 -539.929515043822 0 0 80 (Cs) n - 1
REM
REM in /rds/project/t2_vol4/rds-t2-cs072/BORA/CARBON/from-Arr/AIRSS/Generating-Clusters/GAP-ML-2020/Higher-Symm/SD-CG/HFTN-CG
REM
REM
REM
REM
REM
REM ./C.cell (b20cbc046b6831c77cfcea5457e17084)
REM AIRSS Version 0.9.1 bugfix July 2018 build 013d7b7c2542+ Fri, 06 Jul 2018 19:26:36 +0100
REM compiler GCC version 9.3.0
REM options -cpp -mtune=generic -march=x86-64 -g -O0
REM seed -471582070 -2119419741 -127971832 -749432293 1633979738 423790331 1222559007 -765762780 -1942493987 1204439773 -1423307148 1265708137 -1610334066 -1233190987 1600873234 -1347662802 215980155 41070510 -46560594 236435505 1451710314 1661185792 990619546 -766107027 670402764 969135388 292581518 1661246787 1709594789 1314041157 -554984525 -24229658 1326619093
REM
CELL 1.54180   50.00000   50.00000   50.00000   90.00000   90.00000   90.00000
LATT -1
SFAC C  
C      1  0.4590490000000  0.4459850000000  0.5365930000000 1.0
C      1  0.4859680000000  0.4462260000000  0.4484830000000 1.0
C      1  0.5505900000000  0.4465300000000  0.5149950000000 1.0
C      1  0.4589540000000  0.5526060000000  0.5365960000000 1.0
C      1  0.4858730000000  0.5524170000000  0.4484860000000 1.0
C      1  0.5504960000000  0.5522250000000  0.5149970000000 1.0
C      1  0.4611600000000  0.4462490000000  0.4628610000000 1.0
C      1  0.4848100000000  0.4463750000000  0.5510410000000 1.0
C      1  0.5508440000000  0.4462260000000  0.4843270000000 1.0
C      1  0.4610660000000  0.5523490000000  0.4628630000000 1.0
C      1  0.4847160000000  0.5522610000000  0.5510440000000 1.0
C      1  0.5507490000000  0.5525310000000  0.4843290000000 1.0
C      1  0.4384430000000  0.5272040000000  0.5363100000000 1.0
C      1  0.4951850000000  0.5302610000000  0.4322920000000 1.0
C      1  0.5601900000000  0.5270740000000  0.5331350000000 1.0
C      1  0.4384920000000  0.4713500000000  0.5363080000000 1.0
C      1  0.4952400000000  0.4683990000000  0.4322910000000 1.0
C      1  0.5602400000000  0.4716980000000  0.5331340000000 1.0
C      1  0.4425500000000  0.5302740000000  0.4632420000000 1.0
C      1  0.4951770000000  0.5305670000000  0.5670490000000 1.0
C      1  0.5607260000000  0.5272110000000  0.4653480000000 1.0
C      1  0.4426050000000  0.4682910000000  0.4632400000000 1.0
C      1  0.4952330000000  0.4680870000000  0.5670470000000 1.0
C      1  0.5607750000000  0.4715640000000  0.4653470000000 1.0
C      1  0.5159670000000  0.4833720000000  0.5531790000000 1.0
C      1  0.4429120000000  0.4824570000000  0.4882770000000 1.0
C      1  0.5471580000000  0.4850880000000  0.4423580000000 1.0
C      1  0.5159390000000  0.5153190000000  0.5531800000000 1.0
C      1  0.4428820000000  0.5161070000000  0.4882780000000 1.0
C      1  0.5471320000000  0.5136640000000  0.4423580000000 1.0
C      1  0.5168810000000  0.4831020000000  0.4444970000000 1.0
C      1  0.4264740000000  0.4847970000000  0.5131270000000 1.0
C      1  0.5461770000000  0.4850300000000  0.5557380000000 1.0
C      1  0.5168520000000  0.5155960000000  0.4444980000000 1.0
C      1  0.4264480000000  0.5137370000000  0.5131270000000 1.0
C      1  0.5461510000000  0.5137150000000  0.5557380000000 1.0
C      1  0.5415920000000  0.5144170000000  0.4842350000000 1.0
C      1  0.5128410000000  0.5142120000000  0.5208730000000 1.0
C      1  0.4706860000000  0.5142520000000  0.5009830000000 1.0
C      1  0.5416190000000  0.4843240000000  0.4842340000000 1.0
C      1  0.5128670000000  0.4844760000000  0.5208730000000 1.0
C      1  0.4707130000000  0.4843610000000  0.5009830000000 1.0
C      1  0.5413980000000  0.5142810000000  0.5135330000000 1.0
C      1  0.5134410000000  0.5141750000000  0.4756180000000 1.0
C      1  0.4636370000000  0.5135150000000  0.5298110000000 1.0
C      1  0.5414240000000  0.4844570000000  0.5135320000000 1.0
C      1  0.5134680000000  0.4845160000000  0.4756170000000 1.0
C      1  0.4636620000000  0.4850850000000  0.5298100000000 1.0
C      1  0.5850090000000  0.5140640000000  0.5243090000000 1.0
C      1  0.4345080000000  0.5138690000000  0.5618240000000 1.0
C      1  0.4755280000000  0.5144880000000  0.4188870000000 1.0
C      1  0.5850350000000  0.4847520000000  0.5243090000000 1.0
C      1  0.4345340000000  0.4846770000000  0.5618230000000 1.0
C      1  0.4755550000000  0.4841380000000  0.4188860000000 1.0
C      1  0.5851420000000  0.5140810000000  0.4746030000000 1.0
C      1  0.4402570000000  0.5143530000000  0.4398260000000 1.0
C      1  0.4760510000000  0.5144620000000  0.5808670000000 1.0
C      1  0.5851680000000  0.4847380000000  0.4746030000000 1.0
C      1  0.4402840000000  0.4842090000000  0.4398250000000 1.0
C      1  0.4760780000000  0.4841570000000  0.5808660000000 1.0
C      1  0.4985960000000  0.4326560000000  0.5287280000000 1.0
C      1  0.4738350000000  0.4318280000000  0.4855610000000 1.0
C      1  0.5247610000000  0.4328200000000  0.4849100000000 1.0
C      1  0.4984780000000  0.5660060000000  0.5287310000000 1.0
C      1  0.4737140000000  0.5667920000000  0.4855650000000 1.0
C      1  0.5246420000000  0.5658900000000  0.4849130000000 1.0
C      1  0.4993860000000  0.4320520000000  0.4710440000000 1.0
C      1  0.4729490000000  0.4324520000000  0.5142020000000 1.0
C      1  0.5243470000000  0.4332860000000  0.5146990000000 1.0
C      1  0.4992660000000  0.5666140000000  0.4710470000000 1.0
C      1  0.4728290000000  0.5661650000000  0.5142050000000 1.0
C      1  0.5242300000000  0.5654220000000  0.5147020000000 1.0
C      1  0.5917420000000  0.4767140000000  0.4994680000000 1.0
C      1  0.5917010000000  0.5221150000000  0.4994690000000 1.0
C      1  0.4504160000000  0.5254520000000  0.4167520000000 1.0
C      1  0.4504630000000  0.4731300000000  0.4167510000000 1.0
C      1  0.4505910000000  0.4742570000000  0.5810290000000 1.0
C      1  0.4505470000000  0.5243170000000  0.5810300000000 1.0
C      1  0.4972400000000  0.4748630000000  0.4975760000000 1.0
C      1  0.4971960000000  0.5237970000000  0.4975770000000 1.0
END
