TITL C-74229-4671-1 -302.217192444869 125000 -886.508197002377 0 0 123 (C1) n - 1
REM
REM in /rds/project/t2_vol4/rds-t2-cs072/BORA/CARBON/from-Arr/AIRSS/Generating-Clusters/GAP-ML-2020/Higher-Symm/SD-CG/HFTN-CG
REM
REM
REM
REM
REM
REM ./C.cell (b20cbc046b6831c77cfcea5457e17084)
REM AIRSS Version 0.9.1 bugfix July 2018 build 013d7b7c2542+ Fri, 06 Jul 2018 19:26:36 +0100
REM compiler GCC version 9.3.0
REM options -cpp -mtune=generic -march=x86-64 -g -O0
REM seed 105462538 30500867 -474995172 1529604873 41534147 -1594870701 1947192719 1691245843 -1102425002 -730651119 -798932805 -676544887 -1846961276 919536172 510117038 2077586307 -52556707 -284663425 1605383357 1504213334 -701465037 1744530578 -8560452 1149814684 -247619820 473096429 -375940395 175754240 853953451 1624365822 81201122 1113761793 810589354
REM
CELL 1.54180   50.00000   50.00000   50.00000   90.00000   90.00000   90.00000
LATT -1
SFAC C  
C      1  0.5840970000000  0.5633370000000  0.5000940000000 1.0
C      1  0.5465100000000  0.5827740000000  0.4748420000000 1.0
C      1  0.5553850000000  0.4265940000000  0.5028540000000 1.0
C      1  0.4648190000000  0.4237510000000  0.5509820000000 1.0
C      1  0.4581570000000  0.4177700000000  0.5238570000000 1.0
C      1  0.5515820000000  0.4648350000000  0.4404520000000 1.0
C      1  0.5223130000000  0.5622830000000  0.5655500000000 1.0
C      1  0.4931900000000  0.4295950000000  0.4352330000000 1.0
C      1  0.4722440000000  0.5056510000000  0.4623550000000 1.0
C      1  0.5097080000000  0.4165840000000  0.5396530000000 1.0
C      1  0.4642020000000  0.5072570000000  0.5065500000000 1.0
C      1  0.5222440000000  0.5172260000000  0.4873050000000 1.0
C      1  0.4718230000000  0.4902480000000  0.5479310000000 1.0
C      1  0.5068020000000  0.4100750000000  0.5137130000000 1.0
C      1  0.5491500000000  0.4845440000000  0.4616860000000 1.0
C      1  0.4989560000000  0.5355830000000  0.4880730000000 1.0
C      1  0.5658910000000  0.4401750000000  0.5259660000000 1.0
C      1  0.5745000000000  0.4969780000000  0.4569270000000 1.0
C      1  0.4798040000000  0.5710750000000  0.5248340000000 1.0
C      1  0.4970840000000  0.5596620000000  0.5785430000000 1.0
C      1  0.4297690000000  0.4659580000000  0.4401420000000 1.0
C      1  0.4371090000000  0.4878060000000  0.4240080000000 1.0
C      1  0.5039810000000  0.5908140000000  0.5288770000000 1.0
C      1  0.5279040000000  0.5806790000000  0.5437300000000 1.0
C      1  0.5532990000000  0.5644860000000  0.4536750000000 1.0
C      1  0.5915750000000  0.4910060000000  0.4790450000000 1.0
C      1  0.4851380000000  0.4921930000000  0.5943260000000 1.0
C      1  0.5155830000000  0.5024040000000  0.5176510000000 1.0
C      1  0.5764910000000  0.5329960000000  0.5343480000000 1.0
C      1  0.5776440000000  0.5594850000000  0.5269410000000 1.0
C      1  0.5477700000000  0.5305270000000  0.5397950000000 1.0
C      1  0.5579980000000  0.4881010000000  0.5147510000000 1.0
C      1  0.4616140000000  0.5717530000000  0.4537750000000 1.0
C      1  0.4673410000000  0.5576250000000  0.5715940000000 1.0
C      1  0.4684570000000  0.5216150000000  0.4193670000000 1.0
C      1  0.4889180000000  0.5744180000000  0.4433050000000 1.0
C      1  0.5226830000000  0.4988640000000  0.4620630000000 1.0
C      1  0.5389490000000  0.4894450000000  0.5604580000000 1.0
C      1  0.4540630000000  0.4627280000000  0.5773640000000 1.0
C      1  0.4268330000000  0.4484370000000  0.5397200000000 1.0
C      1  0.4437920000000  0.5326650000000  0.4326120000000 1.0
C      1  0.5066630000000  0.5116030000000  0.5944230000000 1.0
C      1  0.4796950000000  0.4699620000000  0.5280190000000 1.0
C      1  0.5301870000000  0.4130990000000  0.4962040000000 1.0
C      1  0.4730760000000  0.5140750000000  0.5331980000000 1.0
C      1  0.4988250000000  0.5228380000000  0.5308770000000 1.0
C      1  0.4274710000000  0.5479980000000  0.4789590000000 1.0
C      1  0.4071440000000  0.4819330000000  0.5095280000000 1.0
C      1  0.4505670000000  0.4367980000000  0.4722150000000 1.0
C      1  0.5482360000000  0.4718580000000  0.4908770000000 1.0
C      1  0.5830610000000  0.4834310000000  0.5324820000000 1.0
C      1  0.5237180000000  0.4623830000000  0.5528130000000 1.0
C      1  0.4603830000000  0.5068480000000  0.5893680000000 1.0
C      1  0.5201110000000  0.4350640000000  0.4285780000000 1.0
C      1  0.5668400000000  0.4450700000000  0.4816210000000 1.0
C      1  0.5024340000000  0.5475990000000  0.5155720000000 1.0
C      1  0.4718840000000  0.4168820000000  0.4780010000000 1.0
C      1  0.5432010000000  0.5350140000000  0.4945780000000 1.0
C      1  0.5372350000000  0.4236310000000  0.4486070000000 1.0
C      1  0.4413390000000  0.5528840000000  0.4531880000000 1.0
C      1  0.5024810000000  0.4495880000000  0.5710910000000 1.0
C      1  0.4096200000000  0.5110070000000  0.5079340000000 1.0
C      1  0.5306700000000  0.5123280000000  0.5789560000000 1.0
C      1  0.5879240000000  0.4591220000000  0.5183880000000 1.0
C      1  0.4456620000000  0.4426750000000  0.5603930000000 1.0
C      1  0.4750600000000  0.5215390000000  0.4842950000000 1.0
C      1  0.4961460000000  0.5907680000000  0.4664240000000 1.0
C      1  0.5424760000000  0.5256850000000  0.4304750000000 1.0
C      1  0.5893740000000  0.4629610000000  0.4898760000000 1.0
C      1  0.4695850000000  0.5865140000000  0.4778950000000 1.0
C      1  0.5655650000000  0.4761450000000  0.5559320000000 1.0
C      1  0.4637860000000  0.4782160000000  0.5061710000000 1.0
C      1  0.4458980000000  0.4905350000000  0.5695680000000 1.0
C      1  0.5167140000000  0.5083290000000  0.4300110000000 1.0
C      1  0.5338650000000  0.5495980000000  0.5183650000000 1.0
C      1  0.4132420000000  0.5233250000000  0.4821360000000 1.0
C      1  0.5895310000000  0.5108090000000  0.5221310000000 1.0
C      1  0.5081980000000  0.4719840000000  0.5224530000000 1.0
C      1  0.4583380000000  0.5605200000000  0.5449140000000 1.0
C      1  0.4726160000000  0.4471590000000  0.4273920000000 1.0
C      1  0.4629630000000  0.4935100000000  0.4140230000000 1.0
C      1  0.5584360000000  0.4409070000000  0.4541780000000 1.0
C      1  0.5203720000000  0.5942910000000  0.4807860000000 1.0
C      1  0.4376250000000  0.5603800000000  0.5034210000000 1.0
C      1  0.5950040000000  0.5147390000000  0.4942850000000 1.0
C      1  0.4263980000000  0.5112170000000  0.4358670000000 1.0
C      1  0.5066330000000  0.4758280000000  0.4721970000000 1.0
C      1  0.4619780000000  0.4651330000000  0.4824410000000 1.0
C      1  0.5524320000000  0.4516080000000  0.5485810000000 1.0
C      1  0.5400420000000  0.5028160000000  0.5324170000000 1.0
C      1  0.4957320000000  0.5291710000000  0.4236080000000 1.0
C      1  0.5215330000000  0.4120890000000  0.4690000000000 1.0
C      1  0.4155130000000  0.4744340000000  0.5357830000000 1.0
C      1  0.4923910000000  0.4262060000000  0.5582330000000 1.0
C      1  0.5102460000000  0.4813570000000  0.4173860000000 1.0
C      1  0.4610840000000  0.5770600000000  0.5025750000000 1.0
C      1  0.4938910000000  0.5369980000000  0.5957450000000 1.0
C      1  0.4209240000000  0.5218010000000  0.5325660000000 1.0
C      1  0.4354800000000  0.5482960000000  0.5298900000000 1.0
C      1  0.5503700000000  0.5741720000000  0.5249010000000 1.0
C      1  0.5187310000000  0.4662750000000  0.4957830000000 1.0
C      1  0.4826530000000  0.4649480000000  0.5851640000000 1.0
C      1  0.4481380000000  0.4450500000000  0.4428140000000 1.0
C      1  0.4145210000000  0.4762940000000  0.4626120000000 1.0
C      1  0.5128120000000  0.6013150000000  0.5060400000000 1.0
C      1  0.4654340000000  0.5346090000000  0.5902970000000 1.0
C      1  0.5681430000000  0.5214480000000  0.4437660000000 1.0
C      1  0.4266300000000  0.4387860000000  0.4911370000000 1.0
C      1  0.4824430000000  0.4730780000000  0.4150300000000 1.0
C      1  0.4936090000000  0.4152860000000  0.4601650000000 1.0
C      1  0.5345350000000  0.5523280000000  0.4350780000000 1.0
C      1  0.4113530000000  0.4635780000000  0.4876090000000 1.0
C      1  0.4796790000000  0.4796600000000  0.4674740000000 1.0
C      1  0.5746920000000  0.5450540000000  0.4577210000000 1.0
C      1  0.5621190000000  0.5818270000000  0.4978370000000 1.0
C      1  0.4784030000000  0.4114140000000  0.5050710000000 1.0
C      1  0.4240400000000  0.4978040000000  0.5504810000000 1.0
C      1  0.4337110000000  0.4315710000000  0.5172940000000 1.0
C      1  0.5056650000000  0.5547010000000  0.4308230000000 1.0
C      1  0.5291730000000  0.4610060000000  0.4224950000000 1.0
C      1  0.5898850000000  0.5421270000000  0.4822850000000 1.0
C      1  0.4134270000000  0.5048310000000  0.4602170000000 1.0
C      1  0.5369670000000  0.5372170000000  0.5660720000000 1.0
END
