TITL C-74246-4704-2 0.0139517719633981 125000 -335.706205542801 0 0 49 (C1) n - 1
REM
REM in /rds/project/t2_vol4/rds-t2-cs072/BORA/CARBON/from-Arr/AIRSS/Generating-Clusters/GAP-ML-2020/Higher-Symm/SD-CG/HFTN-CG
REM
REM
REM
REM
REM
REM ./C.cell (b20cbc046b6831c77cfcea5457e17084)
REM AIRSS Version 0.9.1 bugfix July 2018 build 013d7b7c2542+ Fri, 06 Jul 2018 19:26:36 +0100
REM compiler GCC version 9.3.0
REM options -cpp -mtune=generic -march=x86-64 -g -O0
REM seed -1105882560 -1961829489 -1313978880 432327952 908963476 1967931770 2006141245 -1472262030 -735945397 -75716603 -252093902 40272081 657326042 -1038394024 -553629255 -1683955278 -750641890 1112957594 1783961916 1380156627 -687835266 1312946753 -1530795402 -1653128390 1001220811 1282783141 1419731505 1071981645 -337998322 -1903205197 -1305908381 1956259292 -697721835
REM
CELL 1.54180   50.00000   50.00000   50.00000   90.00000   90.00000   90.00000
LATT -1
SFAC C  
C      1  0.4393210000000  0.4830530000000  0.5174080000000 1.0
C      1  0.4989830000000  0.4430330000000  0.5175060000000 1.0
C      1  0.5617640000000  0.4787730000000  0.5000050000000 1.0
C      1  0.5348170000000  0.5410840000000  0.5108210000000 1.0
C      1  0.4631950000000  0.5480410000000  0.5194050000000 1.0
C      1  0.5485620000000  0.5180890000000  0.5216150000000 1.0
C      1  0.4871970000000  0.5489150000000  0.5331800000000 1.0
C      1  0.4391570000000  0.5055020000000  0.5335710000000 1.0
C      1  0.4780450000000  0.4525710000000  0.5335330000000 1.0
C      1  0.5443470000000  0.4710760000000  0.5222120000000 1.0
C      1  0.4860460000000  0.4386800000000  0.4914060000000 1.0
C      1  0.5500720000000  0.4698080000000  0.4749600000000 1.0
C      1  0.5382580000000  0.5406700000000  0.4814870000000 1.0
C      1  0.4701320000000  0.5554060000000  0.4917860000000 1.0
C      1  0.4390120000000  0.4912730000000  0.4889880000000 1.0
C      1  0.5046190000000  0.4448440000000  0.4712960000000 1.0
C      1  0.5459110000000  0.4946380000000  0.4583700000000 1.0
C      1  0.5140920000000  0.5518840000000  0.4694800000000 1.0
C      1  0.4590350000000  0.5362620000000  0.4738050000000 1.0
C      1  0.4525680000000  0.4715290000000  0.4733350000000 1.0
C      1  0.4997430000000  0.5436780000000  0.4478720000000 1.0
C      1  0.4748370000000  0.5293680000000  0.4505910000000 1.0
C      1  0.4686530000000  0.4763760000000  0.4502030000000 1.0
C      1  0.4952410000000  0.4635200000000  0.4529020000000 1.0
C      1  0.5242420000000  0.4988010000000  0.4411060000000 1.0
C      1  0.5095330000000  0.5536400000000  0.5164000000000 1.0
C      1  0.4431450000000  0.5274900000000  0.5175010000000 1.0
C      1  0.4550370000000  0.4590610000000  0.5190950000000 1.0
C      1  0.5266650000000  0.4505780000000  0.5119770000000 1.0
C      1  0.5644530000000  0.5069650000000  0.4998220000000 1.0
C      1  0.4416250000000  0.5193870000000  0.4889510000000 1.0
C      1  0.4598970000000  0.4501970000000  0.4916110000000 1.0
C      1  0.5306350000000  0.4497910000000  0.4829130000000 1.0
C      1  0.5540180000000  0.5175240000000  0.4748540000000 1.0
C      1  0.4979230000000  0.5609830000000  0.4908800000000 1.0
C      1  0.5004760000000  0.4996680000000  0.6065190000000 1.0
C      1  0.5036780000000  0.5003300000000  0.3938000000000 1.0
C      1  0.5041560000000  0.4909510000000  0.4592810000000 1.0
C      1  0.4804830000000  0.5025780000000  0.4419770000000 1.0
C      1  0.5051810000000  0.4978680000000  0.3428880000000 1.0
C      1  0.4889770000000  0.5007790000000  0.6287400000000 1.0
C      1  0.5062120000000  0.4976160000000  0.3175780000000 1.0
C      1  0.5128250000000  0.4984080000000  0.5833990000000 1.0
C      1  0.4768150000000  0.5019440000000  0.6517810000000 1.0
C      1  0.5038780000000  0.5044590000000  0.4200770000000 1.0
C      1  0.5387040000000  0.4956390000000  0.5379970000000 1.0
C      1  0.5042690000000  0.4987240000000  0.3688360000000 1.0
C      1  0.5245660000000  0.4974580000000  0.5613310000000 1.0
C      1  0.4649910000000  0.5030450000000  0.6743140000000 1.0
END
