TITL C-74236-4834-10 0.00684006624716854 125000 -43.8812877884219 0 0 8 (C3v) n - 1
REM
REM in /rds/project/t2_vol4/rds-t2-cs072/BORA/CARBON/from-Arr/AIRSS/Generating-Clusters/GAP-ML-2020/Higher-Symm/SD-CG/HFTN-CG
REM
REM
REM
REM
REM
REM ./C.cell (b20cbc046b6831c77cfcea5457e17084)
REM AIRSS Version 0.9.1 bugfix July 2018 build 013d7b7c2542+ Fri, 06 Jul 2018 19:26:36 +0100
REM compiler GCC version 9.3.0
REM options -cpp -mtune=generic -march=x86-64 -g -O0
REM seed 489204441 793073985 -803628921 -361292465 356249877 -1329211992 263071046 -322212354 -512132310 -538349919 1007437990 1595833025 -1856130074 -1662729235 1345653764 -1870247573 -79499606 -1673990693 589666057 -944682022 -726141104 -1945534317 841614046 -382165979 1149404596 618380210 813884397 -1938014781 63134082 1435918433 -67772714 424830136 985754879
REM
CELL 1.54180   50.00000   50.00000   50.00000   90.00000   90.00000   90.00000
LATT -1
SFAC C  
C      1  0.5158310000000  0.5196580000000  0.4793820000000 1.0
C      1  0.4737330000000  0.5196570000000  0.5060970000000 1.0
C      1  0.5179180000000  0.5196570000000  0.5291980000000 1.0
C      1  0.4891110000000  0.5099100000000  0.4838020000000 1.0
C      1  0.4909210000000  0.5099090000000  0.5270280000000 1.0
C      1  0.5274510000000  0.5099100000000  0.5038470000000 1.0
C      1  0.5024940000000  0.4895460000000  0.5048920000000 1.0
C      1  0.5024950000000  0.4633850000000  0.5048920000000 1.0
END
