TITL C-74229-4671-6 660.010561728204 125000 -348.993759610816 0 0 52 (C1) n - 1
REM
REM in /rds/project/t2_vol4/rds-t2-cs072/BORA/CARBON/from-Arr/AIRSS/Generating-Clusters/GAP-ML-2020/Higher-Symm/SD-CG/HFTN-CG
REM
REM
REM
REM
REM
REM ./C.cell (b20cbc046b6831c77cfcea5457e17084)
REM AIRSS Version 0.9.1 bugfix July 2018 build 013d7b7c2542+ Fri, 06 Jul 2018 19:26:36 +0100
REM compiler GCC version 9.3.0
REM options -cpp -mtune=generic -march=x86-64 -g -O0
REM seed 696600021 881252486 331017864 -2000544164 1024591110 957525661 910420080 1343855686 -786399114 1106838156 -1958362489 415371106 -1276598722 -1871846661 -1656530339 1313156103 -381042787 -542656706 -1483113117 2097097175 1870477876 -123743146 -1011656950 507703360 -1047781054 -1537632023 714246213 -1672580725 -1179178016 -1026014837 741087208 -752318575 1676741718
REM
CELL 1.54180   50.00000   50.00000   50.00000   90.00000   90.00000   90.00000
LATT -1
SFAC C  
C      1  0.4913860000000  0.5464620000000  0.5381490000000 1.0
C      1  0.5301120000000  0.5551000000000  0.4817340000000 1.0
C      1  0.4648660000000  0.5385710000000  0.4761370000000 1.0
C      1  0.4495850000000  0.4862680000000  0.5367350000000 1.0
C      1  0.5508280000000  0.4936560000000  0.5165050000000 1.0
C      1  0.4992600000000  0.4880820000000  0.4414180000000 1.0
C      1  0.4532660000000  0.4882140000000  0.4563940000000 1.0
C      1  0.4848600000000  0.4930210000000  0.5701130000000 1.0
C      1  0.5520810000000  0.5030980000000  0.4660080000000 1.0
C      1  0.5159950000000  0.5373110000000  0.5468770000000 1.0
C      1  0.5260280000000  0.5456130000000  0.4554410000000 1.0
C      1  0.4425930000000  0.5335430000000  0.4931180000000 1.0
C      1  0.5393850000000  0.5373090000000  0.5283760000000 1.0
C      1  0.5016180000000  0.5359210000000  0.4417250000000 1.0
C      1  0.4434210000000  0.5331620000000  0.5233470000000 1.0
C      1  0.5462450000000  0.5109310000000  0.5380370000000 1.0
C      1  0.5157030000000  0.5103270000000  0.4347830000000 1.0
C      1  0.4328650000000  0.5050910000000  0.5230730000000 1.0
C      1  0.5296880000000  0.4520130000000  0.4969350000000 1.0
C      1  0.4876150000000  0.4603430000000  0.4821390000000 1.0
C      1  0.4901190000000  0.4559870000000  0.5271180000000 1.0
C      1  0.4673870000000  0.5290680000000  0.5393510000000 1.0
C      1  0.5432190000000  0.5368780000000  0.5002540000000 1.0
C      1  0.4750860000000  0.5300020000000  0.4497930000000 1.0
C      1  0.4789190000000  0.5123320000000  0.5151160000000 1.0
C      1  0.5028120000000  0.4981500000000  0.5192410000000 1.0
C      1  0.5048590000000  0.5127480000000  0.4797520000000 1.0
C      1  0.4732980000000  0.5008460000000  0.4449620000000 1.0
C      1  0.4657460000000  0.5030840000000  0.5549300000000 1.0
C      1  0.5531590000000  0.5110160000000  0.4935190000000 1.0
C      1  0.5256550000000  0.5118100000000  0.5576650000000 1.0
C      1  0.5395500000000  0.5205860000000  0.4477530000000 1.0
C      1  0.4319250000000  0.5060220000000  0.4952490000000 1.0
C      1  0.5112610000000  0.4728270000000  0.5360580000000 1.0
C      1  0.5309600000000  0.4602600000000  0.4685950000000 1.0
C      1  0.4603870000000  0.4652000000000  0.4938220000000 1.0
C      1  0.5106910000000  0.4881530000000  0.5612550000000 1.0
C      1  0.5508170000000  0.4762310000000  0.4611380000000 1.0
C      1  0.4434270000000  0.4841790000000  0.4810820000000 1.0
C      1  0.5040500000000  0.4647370000000  0.4576080000000 1.0
C      1  0.4636320000000  0.4659120000000  0.5220390000000 1.0
C      1  0.5368090000000  0.4686740000000  0.5182550000000 1.0
C      1  0.5037060000000  0.4884390000000  0.4922840000000 1.0
C      1  0.5122320000000  0.5726610000000  0.4983080000000 1.0
C      1  0.4931330000000  0.5559280000000  0.5109760000000 1.0
C      1  0.4991900000000  0.4131850000000  0.5011590000000 1.0
C      1  0.5011680000000  0.4410560000000  0.5021490000000 1.0
C      1  0.5168690000000  0.5984430000000  0.5066420000000 1.0
C      1  0.4838070000000  0.3674540000000  0.5072310000000 1.0
C      1  0.4998210000000  0.3876670000000  0.5020130000000 1.0
C      1  0.5213450000000  0.6218330000000  0.5152160000000 1.0
C      1  0.4863290000000  0.5321250000000  0.4944570000000 1.0
END
