TITL C-74247-4641-6 -7.95459326117966 125000 -273.413007573866 0 0 42 (C1) n - 1
REM
REM in /rds/project/t2_vol4/rds-t2-cs072/BORA/CARBON/from-Arr/AIRSS/Generating-Clusters/GAP-ML-2020/Higher-Symm/SD-CG/HFTN-CG
REM
REM
REM
REM
REM
REM ./C.cell (b20cbc046b6831c77cfcea5457e17084)
REM AIRSS Version 0.9.1 bugfix July 2018 build 013d7b7c2542+ Fri, 06 Jul 2018 19:26:36 +0100
REM compiler GCC version 9.3.0
REM options -cpp -mtune=generic -march=x86-64 -g -O0
REM seed -617781993 1596513670 338319413 -556306088 626961019 831756593 1668975869 -1993212412 60992227 226366150 2141031890 -1061220015 1703192400 -1933108153 -436350906 1932099314 253289448 -2019008714 1038317502 1685570922 -1779814789 1559954603 2073773939 -1980255030 2023484816 -630630080 -2047158838 -1990184490 691744834 1568709392 -1529397323 1662084080 122494326
REM
CELL 1.54180   50.00000   50.00000   50.00000   90.00000   90.00000   90.00000
LATT -1
SFAC C  
C      1  0.4942930000000  0.5112700000000  0.4388460000000 1.0
C      1  0.4496710000000  0.4538310000000  0.4984940000000 1.0
C      1  0.5476340000000  0.5185520000000  0.5087960000000 1.0
C      1  0.4857940000000  0.4744480000000  0.4769140000000 1.0
C      1  0.4903870000000  0.5035510000000  0.4684270000000 1.0
C      1  0.5343770000000  0.5306810000000  0.4605230000000 1.0
C      1  0.4712000000000  0.5258460000000  0.4754270000000 1.0
C      1  0.5132080000000  0.5410680000000  0.5167320000000 1.0
C      1  0.5302080000000  0.4971970000000  0.5272530000000 1.0
C      1  0.4498430000000  0.4970780000000  0.4463180000000 1.0
C      1  0.4839030000000  0.5011660000000  0.5713380000000 1.0
C      1  0.4594750000000  0.5147270000000  0.5126860000000 1.0
C      1  0.4698830000000  0.5035610000000  0.4287610000000 1.0
C      1  0.4428320000000  0.5025720000000  0.4924130000000 1.0
C      1  0.5593700000000  0.5144250000000  0.5650090000000 1.0
C      1  0.5461300000000  0.4959400000000  0.5519830000000 1.0
C      1  0.5321380000000  0.4824040000000  0.4769380000000 1.0
C      1  0.5120560000000  0.4605790000000  0.4738340000000 1.0
C      1  0.4884030000000  0.4766170000000  0.5073240000000 1.0
C      1  0.4807820000000  0.4993970000000  0.5248400000000 1.0
C      1  0.5153920000000  0.5053040000000  0.4818840000000 1.0
C      1  0.5415760000000  0.5424940000000  0.5276760000000 1.0
C      1  0.5465060000000  0.5339660000000  0.5522270000000 1.0
C      1  0.4707860000000  0.5391020000000  0.5012520000000 1.0
C      1  0.5062980000000  0.5152180000000  0.5316250000000 1.0
C      1  0.5060640000000  0.4588310000000  0.5433730000000 1.0
C      1  0.5601160000000  0.5185550000000  0.4625340000000 1.0
C      1  0.5172210000000  0.4707430000000  0.5200210000000 1.0
C      1  0.4335450000000  0.4765130000000  0.4877820000000 1.0
C      1  0.5007840000000  0.5176770000000  0.5603860000000 1.0
C      1  0.5581800000000  0.4916370000000  0.4717020000000 1.0
C      1  0.5165440000000  0.5277840000000  0.4399960000000 1.0
C      1  0.4413640000000  0.4726510000000  0.4572190000000 1.0
C      1  0.4783670000000  0.4562920000000  0.5451890000000 1.0
C      1  0.4616850000000  0.4585870000000  0.4708080000000 1.0
C      1  0.4772690000000  0.4838310000000  0.5511420000000 1.0
C      1  0.5677920000000  0.5115160000000  0.4892450000000 1.0
C      1  0.5264380000000  0.5293580000000  0.4900710000000 1.0
C      1  0.5274920000000  0.4583290000000  0.4953340000000 1.0
C      1  0.4891020000000  0.5552180000000  0.5131840000000 1.0
C      1  0.4699830000000  0.4555190000000  0.5167830000000 1.0
C      1  0.4459060000000  0.5159630000000  0.4677120000000 1.0
END
