TITL C-74254-4613-3 -143.66198573009 125000 -612.470969962371 0 0 88 (C3) n - 1
REM
REM in /rds/project/t2_vol4/rds-t2-cs072/BORA/CARBON/from-Arr/AIRSS/Generating-Clusters/GAP-ML-2020/Higher-Symm/SD-CG/HFTN-CG
REM
REM
REM
REM
REM
REM ./C.cell (b20cbc046b6831c77cfcea5457e17084)
REM AIRSS Version 0.9.1 bugfix July 2018 build 013d7b7c2542+ Fri, 06 Jul 2018 19:26:36 +0100
REM compiler GCC version 9.3.0
REM options -cpp -mtune=generic -march=x86-64 -g -O0
REM seed -2050358925 -1399669720 -1667602080 1695303811 -699543991 1847616185 -2121642929 1756606074 -1388130508 -544944205 1684441216 1871216494 39332229 -1153774503 -571164303 -1452847397 395902656 -1064537989 -1483106403 1905611698 1459841062 -1155331383 1666136738 -1615108524 895834391 -1824289430 200660945 100446073 -1980644708 -662861581 2120214483 -989198501 -1909614113
REM
CELL 1.54180   50.00000   50.00000   50.00000   90.00000   90.00000   90.00000
LATT -1
SFAC C  
C      1  0.5100960000000  0.4397890000000  0.5283940000000 1.0
C      1  0.5178250000000  0.4391710000000  0.4776230000000 1.0
C      1  0.4699880000000  0.4394840000000  0.4963140000000 1.0
C      1  0.4807400000000  0.5319700000000  0.5216950000000 1.0
C      1  0.5279110000000  0.5316810000000  0.5049020000000 1.0
C      1  0.4897810000000  0.5313680000000  0.4724500000000 1.0
C      1  0.4431630000000  0.5364010000000  0.5781030000000 1.0
C      1  0.5956030000000  0.5352940000000  0.5091810000000 1.0
C      1  0.4596880000000  0.5343930000000  0.4116320000000 1.0
C      1  0.5754140000000  0.5395690000000  0.4925750000000 1.0
C      1  0.4554590000000  0.5391400000000  0.4373470000000 1.0
C      1  0.4676060000000  0.5406790000000  0.5688370000000 1.0
C      1  0.5257190000000  0.4945910000000  0.5680950000000 1.0
C      1  0.5451110000000  0.4930730000000  0.4433650000000 1.0
C      1  0.4273880000000  0.4938370000000  0.4889350000000 1.0
C      1  0.5345030000000  0.5050040000000  0.4954200000000 1.0
C      1  0.4779240000000  0.5048320000000  0.4719120000000 1.0
C      1  0.4858550000000  0.5055380000000  0.5326610000000 1.0
C      1  0.4712320000000  0.5548620000000  0.4604090000000 1.0
C      1  0.4798970000000  0.5558310000000  0.5433970000000 1.0
C      1  0.5474380000000  0.5551210000000  0.4944010000000 1.0
C      1  0.5234690000000  0.5609040000000  0.4545610000000 1.0
C      1  0.4487930000000  0.5615970000000  0.5009850000000 1.0
C      1  0.5263400000000  0.5619420000000  0.5424400000000 1.0
C      1  0.4514910000000  0.4883510000000  0.5644240000000 1.0
C      1  0.5789640000000  0.4874580000000  0.5095820000000 1.0
C      1  0.4677270000000  0.4866840000000  0.4266150000000 1.0
C      1  0.4248800000000  0.5013280000000  0.5170140000000 1.0
C      1  0.5513860000000  0.5015530000000  0.5561120000000 1.0
C      1  0.5219930000000  0.5000750000000  0.4270140000000 1.0
C      1  0.4454520000000  0.4498680000000  0.4833710000000 1.0
C      1  0.5112920000000  0.4506060000000  0.5559440000000 1.0
C      1  0.5412250000000  0.4494410000000  0.4626430000000 1.0
C      1  0.4714600000000  0.5795310000000  0.5008930000000 1.0
C      1  0.5151620000000  0.5797060000000  0.5225670000000 1.0
C      1  0.5120820000000  0.5791330000000  0.4738850000000 1.0
C      1  0.5278760000000  0.5787870000000  0.4975200000000 1.0
C      1  0.4840240000000  0.5786070000000  0.4754090000000 1.0
C      1  0.4868010000000  0.5791840000000  0.5244380000000 1.0
C      1  0.5568980000000  0.4740280000000  0.5499180000000 1.0
C      1  0.5135120000000  0.4726360000000  0.4257810000000 1.0
C      1  0.4276920000000  0.4739810000000  0.5254190000000 1.0
C      1  0.5078690000000  0.4117920000000  0.4621490000000 1.0
C      1  0.4612070000000  0.4124850000000  0.5131130000000 1.0
C      1  0.5286780000000  0.4125350000000  0.5280390000000 1.0
C      1  0.5661110000000  0.5305330000000  0.4665980000000 1.0
C      1  0.4374980000000  0.5306810000000  0.4585320000000 1.0
C      1  0.4948210000000  0.5319430000000  0.5739390000000 1.0
C      1  0.4465790000000  0.4815900000000  0.4458080000000 1.0
C      1  0.4786180000000  0.4830430000000  0.5732280000000 1.0
C      1  0.5729540000000  0.4817780000000  0.4817760000000 1.0
C      1  0.4517240000000  0.5403750000000  0.5191700000000 1.0
C      1  0.5403430000000  0.5403500000000  0.5311570000000 1.0
C      1  0.5064130000000  0.5394310000000  0.4484220000000 1.0
C      1  0.5600860000000  0.5221010000000  0.5398910000000 1.0
C      1  0.5038650000000  0.5208700000000  0.4272550000000 1.0
C      1  0.4344250000000  0.5222490000000  0.5322560000000 1.0
C      1  0.4428980000000  0.4671980000000  0.5480420000000 1.0
C      1  0.5687970000000  0.4666920000000  0.5255530000000 1.0
C      1  0.4863680000000  0.4656870000000  0.4277730000000 1.0
C      1  0.5802450000000  0.5144560000000  0.5204230000000 1.0
C      1  0.4768280000000  0.5134550000000  0.4196500000000 1.0
C      1  0.4412610000000  0.5151840000000  0.5595900000000 1.0
C      1  0.5479990000000  0.5524550000000  0.4643130000000 1.0
C      1  0.4448620000000  0.5527770000000  0.4750040000000 1.0
C      1  0.5056920000000  0.5536590000000  0.5589720000000 1.0
C      1  0.4984590000000  0.5043450000000  0.5650410000000 1.0
C      1  0.5562240000000  0.5030880000000  0.4683410000000 1.0
C      1  0.4435900000000  0.5032810000000  0.4666660000000 1.0
C      1  0.5172890000000  0.4822700000000  0.5011030000000 1.0
C      1  0.4911540000000  0.4821200000000  0.4843470000000 1.0
C      1  0.4897100000000  0.4824910000000  0.5153570000000 1.0
C      1  0.4495420000000  0.4554180000000  0.4557730000000 1.0
C      1  0.4854220000000  0.4566610000000  0.5661040000000 1.0
C      1  0.5630370000000  0.4554900000000  0.4798710000000 1.0
C      1  0.5259110000000  0.4518530000000  0.5054520000000 1.0
C      1  0.4902090000000  0.4515610000000  0.4751990000000 1.0
C      1  0.4818590000000  0.4521240000000  0.5212410000000 1.0
C      1  0.4771900000000  0.4455250000000  0.4480430000000 1.0
C      1  0.4647740000000  0.4467130000000  0.5461850000000 1.0
C      1  0.5559820000000  0.4460860000000  0.5078680000000 1.0
C      1  0.5375780000000  0.4657100000000  0.4407620000000 1.0
C      1  0.4285410000000  0.4665870000000  0.4972020000000 1.0
C      1  0.5319440000000  0.4671770000000  0.5634050000000 1.0
C      1  0.4881110000000  0.4172040000000  0.4468940000000 1.0
C      1  0.4579470000000  0.4183400000000  0.5377600000000 1.0
C      1  0.5517270000000  0.4179330000000  0.5184490000000 1.0
C      1  0.4994880000000  0.5371470000000  0.4996180000000 1.0
END
