TITL C-74250-4757-2 334.906425900246 125000 -804.899283727032 0 0 117 (C1) n - 1
REM
REM in /rds/project/t2_vol4/rds-t2-cs072/BORA/CARBON/from-Arr/AIRSS/Generating-Clusters/GAP-ML-2020/Higher-Symm/SD-CG/HFTN-CG
REM
REM
REM
REM
REM
REM ./C.cell (b20cbc046b6831c77cfcea5457e17084)
REM AIRSS Version 0.9.1 bugfix July 2018 build 013d7b7c2542+ Fri, 06 Jul 2018 19:26:36 +0100
REM compiler GCC version 9.3.0
REM options -cpp -mtune=generic -march=x86-64 -g -O0
REM seed -936478913 -15267606 2068805098 -1959765012 879756555 1244932195 -1959609356 1419009993 -455564465 1844964413 -256146595 678830988 1120807285 1893726295 -1408764529 1926599407 956218127 520759045 1558391819 469501394 -2053576174 1911763776 517209718 1290278785 -1391594822 -2019675211 -770729921 -4662556 -1468051629 -572315074 404652097 1984457182 1021241896
REM
CELL 1.54180   50.00000   50.00000   50.00000   90.00000   90.00000   90.00000
LATT -1
SFAC C  
C      1  0.5494520000000  0.5498550000000  0.4616090000000 1.0
C      1  0.5698770000000  0.5040650000000  0.4629020000000 1.0
C      1  0.5555740000000  0.4594730000000  0.4608580000000 1.0
C      1  0.5169530000000  0.4256960000000  0.4573640000000 1.0
C      1  0.4701890000000  0.4372880000000  0.4621500000000 1.0
C      1  0.4332660000000  0.4720660000000  0.4602080000000 1.0
C      1  0.4315620000000  0.5195980000000  0.4640500000000 1.0
C      1  0.4561190000000  0.5638850000000  0.4620920000000 1.0
C      1  0.5066660000000  0.5689490000000  0.4643090000000 1.0
C      1  0.5058480000000  0.5361420000000  0.5057740000000 1.0
C      1  0.5259930000000  0.5205060000000  0.5212340000000 1.0
C      1  0.5407600000000  0.5008840000000  0.5067200000000 1.0
C      1  0.5275580000000  0.4748810000000  0.5022490000000 1.0
C      1  0.5072280000000  0.4638470000000  0.5144470000000 1.0
C      1  0.4813250000000  0.4634460000000  0.5033950000000 1.0
C      1  0.4666270000000  0.4842530000000  0.5165760000000 1.0
C      1  0.4623470000000  0.5096680000000  0.5044170000000 1.0
C      1  0.4808180000000  0.5284110000000  0.5161860000000 1.0
C      1  0.4839460000000  0.5467700000000  0.5819190000000 1.0
C      1  0.5070880000000  0.5355910000000  0.5914960000000 1.0
C      1  0.5244200000000  0.5200530000000  0.5762730000000 1.0
C      1  0.5296020000000  0.4938720000000  0.5792140000000 1.0
C      1  0.5225500000000  0.4684890000000  0.5743680000000 1.0
C      1  0.4932910000000  0.4637570000000  0.5746930000000 1.0
C      1  0.4730070000000  0.4839020000000  0.5705340000000 1.0
C      1  0.4548220000000  0.5042870000000  0.5805540000000 1.0
C      1  0.4621340000000  0.5298850000000  0.5868530000000 1.0
C      1  0.4066420000000  0.4739620000000  0.5212130000000 1.0
C      1  0.4040870000000  0.5434160000000  0.5165010000000 1.0
C      1  0.4580370000000  0.5862950000000  0.5212760000000 1.0
C      1  0.5255100000000  0.6013780000000  0.5219070000000 1.0
C      1  0.5795980000000  0.5566130000000  0.5185860000000 1.0
C      1  0.6091160000000  0.4909230000000  0.5163930000000 1.0
C      1  0.5647270000000  0.4280470000000  0.5143360000000 1.0
C      1  0.5160930000000  0.3824460000000  0.4983520000000 1.0
C      1  0.4457080000000  0.4215460000000  0.5117030000000 1.0
C      1  0.5416370000000  0.5045220000000  0.4749260000000 1.0
C      1  0.5294540000000  0.4769060000000  0.4726920000000 1.0
C      1  0.5052060000000  0.4738730000000  0.4590830000000 1.0
C      1  0.4808890000000  0.4653420000000  0.4727780000000 1.0
C      1  0.4608290000000  0.4834980000000  0.4640280000000 1.0
C      1  0.4611110000000  0.5101650000000  0.4741610000000 1.0
C      1  0.4808680000000  0.5266860000000  0.4618100000000 1.0
C      1  0.5043100000000  0.5365660000000  0.4749740000000 1.0
C      1  0.5289960000000  0.5271840000000  0.4647460000000 1.0
C      1  0.4788120000000  0.5790380000000  0.4741300000000 1.0
C      1  0.5345010000000  0.5735400000000  0.4742860000000 1.0
C      1  0.5745410000000  0.5341930000000  0.4702860000000 1.0
C      1  0.5771470000000  0.4761980000000  0.4746300000000 1.0
C      1  0.5442560000000  0.4317840000000  0.4664270000000 1.0
C      1  0.4937290000000  0.4194250000000  0.4732560000000 1.0
C      1  0.4395960000000  0.4435310000000  0.4693180000000 1.0
C      1  0.4171160000000  0.4941490000000  0.4740130000000 1.0
C      1  0.4323670000000  0.5501420000000  0.4730330000000 1.0
C      1  0.4750720000000  0.5367030000000  0.4171610000000 1.0
C      1  0.5031130000000  0.5430750000000  0.4162230000000 1.0
C      1  0.5299750000000  0.5308700000000  0.4149340000000 1.0
C      1  0.5414820000000  0.5052510000000  0.4164800000000 1.0
C      1  0.5321910000000  0.4777970000000  0.4185090000000 1.0
C      1  0.5072330000000  0.4672210000000  0.4296380000000 1.0
C      1  0.4786240000000  0.4645460000000  0.4190610000000 1.0
C      1  0.4593920000000  0.4839180000000  0.4142830000000 1.0
C      1  0.4585940000000  0.5132220000000  0.4161400000000 1.0
C      1  0.5848720000000  0.5347490000000  0.5366080000000 1.0
C      1  0.6040710000000  0.4876450000000  0.5433160000000 1.0
C      1  0.5445720000000  0.4142580000000  0.5294270000000 1.0
C      1  0.5014290000000  0.4224710000000  0.5480610000000 1.0
C      1  0.4347960000000  0.4340260000000  0.5362910000000 1.0
C      1  0.4119160000000  0.4963580000000  0.5395060000000 1.0
C      1  0.4227710000000  0.5532490000000  0.5379110000000 1.0
C      1  0.4798160000000  0.5838640000000  0.5408280000000 1.0
C      1  0.5393520000000  0.5838480000000  0.5428380000000 1.0
C      1  0.5065530000000  0.4371070000000  0.4340350000000 1.0
C      1  0.4773870000000  0.4390990000000  0.4335090000000 1.0
C      1  0.4362680000000  0.4830630000000  0.4335420000000 1.0
C      1  0.4347360000000  0.5115040000000  0.4345850000000 1.0
C      1  0.4677840000000  0.5468600000000  0.4429980000000 1.0
C      1  0.5134450000000  0.5635270000000  0.4354350000000 1.0
C      1  0.5394390000000  0.5516350000000  0.4343890000000 1.0
C      1  0.5638920000000  0.4975060000000  0.4345320000000 1.0
C      1  0.5559230000000  0.4700040000000  0.4338110000000 1.0
C      1  0.4334710000000  0.5733650000000  0.5195880000000 1.0
C      1  0.4992180000000  0.5908210000000  0.5193320000000 1.0
C      1  0.5591130000000  0.5752700000000  0.5219620000000 1.0
C      1  0.5930960000000  0.5172290000000  0.5132910000000 1.0
C      1  0.5750380000000  0.4523340000000  0.5226050000000 1.0
C      1  0.5346330000000  0.4009710000000  0.5047330000000 1.0
C      1  0.4889860000000  0.4166580000000  0.5233420000000 1.0
C      1  0.4168980000000  0.4480720000000  0.5185380000000 1.0
C      1  0.4078330000000  0.5155580000000  0.5163990000000 1.0
C      1  0.5377630000000  0.5807180000000  0.5017230000000 1.0
C      1  0.5863680000000  0.5398200000000  0.4949380000000 1.0
C      1  0.5842980000000  0.4738880000000  0.5032890000000 1.0
C      1  0.5526710000000  0.4186750000000  0.4894080000000 1.0
C      1  0.4975250000000  0.4048990000000  0.4983270000000 1.0
C      1  0.4285090000000  0.4357690000000  0.4935050000000 1.0
C      1  0.4032110000000  0.4923160000000  0.4981050000000 1.0
C      1  0.4198200000000  0.5595200000000  0.4969210000000 1.0
C      1  0.4768880000000  0.5914920000000  0.4993590000000 1.0
C      1  0.4898870000000  0.5589690000000  0.5541080000000 1.0
C      1  0.5212280000000  0.5588820000000  0.5451870000000 1.0
C      1  0.5653610000000  0.5210470000000  0.5520580000000 1.0
C      1  0.5729110000000  0.4914820000000  0.5462830000000 1.0
C      1  0.5410200000000  0.4510520000000  0.5604660000000 1.0
C      1  0.4830660000000  0.4408200000000  0.5612010000000 1.0
C      1  0.4592890000000  0.4480800000000  0.5453930000000 1.0
C      1  0.4377220000000  0.5031570000000  0.5535670000000 1.0
C      1  0.4438380000000  0.5313770000000  0.5429170000000 1.0
C      1  0.4380230000000  0.5200120000000  0.5168250000000 1.0
C      1  0.4734350000000  0.5368260000000  0.5410180000000 1.0
C      1  0.5142230000000  0.5629150000000  0.5156570000000 1.0
C      1  0.5345390000000  0.5305230000000  0.5489170000000 1.0
C      1  0.5687740000000  0.4967090000000  0.5162660000000 1.0
C      1  0.5639040000000  0.4629310000000  0.5473160000000 1.0
C      1  0.5299130000000  0.4267150000000  0.5497430000000 1.0
C      1  0.4698630000000  0.4369640000000  0.5175020000000 1.0
C      1  0.4590650000000  0.4799060000000  0.5448690000000 1.0
END
