TITL C-74235-4679-7 -0.0040741214963811 125000 -22.9478494894137 0 0 4 (D(inf)h) n - 1
REM
REM in /rds/project/t2_vol4/rds-t2-cs072/BORA/CARBON/from-Arr/AIRSS/Generating-Clusters/GAP-ML-2020/Higher-Symm/SD-CG/HFTN-CG
REM
REM
REM
REM
REM
REM ./C.cell (b20cbc046b6831c77cfcea5457e17084)
REM AIRSS Version 0.9.1 bugfix July 2018 build 013d7b7c2542+ Fri, 06 Jul 2018 19:26:36 +0100
REM compiler GCC version 9.3.0
REM options -cpp -mtune=generic -march=x86-64 -g -O0
REM seed -629521380 -1661470416 717473955 1540967463 1415187637 -1822697299 237638676 1241918138 -899162616 -1595488612 -73689085 1047739009 -371289438 1839138942 195191048 1243840974 -1412352969 -153551187 1479937540 -1578190701 -963386446 1994859484 1725349807 937527043 1178759006 -1567383780 -1325442266 -357999913 1795681014 -1231611859 71348284 982930028 1556134062
REM
CELL 1.54180   50.00000   50.00000   50.00000   90.00000   90.00000   90.00000
LATT -1
SFAC C  
C      1  0.4968540000000  0.4611370000000  0.4976680000000 1.0
C      1  0.4968540000000  0.4865340000000  0.4976680000000 1.0
C      1  0.4968540000000  0.5134660000000  0.4976680000000 1.0
C      1  0.4968540000000  0.5388630000000  0.4976680000000 1.0
END
