TITL C-79160-3940-60 427.510382333455 27000 -965.626469150785 0 0 140 (C1) n - 1
REM
REM in /rds/project/t2_vol4/rds-t2-cs072/BORA/CARBON/from-Arr/AIRSS/Generating-Clusters/GAP-ML-2020/Higher-Symm/SD-CG/HFTN-CG/Box-30A/DENE
REM
REM
REM
REM
REM
REM ./C.cell (13fc22856271072ba132eecf8fb47ea5)
REM AIRSS Version 0.9.1 bugfix July 2018 build 013d7b7c2542+ Fri, 06 Jul 2018 19:26:36 +0100
REM compiler GCC version 9.3.0
REM options -cpp -mtune=generic -march=x86-64 -g -O0
REM seed 1064249727 -1289329101 -1379414098 -337790701 1159932273 286261671 1302014982 -1077945357 280700559 -430668736 -1418023402 1580039786 -649595010 -1495912835 384753806 1655711761 252750853 1115864073 745000751 -1884480005 -132030072 -1279483575 -1016043249 -68723318 -369644590 -1615713801 117730977 908026293 -809952325 77420322 472624145 490166313 -523065504
REM
CELL 1.54180   30.00000   30.00000   30.00000   90.00000   90.00000   90.00000
LATT -1
SFAC C  
C      1  0.4788340000000  0.3431630000000  0.4264420000000 1.0
C      1  0.5606480000000  0.3362410000000  0.4640970000000 1.0
C      1  0.5624580000000  0.3386390000000  0.5124210000000 1.0
C      1  0.5254430000000  0.3420620000000  0.5450080000000 1.0
C      1  0.4755900000000  0.3437960000000  0.5433340000000 1.0
C      1  0.4404190000000  0.3469240000000  0.5070060000000 1.0
C      1  0.4412320000000  0.3477690000000  0.4572090000000 1.0
C      1  0.5208760000000  0.6216610000000  0.5916530000000 1.0
C      1  0.4413450000000  0.6287200000000  0.5755850000000 1.0
C      1  0.4036060000000  0.6320600000000  0.5011700000000 1.0
C      1  0.4430890000000  0.6319590000000  0.4267660000000 1.0
C      1  0.5232740000000  0.6219390000000  0.4131150000000 1.0
C      1  0.5868460000000  0.6146280000000  0.4615050000000 1.0
C      1  0.5791170000000  0.6085860000000  0.5388500000000 1.0
C      1  0.4352700000000  0.4332790000000  0.3615780000000 1.0
C      1  0.5672340000000  0.4243060000000  0.3693430000000 1.0
C      1  0.6479570000000  0.4177780000000  0.4763830000000 1.0
C      1  0.6110240000000  0.4151280000000  0.6006360000000 1.0
C      1  0.4913880000000  0.4138650000000  0.6474690000000 1.0
C      1  0.3770660000000  0.4184080000000  0.5892700000000 1.0
C      1  0.3484410000000  0.4288280000000  0.4610680000000 1.0
C      1  0.6562070000000  0.4610580000000  0.5568140000000 1.0
C      1  0.5551100000000  0.4582330000000  0.6552710000000 1.0
C      1  0.4156910000000  0.4577910000000  0.6462280000000 1.0
C      1  0.3308990000000  0.4691330000000  0.5260640000000 1.0
C      1  0.3797920000000  0.4791470000000  0.3892810000000 1.0
C      1  0.5154880000000  0.4743110000000  0.3370440000000 1.0
C      1  0.6406360000000  0.4638480000000  0.4130490000000 1.0
C      1  0.6397900000000  0.4877950000000  0.4529990000000 1.0
C      1  0.6224150000000  0.4846650000000  0.5787520000000 1.0
C      1  0.5170770000000  0.4823250000000  0.6438480000000 1.0
C      1  0.3980900000000  0.4844200000000  0.6126900000000 1.0
C      1  0.3473430000000  0.4953160000000  0.4912060000000 1.0
C      1  0.4204470000000  0.5022760000000  0.3856280000000 1.0
C      1  0.5468730000000  0.4964650000000  0.3634020000000 1.0
C      1  0.3566680000000  0.5386000000000  0.5641360000000 1.0
C      1  0.3489500000000  0.5487590000000  0.4168570000000 1.0
C      1  0.4766950000000  0.5482770000000  0.3344290000000 1.0
C      1  0.6234330000000  0.5371750000000  0.3770820000000 1.0
C      1  0.6727680000000  0.5339540000000  0.5207130000000 1.0
C      1  0.5899960000000  0.5335700000000  0.6430270000000 1.0
C      1  0.4500460000000  0.5345480000000  0.6638580000000 1.0
C      1  0.5961980000000  0.5646820000000  0.3985870000000 1.0
C      1  0.6378120000000  0.5601130000000  0.5124550000000 1.0
C      1  0.5713540000000  0.5581960000000  0.6097470000000 1.0
C      1  0.4642460000000  0.5611090000000  0.6319760000000 1.0
C      1  0.3622670000000  0.5829140000000  0.5659740000000 1.0
C      1  0.3809270000000  0.5688700000000  0.4385040000000 1.0
C      1  0.4760400000000  0.5719860000000  0.3719010000000 1.0
C      1  0.4805190000000  0.4584480000000  0.6609930000000 1.0
C      1  0.3614140000000  0.4634520000000  0.5932510000000 1.0
C      1  0.3386470000000  0.4742410000000  0.4505880000000 1.0
C      1  0.4427630000000  0.4786960000000  0.3519410000000 1.0
C      1  0.5843260000000  0.4681860000000  0.3639840000000 1.0
C      1  0.6626240000000  0.4620240000000  0.4846190000000 1.0
C      1  0.6123250000000  0.4599410000000  0.6171110000000 1.0
C      1  0.5264110000000  0.6596290000000  0.4431550000000 1.0
C      1  0.5575150000000  0.6492830000000  0.4771730000000 1.0
C      1  0.5511190000000  0.6457490000000  0.5238060000000 1.0
C      1  0.5134320000000  0.6498330000000  0.5533260000000 1.0
C      1  0.4655530000000  0.6548140000000  0.5449630000000 1.0
C      1  0.4418660000000  0.6584600000000  0.5024630000000 1.0
C      1  0.4607120000000  0.6634720000000  0.4572600000000 1.0
C      1  0.3435420000000  0.4251220000000  0.5111600000000 1.0
C      1  0.3925440000000  0.4335930000000  0.3876400000000 1.0
C      1  0.5201900000000  0.4285550000000  0.3492560000000 1.0
C      1  0.6321470000000  0.4193460000000  0.4274070000000 1.0
C      1  0.6414290000000  0.4159830000000  0.5606420000000 1.0
C      1  0.5409130000000  0.4136560000000  0.6447010000000 1.0
C      1  0.4128670000000  0.4149840000000  0.6242210000000 1.0
C      1  0.4180090000000  0.3884270000000  0.4399310000000 1.0
C      1  0.4867440000000  0.3812980000000  0.3972080000000 1.0
C      1  0.5790310000000  0.3779190000000  0.4437040000000 1.0
C      1  0.5948740000000  0.3712240000000  0.5274620000000 1.0
C      1  0.5367070000000  0.3752630000000  0.5803700000000 1.0
C      1  0.4591810000000  0.3755160000000  0.5774720000000 1.0
C      1  0.4059820000000  0.3806150000000  0.5178280000000 1.0
C      1  0.4535770000000  0.4231020000000  0.4563520000000 1.0
C      1  0.4962680000000  0.4202790000000  0.4333840000000 1.0
C      1  0.5585330000000  0.4133720000000  0.4767640000000 1.0
C      1  0.5596870000000  0.4157320000000  0.5262500000000 1.0
C      1  0.5177890000000  0.4152550000000  0.5546950000000 1.0
C      1  0.4683820000000  0.4147890000000  0.5466580000000 1.0
C      1  0.4394820000000  0.4162580000000  0.5060580000000 1.0
C      1  0.4692710000000  0.5265530000000  0.5950690000000 1.0
C      1  0.4023860000000  0.5279700000000  0.5446500000000 1.0
C      1  0.4133760000000  0.5362080000000  0.4609270000000 1.0
C      1  0.4907060000000  0.5414680000000  0.4121480000000 1.0
C      1  0.5720500000000  0.5343550000000  0.4341500000000 1.0
C      1  0.5960020000000  0.5296280000000  0.5124060000000 1.0
C      1  0.5484300000000  0.5255060000000  0.5780510000000 1.0
C      1  0.5121090000000  0.4981970000000  0.5970600000000 1.0
C      1  0.4309010000000  0.4997240000000  0.5779520000000 1.0
C      1  0.3956650000000  0.5062190000000  0.4995260000000 1.0
C      1  0.4451290000000  0.5136960000000  0.4277530000000 1.0
C      1  0.5321230000000  0.5107230000000  0.4095670000000 1.0
C      1  0.5942460000000  0.5031880000000  0.4674550000000 1.0
C      1  0.5834870000000  0.5004410000000  0.5513300000000 1.0
C      1  0.5228370000000  0.4715790000000  0.4418880000000 1.0
C      1  0.5586130000000  0.4650830000000  0.4746350000000 1.0
C      1  0.5537060000000  0.4660410000000  0.5274740000000 1.0
C      1  0.5092540000000  0.4654480000000  0.5577790000000 1.0
C      1  0.4580750000000  0.4663600000000  0.5488530000000 1.0
C      1  0.4301030000000  0.4683560000000  0.5058910000000 1.0
C      1  0.4512000000000  0.4736750000000  0.4616820000000 1.0
C      1  0.3466180000000  0.5011890000000  0.4131430000000 1.0
C      1  0.4770270000000  0.5014750000000  0.3302710000000 1.0
C      1  0.6234830000000  0.4896630000000  0.3774740000000 1.0
C      1  0.6748850000000  0.4869140000000  0.5222000000000 1.0
C      1  0.5915790000000  0.4870990000000  0.6485920000000 1.0
C      1  0.4451440000000  0.4871720000000  0.6689090000000 1.0
C      1  0.3372840000000  0.4919660000000  0.5661240000000 1.0
C      1  0.5553870000000  0.5720040000000  0.4633360000000 1.0
C      1  0.5586680000000  0.5640370000000  0.5128440000000 1.0
C      1  0.5197240000000  0.5465990000000  0.5382390000000 1.0
C      1  0.4760620000000  0.5623500000000  0.5608260000000 1.0
C      1  0.4312040000000  0.5675780000000  0.5346650000000 1.0
C      1  0.4375180000000  0.5725350000000  0.4845250000000 1.0
C      1  0.5104240000000  0.5794070000000  0.4423360000000 1.0
C      1  0.5645690000000  0.6011840000000  0.5876980000000 1.0
C      1  0.4757390000000  0.5991340000000  0.5994960000000 1.0
C      1  0.4023670000000  0.6078430000000  0.5487270000000 1.0
C      1  0.4090200000000  0.6065640000000  0.4564580000000 1.0
C      1  0.4768220000000  0.6157330000000  0.3927300000000 1.0
C      1  0.5786970000000  0.6076610000000  0.4129950000000 1.0
C      1  0.6162660000000  0.6029160000000  0.5053360000000 1.0
C      1  0.5693010000000  0.3913170000000  0.6122850000000 1.0
C      1  0.4548840000000  0.3906450000000  0.6231280000000 1.0
C      1  0.3691530000000  0.3986560000000  0.5436650000000 1.0
C      1  0.3766950000000  0.4074480000000  0.4265690000000 1.0
C      1  0.4774630000000  0.4062700000000  0.3597170000000 1.0
C      1  0.5942680000000  0.3986590000000  0.4038900000000 1.0
C      1  0.6360450000000  0.3928210000000  0.5178310000000 1.0
C      1  0.5167840000000  0.3941300000000  0.4652770000000 1.0
C      1  0.5175500000000  0.3461490000000  0.4520770000000 1.0
C      1  0.4984390000000  0.5319490000000  0.4975680000000 1.0
C      1  0.4952540000000  0.6977170000000  0.4434170000000 1.0
C      1  0.4933420000000  0.4911100000000  0.4732690000000 1.0
C      1  0.4840150000000  0.5728450000000  0.4798460000000 1.0
C      1  0.4973040000000  0.7415550000000  0.4401190000000 1.0
END
