TITL C-79160-3940-47 0.0424013409342388 27000 -62.2832207520835 0 0 10 (C1) n - 1
REM
REM in /rds/project/t2_vol4/rds-t2-cs072/BORA/CARBON/from-Arr/AIRSS/Generating-Clusters/GAP-ML-2020/Higher-Symm/SD-CG/HFTN-CG/Box-30A/DENE
REM
REM
REM
REM
REM
REM ./C.cell (13fc22856271072ba132eecf8fb47ea5)
REM AIRSS Version 0.9.1 bugfix July 2018 build 013d7b7c2542+ Fri, 06 Jul 2018 19:26:36 +0100
REM compiler GCC version 9.3.0
REM options -cpp -mtune=generic -march=x86-64 -g -O0
REM seed 904433069 -1619100911 1587393189 111168931 2066905303 -621193108 257303357 590559525 571360428 -1167947050 -448888070 2008121411 787226447 -1273590018 -720801219 6561169 957372185 2078444498 -1249581517 -985295119 -1440380187 -926302801 976786521 385997242 -571885362 49418682 1900310330 -1954613363 -1773190611 1886783921 1275273 -140837967 -241723221
REM
CELL 1.54180   30.00000   30.00000   30.00000   90.00000   90.00000   90.00000
LATT -1
SFAC C  
C      1  0.4323310000000  0.4699530000000  0.5459180000000 1.0
C      1  0.4142120000000  0.4482110000000  0.5131190000000 1.0
C      1  0.4146150000000  0.4625660000000  0.4728520000000 1.0
C      1  0.4178930000000  0.4932730000000  0.4430620000000 1.0
C      1  0.4164090000000  0.5332090000000  0.4588350000000 1.0
C      1  0.4186530000000  0.5621180000000  0.4917270000000 1.0
C      1  0.4400260000000  0.5438250000000  0.5246620000000 1.0
C      1  0.4618360000000  0.5055240000000  0.5354100000000 1.0
C      1  0.5058970000000  0.5025130000000  0.5216600000000 1.0
C      1  0.5434190000000  0.5045590000000  0.5038060000000 1.0
END
