TITL C-79163-3824-72 0.430706157602984 27000 -480.597602480504 0 0 72 (C3) n - 1
REM
REM in /rds/project/t2_vol4/rds-t2-cs072/BORA/CARBON/from-Arr/AIRSS/Generating-Clusters/GAP-ML-2020/Higher-Symm/SD-CG/HFTN-CG/Box-30A/DENE
REM
REM
REM
REM
REM
REM ./C.cell (13fc22856271072ba132eecf8fb47ea5)
REM AIRSS Version 0.9.1 bugfix July 2018 build 013d7b7c2542+ Fri, 06 Jul 2018 19:26:36 +0100
REM compiler GCC version 9.3.0
REM options -cpp -mtune=generic -march=x86-64 -g -O0
REM seed 1963070158 -1089966314 727203118 -1237657308 622356685 2112452418 -686392439 1652490391 -706378926 309991346 -1585989351 -1440642211 2121286343 -59428150 -1693525421 -274513138 -82842988 -1754546463 551034974 -926851281 -1759841136 -1144468539 295688161 -1569879462 1836979490 -465831196 -1189246818 -1911515966 -1467411924 -1508807795 -1029072206 -1531689280 -773438769
REM
CELL 1.54180   30.00000   30.00000   30.00000   90.00000   90.00000   90.00000
LATT -1
SFAC C  
C      1  0.6179200000000  0.4638120000000  0.5136180000000 1.0
C      1  0.4097000000000  0.4159720000000  0.5136140000000 1.0
C      1  0.4723790000000  0.6202160000000  0.5136150000000 1.0
C      1  0.3820790000000  0.4638110000000  0.5136130000000 1.0
C      1  0.5903000000000  0.4159720000000  0.5136180000000 1.0
C      1  0.5276190000000  0.6202170000000  0.5136160000000 1.0
C      1  0.4766980000000  0.4592330000000  0.3932690000000 1.0
C      1  0.4763500000000  0.5405640000000  0.3932690000000 1.0
C      1  0.5469590000000  0.5002010000000  0.3932700000000 1.0
C      1  0.5233060000000  0.4592340000000  0.3932700000000 1.0
C      1  0.5236540000000  0.5405650000000  0.3932700000000 1.0
C      1  0.4530460000000  0.5002000000000  0.3932680000000 1.0
C      1  0.5830070000000  0.5006410000000  0.4254750000000 1.0
C      1  0.4590540000000  0.4277940000000  0.4254730000000 1.0
C      1  0.4579430000000  0.5715640000000  0.4254720000000 1.0
C      1  0.4169960000000  0.5006400000000  0.4254720000000 1.0
C      1  0.5409490000000  0.4277940000000  0.4254740000000 1.0
C      1  0.5420590000000  0.5715640000000  0.4254740000000 1.0
C      1  0.3893060000000  0.4629730000000  0.4375670000000 1.0
C      1  0.5232830000000  0.6143780000000  0.4375700000000 1.0
C      1  0.5874150000000  0.4226490000000  0.4375720000000 1.0
C      1  0.6106960000000  0.4629740000000  0.4375720000000 1.0
C      1  0.4767190000000  0.6143780000000  0.4375690000000 1.0
C      1  0.4125880000000  0.4226480000000  0.4375680000000 1.0
C      1  0.4519340000000  0.4212960000000  0.5876940000000 1.0
C      1  0.4558700000000  0.5809780000000  0.5876930000000 1.0
C      1  0.5921910000000  0.4977280000000  0.5876960000000 1.0
C      1  0.5480630000000  0.4212960000000  0.5876950000000 1.0
C      1  0.5441260000000  0.5809780000000  0.5876950000000 1.0
C      1  0.4078060000000  0.4977270000000  0.5876920000000 1.0
C      1  0.5236910000000  0.5428010000000  0.6122450000000 1.0
C      1  0.5252170000000  0.4580820000000  0.6122460000000 1.0
C      1  0.4510850000000  0.4991190000000  0.6122440000000 1.0
C      1  0.4763040000000  0.5428000000000  0.6122440000000 1.0
C      1  0.4747790000000  0.4580810000000  0.6122450000000 1.0
C      1  0.5489100000000  0.4991200000000  0.6122460000000 1.0
C      1  0.4510970000000  0.5006230000000  0.4699150000000 1.0
C      1  0.5249920000000  0.5420400000000  0.4699160000000 1.0
C      1  0.5239130000000  0.4573370000000  0.4699170000000 1.0
C      1  0.5489040000000  0.5006230000000  0.4699170000000 1.0
C      1  0.4750090000000  0.5420400000000  0.4699150000000 1.0
C      1  0.4760880000000  0.4573370000000  0.4699160000000 1.0
C      1  0.4404320000000  0.5603720000000  0.5482770000000 1.0
C      1  0.5820660000000  0.5214010000000  0.5482800000000 1.0
C      1  0.4774990000000  0.4182280000000  0.5482790000000 1.0
C      1  0.5595650000000  0.5603730000000  0.5482800000000 1.0
C      1  0.4179320000000  0.5214000000000  0.5482770000000 1.0
C      1  0.5225000000000  0.4182280000000  0.5482800000000 1.0
C      1  0.5909720000000  0.4212560000000  0.5666140000000 1.0
C      1  0.3863180000000  0.4605870000000  0.5666100000000 1.0
C      1  0.5227070000000  0.6181570000000  0.5666120000000 1.0
C      1  0.4090260000000  0.4212550000000  0.5666110000000 1.0
C      1  0.6136800000000  0.4605880000000  0.5666150000000 1.0
C      1  0.4772900000000  0.6181570000000  0.5666110000000 1.0
C      1  0.3699440000000  0.4894780000000  0.4757050000000 1.0
C      1  0.5559170000000  0.6178920000000  0.4757080000000 1.0
C      1  0.5741400000000  0.3926290000000  0.4757090000000 1.0
C      1  0.6300570000000  0.4894790000000  0.4757100000000 1.0
C      1  0.4440830000000  0.6178920000000  0.4757060000000 1.0
C      1  0.4258610000000  0.3926280000000  0.4757060000000 1.0
C      1  0.5460090000000  0.4435110000000  0.5136160000000 1.0
C      1  0.4280740000000  0.4883990000000  0.5136140000000 1.0
C      1  0.5259160000000  0.5680900000000  0.5136150000000 1.0
C      1  0.4539910000000  0.4435110000000  0.5136140000000 1.0
C      1  0.5719250000000  0.4884000000000  0.5136170000000 1.0
C      1  0.4740830000000  0.5680900000000  0.5136140000000 1.0
C      1  0.5820160000000  0.5743940000000  0.4560050000000 1.0
C      1  0.5234210000000  0.3917750000000  0.4560050000000 1.0
C      1  0.3945660000000  0.5338300000000  0.4560010000000 1.0
C      1  0.4179850000000  0.5743940000000  0.4560020000000 1.0
C      1  0.4765820000000  0.3917750000000  0.4560040000000 1.0
C      1  0.6054360000000  0.5338310000000  0.4560060000000 1.0
END
