TITL C-79160-3940-79 110.056608677367 27000 -327.200579353642 0 0 49 (C1) n - 1
REM
REM in /rds/project/t2_vol4/rds-t2-cs072/BORA/CARBON/from-Arr/AIRSS/Generating-Clusters/GAP-ML-2020/Higher-Symm/SD-CG/HFTN-CG/Box-30A/DENE
REM
REM
REM
REM
REM
REM ./C.cell (13fc22856271072ba132eecf8fb47ea5)
REM AIRSS Version 0.9.1 bugfix July 2018 build 013d7b7c2542+ Fri, 06 Jul 2018 19:26:36 +0100
REM compiler GCC version 9.3.0
REM options -cpp -mtune=generic -march=x86-64 -g -O0
REM seed 1749658564 80819513 -583085726 -1802266080 -1847215681 412885100 863283121 202386906 1873859201 996775124 -954206928 1399330000 -1458235255 546176069 2044816435 -1151402182 310132562 -1177609258 864156997 -745167083 -43037989 1587320512 -390311513 1151535299 -2120465148 -1127560083 -1528849024 1638030179 -1898224997 619358699 1383632524 -397634271 624069390
REM
CELL 1.54180   30.00000   30.00000   30.00000   90.00000   90.00000   90.00000
LATT -1
SFAC C  
C      1  0.4223750000000  0.4393940000000  0.4946440000000 1.0
C      1  0.5129640000000  0.4791460000000  0.3812410000000 1.0
C      1  0.4049110000000  0.5153410000000  0.4679300000000 1.0
C      1  0.5236940000000  0.5209900000000  0.5795730000000 1.0
C      1  0.5309730000000  0.5606130000000  0.3831890000000 1.0
C      1  0.4748260000000  0.4561990000000  0.3945430000000 1.0
C      1  0.4229490000000  0.5749850000000  0.5386580000000 1.0
C      1  0.5253970000000  0.4730960000000  0.5911800000000 1.0
C      1  0.4586250000000  0.4290440000000  0.5657740000000 1.0
C      1  0.5256210000000  0.3832700000000  0.5586150000000 1.0
C      1  0.4903810000000  0.4052040000000  0.5410380000000 1.0
C      1  0.5097660000000  0.5196860000000  0.5279460000000 1.0
C      1  0.5734370000000  0.5565710000000  0.5256010000000 1.0
C      1  0.4300950000000  0.4994230000000  0.5492110000000 1.0
C      1  0.5270580000000  0.5626990000000  0.5074400000000 1.0
C      1  0.4141080000000  0.4697450000000  0.4575680000000 1.0
C      1  0.5020170000000  0.4828420000000  0.4961130000000 1.0
C      1  0.5159350000000  0.5025240000000  0.4548050000000 1.0
C      1  0.4836840000000  0.5395800000000  0.6022990000000 1.0
C      1  0.5422310000000  0.4864440000000  0.4180780000000 1.0
C      1  0.4895610000000  0.5916660000000  0.5230870000000 1.0
C      1  0.4608150000000  0.4219020000000  0.4711380000000 1.0
C      1  0.4540960000000  0.5016180000000  0.5928400000000 1.0
C      1  0.4495590000000  0.4479590000000  0.4300410000000 1.0
C      1  0.5806890000000  0.5170090000000  0.4239840000000 1.0
C      1  0.4257750000000  0.4511960000000  0.5398930000000 1.0
C      1  0.4478290000000  0.5414070000000  0.4732850000000 1.0
C      1  0.4724050000000  0.5836620000000  0.6090260000000 1.0
C      1  0.5973050000000  0.5182220000000  0.5062830000000 1.0
C      1  0.5566700000000  0.5579690000000  0.4224680000000 1.0
C      1  0.4466530000000  0.5842570000000  0.4975700000000 1.0
C      1  0.6060360000000  0.5025460000000  0.4623240000000 1.0
C      1  0.5104570000000  0.5234820000000  0.3609640000000 1.0
C      1  0.5578570000000  0.4133470000000  0.5437800000000 1.0
C      1  0.5517020000000  0.4197410000000  0.4945670000000 1.0
C      1  0.4862930000000  0.5509560000000  0.3926620000000 1.0
C      1  0.3751860000000  0.5244640000000  0.5006030000000 1.0
C      1  0.5699580000000  0.5343680000000  0.5684820000000 1.0
C      1  0.4643930000000  0.5125290000000  0.5120150000000 1.0
C      1  0.4634680000000  0.5839210000000  0.5639030000000 1.0
C      1  0.4794150000000  0.4611140000000  0.5952540000000 1.0
C      1  0.4828650000000  0.5388880000000  0.4403790000000 1.0
C      1  0.5870870000000  0.4937190000000  0.5484070000000 1.0
C      1  0.6195160000000  0.4571750000000  0.4589590000000 1.0
C      1  0.5865440000000  0.4327230000000  0.4706420000000 1.0
C      1  0.5256670000000  0.5540790000000  0.4599680000000 1.0
C      1  0.5019750000000  0.4331840000000  0.4964130000000 1.0
C      1  0.5622660000000  0.4555120000000  0.5662020000000 1.0
C      1  0.3969120000000  0.5345840000000  0.5394130000000 1.0
END
