TITL C-79161-3900-126 0.347442524061643 27000 -1408.00807622399 0 0 194 (C1) n - 1
REM
REM in /rds/project/t2_vol4/rds-t2-cs072/BORA/CARBON/from-Arr/AIRSS/Generating-Clusters/GAP-ML-2020/Higher-Symm/SD-CG/HFTN-CG/Box-30A/DENE
REM
REM
REM
REM
REM
REM ./C.cell (13fc22856271072ba132eecf8fb47ea5)
REM AIRSS Version 0.9.1 bugfix July 2018 build 013d7b7c2542+ Fri, 06 Jul 2018 19:26:36 +0100
REM compiler GCC version 9.3.0
REM options -cpp -mtune=generic -march=x86-64 -g -O0
REM seed -686927456 1343571367 -575450209 -1227486084 -1433727383 1920330260 -1723983145 1303405994 1374402682 -1014170080 -102787657 69342525 1219448735 152699068 -2093227415 1322103605 -350197942 150623122 -1511805891 -178196203 1511791881 1166608743 424369995 -636063944 773220054 1200504433 1796084226 -847211726 1747069033 1034731938 39897035 226114456 -2059238844
REM
CELL 1.54180   30.00000   30.00000   30.00000   90.00000   90.00000   90.00000
LATT -1
SFAC C  
C      1  0.4505770000000  0.3395020000000  0.3734190000000 1.0
C      1  0.4517340000000  0.4686430000000  0.7040090000000 1.0
C      1  0.4532140000000  0.6919760000000  0.4234700000000 1.0
C      1  0.5457200000000  0.3390920000000  0.3728220000000 1.0
C      1  0.5451930000000  0.4698610000000  0.7038360000000 1.0
C      1  0.5473880000000  0.6896090000000  0.4244540000000 1.0
C      1  0.5252600000000  0.5177490000000  0.3847580000000 1.0
C      1  0.5388020000000  0.4064570000000  0.5280340000000 1.0
C      1  0.5255320000000  0.5735240000000  0.5727850000000 1.0
C      1  0.4719060000000  0.5181810000000  0.3853470000000 1.0
C      1  0.4603030000000  0.4054420000000  0.5277880000000 1.0
C      1  0.4732030000000  0.5730560000000  0.5726000000000 1.0
C      1  0.5437250000000  0.5814450000000  0.4828270000000 1.0
C      1  0.5507170000000  0.4405550000000  0.4350440000000 1.0
C      1  0.5453640000000  0.4721050000000  0.5791970000000 1.0
C      1  0.4552040000000  0.5810300000000  0.4836410000000 1.0
C      1  0.4468990000000  0.4403660000000  0.4360150000000 1.0
C      1  0.4541180000000  0.4690590000000  0.5803300000000 1.0
C      1  0.5779820000000  0.4503390000000  0.4763050000000 1.0
C      1  0.5719490000000  0.5093090000000  0.5697380000000 1.0
C      1  0.5580710000000  0.5440920000000  0.4545870000000 1.0
C      1  0.4197750000000  0.4504260000000  0.4778610000000 1.0
C      1  0.4287310000000  0.5068950000000  0.5712100000000 1.0
C      1  0.4402310000000  0.5436160000000  0.4564080000000 1.0
C      1  0.5783430000000  0.4101670000000  0.5049800000000 1.0
C      1  0.5635830000000  0.5498740000000  0.5932480000000 1.0
C      1  0.5606330000000  0.5456390000000  0.4059600000000 1.0
C      1  0.4200710000000  0.4096620000000  0.5059270000000 1.0
C      1  0.4343630000000  0.5488180000000  0.5925470000000 1.0
C      1  0.4372570000000  0.5462070000000  0.4075910000000 1.0
C      1  0.4743280000000  0.3637980000000  0.3420060000000 1.0
C      1  0.4755740000000  0.4289170000000  0.7001970000000 1.0
C      1  0.4768070000000  0.7089020000000  0.4600240000000 1.0
C      1  0.5213680000000  0.3634180000000  0.3417300000000 1.0
C      1  0.5228270000000  0.4293130000000  0.7001850000000 1.0
C      1  0.5240710000000  0.7079670000000  0.4602060000000 1.0
C      1  0.4771520000000  0.4058890000000  0.4372770000000 1.0
C      1  0.4784280000000  0.4802770000000  0.6165850000000 1.0
C      1  0.4774380000000  0.6087540000000  0.4564470000000 1.0
C      1  0.5205170000000  0.4058970000000  0.4366420000000 1.0
C      1  0.5208840000000  0.4825310000000  0.6156590000000 1.0
C      1  0.5198610000000  0.6091740000000  0.4574430000000 1.0
C      1  0.4514390000000  0.3146450000000  0.4498010000000 1.0
C      1  0.4497900000000  0.5489200000000  0.6859580000000 1.0
C      1  0.4530260000000  0.6354680000000  0.3640190000000 1.0
C      1  0.5461230000000  0.3147390000000  0.4495410000000 1.0
C      1  0.5443370000000  0.5494880000000  0.6878690000000 1.0
C      1  0.5456680000000  0.6337200000000  0.3649080000000 1.0
C      1  0.4461180000000  0.5626260000000  0.3262000000000 1.0
C      1  0.4531660000000  0.3259700000000  0.5306990000000 1.0
C      1  0.4538190000000  0.6175480000000  0.6373490000000 1.0
C      1  0.5507650000000  0.5617380000000  0.3251070000000 1.0
C      1  0.5455200000000  0.3267320000000  0.5304130000000 1.0
C      1  0.5426000000000  0.6176420000000  0.6399970000000 1.0
C      1  0.6043990000000  0.3352130000000  0.5010500000000 1.0
C      1  0.6020560000000  0.5869720000000  0.6486950000000 1.0
C      1  0.6056900000000  0.5822100000000  0.3538700000000 1.0
C      1  0.3936570000000  0.3342450000000  0.5013840000000 1.0
C      1  0.3885300000000  0.5814760000000  0.6436970000000 1.0
C      1  0.3921530000000  0.5837360000000  0.3555980000000 1.0
C      1  0.3869130000000  0.3565070000000  0.4209540000000 1.0
C      1  0.3870900000000  0.5008290000000  0.6683440000000 1.0
C      1  0.3898510000000  0.6412030000000  0.4161540000000 1.0
C      1  0.6102470000000  0.3559310000000  0.4199480000000 1.0
C      1  0.6091800000000  0.5040460000000  0.6682760000000 1.0
C      1  0.6090800000000  0.6380390000000  0.4172090000000 1.0
C      1  0.5953120000000  0.6652650000000  0.4895010000000 1.0
C      1  0.5960160000000  0.4043060000000  0.3601550000000 1.0
C      1  0.5958300000000  0.4284970000000  0.6507050000000 1.0
C      1  0.4046450000000  0.6707610000000  0.4878550000000 1.0
C      1  0.4004540000000  0.4056200000000  0.3615460000000 1.0
C      1  0.4025140000000  0.4256620000000  0.6514940000000 1.0
C      1  0.4067100000000  0.3305660000000  0.4551760000000 1.0
C      1  0.4046930000000  0.5446520000000  0.6710120000000 1.0
C      1  0.4078610000000  0.6246340000000  0.3757660000000 1.0
C      1  0.5908880000000  0.3306850000000  0.4548130000000 1.0
C      1  0.5895830000000  0.5471600000000  0.6739170000000 1.0
C      1  0.5905950000000  0.6220840000000  0.3767440000000 1.0
C      1  0.6407640000000  0.3933050000000  0.4238340000000 1.0
C      1  0.6410790000000  0.4896190000000  0.6351160000000 1.0
C      1  0.6372430000000  0.6139640000000  0.4486650000000 1.0
C      1  0.3566760000000  0.3941020000000  0.4253950000000 1.0
C      1  0.3559970000000  0.4855450000000  0.6355740000000 1.0
C      1  0.3621260000000  0.6183290000000  0.4480070000000 1.0
C      1  0.6083270000000  0.3880800000000  0.5689710000000 1.0
C      1  0.6037670000000  0.6164130000000  0.5676010000000 1.0
C      1  0.6100560000000  0.4961800000000  0.3620730000000 1.0
C      1  0.3906700000000  0.3855270000000  0.5696310000000 1.0
C      1  0.3938110000000  0.6139650000000  0.5631120000000 1.0
C      1  0.3866930000000  0.4980410000000  0.3648920000000 1.0
C      1  0.3614740000000  0.4215270000000  0.5806920000000 1.0
C      1  0.3699500000000  0.6063030000000  0.5232370000000 1.0
C      1  0.3619810000000  0.4698900000000  0.3929850000000 1.0
C      1  0.6372300000000  0.4249340000000  0.5793480000000 1.0
C      1  0.6347390000000  0.6081530000000  0.5326950000000 1.0
C      1  0.6351500000000  0.4681380000000  0.3900470000000 1.0
C      1  0.6156080000000  0.3791330000000  0.5200290000000 1.0
C      1  0.6072550000000  0.5793680000000  0.5998420000000 1.0
C      1  0.6097790000000  0.5415700000000  0.3819260000000 1.0
C      1  0.3831050000000  0.3779500000000  0.5206550000000 1.0
C      1  0.3876240000000  0.5751460000000  0.5933310000000 1.0
C      1  0.3874140000000  0.5438890000000  0.3849150000000 1.0
C      1  0.6207340000000  0.4861100000000  0.4742720000000 1.0
C      1  0.6541330000000  0.4853690000000  0.5141390000000 1.0
C      1  0.5936650000000  0.5280250000000  0.4857040000000 1.0
C      1  0.3770600000000  0.4858730000000  0.4779790000000 1.0
C      1  0.3465830000000  0.4841130000000  0.5193260000000 1.0
C      1  0.4025220000000  0.5297270000000  0.4895080000000 1.0
C      1  0.5740290000000  0.4800630000000  0.3374830000000 1.0
C      1  0.5673090000000  0.3778610000000  0.5914070000000 1.0
C      1  0.5644190000000  0.6428540000000  0.5632600000000 1.0
C      1  0.4219480000000  0.4814440000000  0.3390180000000 1.0
C      1  0.4318780000000  0.3759760000000  0.5919990000000 1.0
C      1  0.4331070000000  0.6425540000000  0.5618360000000 1.0
C      1  0.4103800000000  0.6216340000000  0.6474670000000 1.0
C      1  0.4043530000000  0.5748610000000  0.3115780000000 1.0
C      1  0.4119490000000  0.3060540000000  0.5335170000000 1.0
C      1  0.5835070000000  0.6286090000000  0.6566380000000 1.0
C      1  0.5922020000000  0.5745430000000  0.3098710000000 1.0
C      1  0.5869730000000  0.3070940000000  0.5336240000000 1.0
C      1  0.4728440000000  0.4115140000000  0.3311270000000 1.0
C      1  0.4745560000000  0.3959990000000  0.6638120000000 1.0
C      1  0.4753960000000  0.6945930000000  0.5072300000000 1.0
C      1  0.5230180000000  0.4110370000000  0.3306730000000 1.0
C      1  0.5245540000000  0.3966330000000  0.6635660000000 1.0
C      1  0.5248770000000  0.6939430000000  0.5071990000000 1.0
C      1  0.4746080000000  0.3165490000000  0.4085190000000 1.0
C      1  0.4736090000000  0.5118310000000  0.7041990000000 1.0
C      1  0.4763380000000  0.6705550000000  0.3866540000000 1.0
C      1  0.5223320000000  0.3164140000000  0.4083800000000 1.0
C      1  0.5210910000000  0.5119750000000  0.7048980000000 1.0
C      1  0.5236390000000  0.6694020000000  0.3873180000000 1.0
C      1  0.6313550000000  0.4221440000000  0.3859740000000 1.0
C      1  0.6313100000000  0.4433560000000  0.6230270000000 1.0
C      1  0.6284470000000  0.6317210000000  0.4926680000000 1.0
C      1  0.3656520000000  0.4236920000000  0.3880380000000 1.0
C      1  0.3668660000000  0.4397060000000  0.6238320000000 1.0
C      1  0.3714680000000  0.6379110000000  0.4900940000000 1.0
C      1  0.3362130000000  0.4072250000000  0.4634320000000 1.0
C      1  0.3349220000000  0.5161580000000  0.6107750000000 1.0
C      1  0.3489670000000  0.5734100000000  0.4542400000000 1.0
C      1  0.6614650000000  0.4069520000000  0.4615600000000 1.0
C      1  0.6632030000000  0.5195520000000  0.6095220000000 1.0
C      1  0.6555410000000  0.5735950000000  0.4412500000000 1.0
C      1  0.4318670000000  0.4346810000000  0.3389010000000 1.0
C      1  0.4359130000000  0.3924760000000  0.6368030000000 1.0
C      1  0.4372080000000  0.6728720000000  0.5245840000000 1.0
C      1  0.5643850000000  0.4334230000000  0.3377800000000 1.0
C      1  0.5630710000000  0.3945260000000  0.6361300000000 1.0
C      1  0.5621950000000  0.6712820000000  0.5248660000000 1.0
C      1  0.5241730000000  0.4516090000000  0.5384390000000 1.0
C      1  0.5273900000000  0.5587090000000  0.5238700000000 1.0
C      1  0.5237520000000  0.4794420000000  0.4199120000000 1.0
C      1  0.4752840000000  0.4504070000000  0.5385520000000 1.0
C      1  0.4722880000000  0.5581920000000  0.5241220000000 1.0
C      1  0.4733920000000  0.4793460000000  0.4202410000000 1.0
C      1  0.5220560000000  0.3133520000000  0.4904700000000 1.0
C      1  0.5200100000000  0.5862090000000  0.6692750000000 1.0
C      1  0.5222590000000  0.5997760000000  0.3399810000000 1.0
C      1  0.4760940000000  0.3130780000000  0.4904770000000 1.0
C      1  0.4742760000000  0.5859980000000  0.6680450000000 1.0
C      1  0.4754410000000  0.6003700000000  0.3399880000000 1.0
C      1  0.5229400000000  0.5060860000000  0.4630030000000 1.0
C      1  0.5438570000000  0.4803900000000  0.5008880000000 1.0
C      1  0.5635000000000  0.5199390000000  0.5236130000000 1.0
C      1  0.4740120000000  0.5058270000000  0.4634320000000 1.0
C      1  0.4548130000000  0.4796510000000  0.5016950000000 1.0
C      1  0.4370430000000  0.5188730000000  0.5250640000000 1.0
C      1  0.6593860000000  0.5663210000000  0.5414750000000 1.0
C      1  0.6445840000000  0.4926640000000  0.4302010000000 1.0
C      1  0.6570710000000  0.4424440000000  0.5375820000000 1.0
C      1  0.3621630000000  0.5614930000000  0.5020260000000 1.0
C      1  0.3536860000000  0.4945210000000  0.4335420000000 1.0
C      1  0.3426030000000  0.4409630000000  0.5397410000000 1.0
C      1  0.6498730000000  0.5557730000000  0.5868250000000 1.0
C      1  0.6457420000000  0.5382610000000  0.4163690000000 1.0
C      1  0.6552350000000  0.4058540000000  0.5059170000000 1.0
C      1  0.3468720000000  0.5454290000000  0.5792750000000 1.0
C      1  0.3536100000000  0.5403000000000  0.4213600000000 1.0
C      1  0.3434440000000  0.4052100000000  0.5074190000000 1.0
C      1  0.4118520000000  0.4631300000000  0.6807730000000 1.0
C      1  0.4133210000000  0.6747080000000  0.4403490000000 1.0
C      1  0.4106220000000  0.3624150000000  0.3807550000000 1.0
C      1  0.5853100000000  0.4655850000000  0.6803670000000 1.0
C      1  0.5864690000000  0.6709110000000  0.4419960000000 1.0
C      1  0.5860080000000  0.3614870000000  0.3798620000000 1.0
C      1  0.4538280000000  0.5163400000000  0.3390570000000 1.0
C      1  0.4700390000000  0.3666520000000  0.5575930000000 1.0
C      1  0.4707700000000  0.6231540000000  0.5896540000000 1.0
C      1  0.5424320000000  0.5153240000000  0.3379580000000 1.0
C      1  0.5289960000000  0.3672840000000  0.5574500000000 1.0
C      1  0.5272000000000  0.6232360000000  0.5906880000000 1.0
C      1  0.3413430000000  0.5299910000000  0.5345520000000 1.0
C      1  0.6688720000000  0.5284750000000  0.5180990000000 1.0
END
