TITL C-79161-3900-109 -3.07716213380727 27000 -900.846256202994 0 0 133 (C1) n - 1
REM
REM in /rds/project/t2_vol4/rds-t2-cs072/BORA/CARBON/from-Arr/AIRSS/Generating-Clusters/GAP-ML-2020/Higher-Symm/SD-CG/HFTN-CG/Box-30A/DENE
REM
REM
REM
REM
REM
REM ./C.cell (13fc22856271072ba132eecf8fb47ea5)
REM AIRSS Version 0.9.1 bugfix July 2018 build 013d7b7c2542+ Fri, 06 Jul 2018 19:26:36 +0100
REM compiler GCC version 9.3.0
REM options -cpp -mtune=generic -march=x86-64 -g -O0
REM seed -2106203503 -592274543 1289759815 801723183 -363657255 -1535988686 2027596753 140221393 1348129743 1063487045 1526795077 1985985520 602402410 1166968739 1957771798 400998248 1371880112 508417671 -1791476818 1864224006 -577857888 -1184630976 1977350133 51624045 -1252270313 2041430444 461786070 149610190 1609847959 -1526009102 -410612165 -661968016 -1060297123
REM
CELL 1.54180   30.00000   30.00000   30.00000   90.00000   90.00000   90.00000
LATT -1
SFAC C  
C      1  0.3931570000000  0.3913520000000  0.5569330000000 1.0
C      1  0.3932030000000  0.5518360000000  0.4039350000000 1.0
C      1  0.5506270000000  0.3883190000000  0.4004260000000 1.0
C      1  0.6090900000000  0.6061570000000  0.5523770000000 1.0
C      1  0.3981460000000  0.6060560000000  0.4573560000000 1.0
C      1  0.6057140000000  0.3941670000000  0.4528980000000 1.0
C      1  0.5988580000000  0.4466700000000  0.3987920000000 1.0
C      1  0.3945750000000  0.4478410000000  0.6084890000000 1.0
C      1  0.6029650000000  0.5469010000000  0.6006730000000 1.0
C      1  0.4439240000000  0.6079980000000  0.3947140000000 1.0
C      1  0.5492410000000  0.5998180000000  0.6014960000000 1.0
C      1  0.4512430000000  0.3943210000000  0.6065600000000 1.0
C      1  0.3945860000000  0.3966140000000  0.4516830000000 1.0
C      1  0.3955760000000  0.5556380000000  0.6118650000000 1.0
C      1  0.5517410000000  0.3920660000000  0.6028070000000 1.0
C      1  0.6067080000000  0.6004710000000  0.4435180000000 1.0
C      1  0.4054060000000  0.6022880000000  0.5516640000000 1.0
C      1  0.6030530000000  0.3995790000000  0.5476410000000 1.0
C      1  0.6014990000000  0.4510820000000  0.6032910000000 1.0
C      1  0.3909560000000  0.4550000000000  0.4002060000000 1.0
C      1  0.6033280000000  0.5453840000000  0.3902470000000 1.0
C      1  0.4545150000000  0.6044520000000  0.5977320000000 1.0
C      1  0.5502130000000  0.6007400000000  0.3911150000000 1.0
C      1  0.4476690000000  0.4029590000000  0.3959910000000 1.0
C      1  0.6165530000000  0.5536020000000  0.4362130000000 1.0
C      1  0.5545980000000  0.4401280000000  0.6106130000000 1.0
C      1  0.4529480000000  0.6099270000000  0.5501170000000 1.0
C      1  0.3843470000000  0.4448680000000  0.4474550000000 1.0
C      1  0.6091210000000  0.4476710000000  0.5551490000000 1.0
C      1  0.3906690000000  0.5562620000000  0.5628300000000 1.0
C      1  0.4442210000000  0.5597970000000  0.6156390000000 1.0
C      1  0.5562080000000  0.5536630000000  0.3811860000000 1.0
C      1  0.4384560000000  0.4503240000000  0.3933890000000 1.0
C      1  0.5560770000000  0.3866570000000  0.5550930000000 1.0
C      1  0.4416550000000  0.3880640000000  0.4425570000000 1.0
C      1  0.5602100000000  0.6129390000000  0.4370710000000 1.0
C      1  0.6152020000000  0.5578730000000  0.5547440000000 1.0
C      1  0.5493620000000  0.4408390000000  0.4017490000000 1.0
C      1  0.4438030000000  0.6156840000000  0.4426730000000 1.0
C      1  0.3888630000000  0.4391110000000  0.5612840000000 1.0
C      1  0.6161170000000  0.4413680000000  0.4442930000000 1.0
C      1  0.3904470000000  0.5579020000000  0.4523120000000 1.0
C      1  0.4389720000000  0.5600220000000  0.3888770000000 1.0
C      1  0.5548930000000  0.5518360000000  0.6077840000000 1.0
C      1  0.4420110000000  0.4411520000000  0.6184280000000 1.0
C      1  0.5602240000000  0.3806470000000  0.4470060000000 1.0
C      1  0.4407860000000  0.3836200000000  0.5594600000000 1.0
C      1  0.5611030000000  0.6128350000000  0.5552860000000 1.0
C      1  0.3406680000000  0.5231860000000  0.6671350000000 1.0
C      1  0.5216380000000  0.6569670000000  0.3366470000000 1.0
C      1  0.6641900000000  0.3462450000000  0.5274090000000 1.0
C      1  0.6569420000000  0.4777680000000  0.6599250000000 1.0
C      1  0.3322390000000  0.4847640000000  0.3484650000000 1.0
C      1  0.6503090000000  0.5102110000000  0.3314370000000 1.0
C      1  0.4741760000000  0.3488770000000  0.3375490000000 1.0
C      1  0.5224220000000  0.3361780000000  0.6595010000000 1.0
C      1  0.4785330000000  0.6633800000000  0.6478090000000 1.0
C      1  0.3539270000000  0.6629400000000  0.5339630000000 1.0
C      1  0.6627010000000  0.6561030000000  0.4712210000000 1.0
C      1  0.3381410000000  0.3401710000000  0.4783140000000 1.0
C      1  0.3320450000000  0.5292390000000  0.3522650000000 1.0
C      1  0.5223840000000  0.6580090000000  0.6554600000000 1.0
C      1  0.6641650000000  0.3425900000000  0.4827150000000 1.0
C      1  0.6467200000000  0.4658900000000  0.3326090000000 1.0
C      1  0.3396280000000  0.4790050000000  0.6647440000000 1.0
C      1  0.6555590000000  0.5224210000000  0.6601970000000 1.0
C      1  0.4778840000000  0.3376950000000  0.6604160000000 1.0
C      1  0.5176950000000  0.3421250000000  0.3397030000000 1.0
C      1  0.4773480000000  0.6609400000000  0.3385120000000 1.0
C      1  0.3456290000000  0.6621980000000  0.4900670000000 1.0
C      1  0.6634050000000  0.6587670000000  0.5156450000000 1.0
C      1  0.3373390000000  0.3390960000000  0.5228360000000 1.0
C      1  0.4709100000000  0.5214550000000  0.6022200000000 1.0
C      1  0.5291770000000  0.6197790000000  0.4702240000000 1.0
C      1  0.5932080000000  0.4797530000000  0.5202440000000 1.0
C      1  0.5179680000000  0.4676380000000  0.5941630000000 1.0
C      1  0.4727460000000  0.4805860000000  0.4108770000000 1.0
C      1  0.5215630000000  0.5227280000000  0.3782750000000 1.0
C      1  0.4743660000000  0.3826850000000  0.4747950000000 1.0
C      1  0.5199700000000  0.4026850000000  0.5264760000000 1.0
C      1  0.4841580000000  0.5900830000000  0.5176130000000 1.0
C      1  0.4060850000000  0.5189310000000  0.5354600000000 1.0
C      1  0.6226630000000  0.5232820000000  0.4710520000000 1.0
C      1  0.3915340000000  0.4752090000000  0.4809800000000 1.0
C      1  0.4771130000000  0.5324250000000  0.4024300000000 1.0
C      1  0.5355770000000  0.5999560000000  0.5156500000000 1.0
C      1  0.6175840000000  0.4760590000000  0.4747980000000 1.0
C      1  0.5182730000000  0.4762160000000  0.3862150000000 1.0
C      1  0.4743420000000  0.4740860000000  0.6174860000000 1.0
C      1  0.5217410000000  0.5200630000000  0.5883640000000 1.0
C      1  0.4682450000000  0.3966630000000  0.5214140000000 1.0
C      1  0.5229200000000  0.3992530000000  0.4746710000000 1.0
C      1  0.4833690000000  0.5996260000000  0.4661910000000 1.0
C      1  0.4088550000000  0.5227850000000  0.4827880000000 1.0
C      1  0.6005090000000  0.5323340000000  0.5157550000000 1.0
C      1  0.4099710000000  0.4668970000000  0.5266370000000 1.0
C      1  0.4512240000000  0.3620840000000  0.6387600000000 1.0
C      1  0.3658180000000  0.6372930000000  0.4625760000000 1.0
C      1  0.6244630000000  0.4441100000000  0.3612670000000 1.0
C      1  0.5467060000000  0.6300110000000  0.6352130000000 1.0
C      1  0.4512730000000  0.6389030000000  0.3632970000000 1.0
C      1  0.5453940000000  0.3588580000000  0.3673700000000 1.0
C      1  0.6375620000000  0.3623720000000  0.4566380000000 1.0
C      1  0.3605060000000  0.3619730000000  0.5494850000000 1.0
C      1  0.6401330000000  0.6369900000000  0.5432940000000 1.0
C      1  0.3573170000000  0.5533140000000  0.3758590000000 1.0
C      1  0.6327620000000  0.5472770000000  0.6350040000000 1.0
C      1  0.3627830000000  0.4548530000000  0.6390320000000 1.0
C      1  0.4503230000000  0.3741810000000  0.3616150000000 1.0
C      1  0.3779390000000  0.6393310000000  0.5594370000000 1.0
C      1  0.6333300000000  0.4527150000000  0.6356920000000 1.0
C      1  0.5476940000000  0.6319730000000  0.3582060000000 1.0
C      1  0.4503800000000  0.6428850000000  0.6238320000000 1.0
C      1  0.5453840000000  0.3606720000000  0.6339500000000 1.0
C      1  0.6372620000000  0.3696150000000  0.5497360000000 1.0
C      1  0.3629590000000  0.3650380000000  0.4548940000000 1.0
C      1  0.6398040000000  0.6315130000000  0.4458370000000 1.0
C      1  0.3653660000000  0.5485750000000  0.6439070000000 1.0
C      1  0.6332660000000  0.5394060000000  0.3565300000000 1.0
C      1  0.3587120000000  0.4594490000000  0.3695520000000 1.0
C      1  0.4901650000000  0.5502200000000  0.4491550000000 1.0
C      1  0.5406380000000  0.4805690000000  0.5180970000000 1.0
C      1  0.4491910000000  0.5260420000000  0.5574040000000 1.0
C      1  0.5344730000000  0.4413210000000  0.4497470000000 1.0
C      1  0.5095300000000  0.4508030000000  0.5414830000000 1.0
C      1  0.4797900000000  0.5386260000000  0.5229630000000 1.0
C      1  0.4613830000000  0.5215050000000  0.4803580000000 1.0
C      1  0.5524860000000  0.5513810000000  0.5056160000000 1.0
C      1  0.4636760000000  0.4512230000000  0.5137460000000 1.0
C      1  0.5242000000000  0.5233760000000  0.5368330000000 1.0
C      1  0.4787420000000  0.4768660000000  0.4689570000000 1.0
C      1  0.5349990000000  0.5330750000000  0.4615500000000 1.0
C      1  0.5276100000000  0.4835760000000  0.4712680000000 1.0
END
