TITL C-79162-4024-60 6.20731524654408 27000 -642.285150726674 0 0 90 (C1) n - 1
REM
REM in /rds/project/t2_vol4/rds-t2-cs072/BORA/CARBON/from-Arr/AIRSS/Generating-Clusters/GAP-ML-2020/Higher-Symm/SD-CG/HFTN-CG/Box-30A/DENE
REM
REM
REM
REM
REM
REM ./C.cell (13fc22856271072ba132eecf8fb47ea5)
REM AIRSS Version 0.9.1 bugfix July 2018 build 013d7b7c2542+ Fri, 06 Jul 2018 19:26:36 +0100
REM compiler GCC version 9.3.0
REM options -cpp -mtune=generic -march=x86-64 -g -O0
REM seed 301290440 1109684424 -1421475864 1152173109 1890276740 748979224 73143959 1285621462 1181746494 1884369974 -1246188412 1362790564 1325488829 -79950854 -583252275 -619501816 930234416 1510881858 -295860833 1463874567 -1431944087 631217310 -1359133410 -1396794306 79801232 -653453508 173676174 1695823952 -1560485801 -1230303544 147698383 660346234 -143187400
REM
CELL 1.54180   30.00000   30.00000   30.00000   90.00000   90.00000   90.00000
LATT -1
SFAC C  
C      1  0.3969470000000  0.6261480000000  0.4632370000000 1.0
C      1  0.3779880000000  0.5836030000000  0.3918710000000 1.0
C      1  0.3924350000000  0.5032660000000  0.3710850000000 1.0
C      1  0.3769480000000  0.4217020000000  0.3833570000000 1.0
C      1  0.3914290000000  0.3730810000000  0.4501140000000 1.0
C      1  0.3737640000000  0.3723290000000  0.5307410000000 1.0
C      1  0.3897720000000  0.4276010000000  0.5919600000000 1.0
C      1  0.3729560000000  0.5007710000000  0.6296830000000 1.0
C      1  0.3913760000000  0.5792970000000  0.6092340000000 1.0
C      1  0.3787630000000  0.6302490000000  0.5446870000000 1.0
C      1  0.5160150000000  0.3625610000000  0.5370770000000 1.0
C      1  0.5081000000000  0.4154970000000  0.6078060000000 1.0
C      1  0.5152760000000  0.4984680000000  0.6395490000000 1.0
C      1  0.5128090000000  0.5810890000000  0.6187740000000 1.0
C      1  0.5216100000000  0.6324080000000  0.5517790000000 1.0
C      1  0.5154570000000  0.6317000000000  0.4667340000000 1.0
C      1  0.5221900000000  0.5849330000000  0.3913580000000 1.0
C      1  0.5181520000000  0.5044550000000  0.3610160000000 1.0
C      1  0.5197760000000  0.4202800000000  0.3880810000000 1.0
C      1  0.5130610000000  0.3649970000000  0.4520220000000 1.0
C      1  0.5846100000000  0.4660340000000  0.3903630000000 1.0
C      1  0.5840410000000  0.4034720000000  0.4309630000000 1.0
C      1  0.5833390000000  0.3771130000000  0.4984340000000 1.0
C      1  0.5792500000000  0.3993860000000  0.5703330000000 1.0
C      1  0.5786980000000  0.4576740000000  0.6150690000000 1.0
C      1  0.5826240000000  0.5328400000000  0.6189750000000 1.0
C      1  0.5859400000000  0.5929630000000  0.5789300000000 1.0
C      1  0.5861290000000  0.6169950000000  0.5081000000000 1.0
C      1  0.5851440000000  0.5960550000000  0.4387800000000 1.0
C      1  0.5865320000000  0.5383400000000  0.3926820000000 1.0
C      1  0.4519060000000  0.6361130000000  0.5250450000000 1.0
C      1  0.4500600000000  0.6009160000000  0.4091710000000 1.0
C      1  0.4503110000000  0.5600750000000  0.3837280000000 1.0
C      1  0.4495840000000  0.4430890000000  0.3758120000000 1.0
C      1  0.4493960000000  0.4024500000000  0.4006600000000 1.0
C      1  0.4467720000000  0.3604270000000  0.5105260000000 1.0
C      1  0.4455350000000  0.3798420000000  0.5539100000000 1.0
C      1  0.4447400000000  0.4766130000000  0.6290400000000 1.0
C      1  0.4461980000000  0.5237840000000  0.6347020000000 1.0
C      1  0.4504830000000  0.6220380000000  0.5708080000000 1.0
C      1  0.4005150000000  0.3941100000000  0.5641900000000 1.0
C      1  0.3998900000000  0.4629010000000  0.6175720000000 1.0
C      1  0.4011500000000  0.5400840000000  0.6282380000000 1.0
C      1  0.4043670000000  0.6117200000000  0.5810190000000 1.0
C      1  0.4072130000000  0.6343400000000  0.5062270000000 1.0
C      1  0.4057510000000  0.6106080000000  0.4220460000000 1.0
C      1  0.4031680000000  0.5470420000000  0.3747010000000 1.0
C      1  0.4043250000000  0.4597890000000  0.3720730000000 1.0
C      1  0.4034830000000  0.3923930000000  0.4114510000000 1.0
C      1  0.4017460000000  0.3628840000000  0.4926060000000 1.0
C      1  0.6100180000000  0.4357470000000  0.4568740000000 1.0
C      1  0.6091670000000  0.4189240000000  0.5017830000000 1.0
C      1  0.6069070000000  0.4329090000000  0.5479700000000 1.0
C      1  0.6065180000000  0.4714270000000  0.5772860000000 1.0
C      1  0.6100270000000  0.5197700000000  0.5801830000000 1.0
C      1  0.6129770000000  0.5599570000000  0.5537320000000 1.0
C      1  0.6131510000000  0.5761750000000  0.5078390000000 1.0
C      1  0.6117520000000  0.5621310000000  0.4619290000000 1.0
C      1  0.6107660000000  0.5239790000000  0.4326610000000 1.0
C      1  0.6097730000000  0.4762000000000  0.4308710000000 1.0
C      1  0.5638950000000  0.5029590000000  0.3710730000000 1.0
C      1  0.5651270000000  0.4237080000000  0.3934530000000 1.0
C      1  0.5606340000000  0.3729370000000  0.4571470000000 1.0
C      1  0.5616940000000  0.3686290000000  0.5390890000000 1.0
C      1  0.5553430000000  0.4174820000000  0.6065270000000 1.0
C      1  0.5608060000000  0.4954180000000  0.6370150000000 1.0
C      1  0.5606700000000  0.5742590000000  0.6136120000000 1.0
C      1  0.5673250000000  0.6249630000000  0.5500270000000 1.0
C      1  0.5625700000000  0.6240750000000  0.4684260000000 1.0
C      1  0.5671690000000  0.5807350000000  0.3983600000000 1.0
C      1  0.4897180000000  0.3952600000000  0.5654760000000 1.0
C      1  0.4886500000000  0.4610650000000  0.6164240000000 1.0
C      1  0.4909230000000  0.5401540000000  0.6345740000000 1.0
C      1  0.4945090000000  0.6139130000000  0.5876360000000 1.0
C      1  0.4966030000000  0.6385880000000  0.5101550000000 1.0
C      1  0.4940280000000  0.6027610000000  0.4315780000000 1.0
C      1  0.4971210000000  0.5476710000000  0.3731990000000 1.0
C      1  0.4938800000000  0.4629390000000  0.3797960000000 1.0
C      1  0.4935360000000  0.3894930000000  0.4140790000000 1.0
C      1  0.4918400000000  0.3564590000000  0.4951310000000 1.0
C      1  0.4947380000000  0.4767620000000  0.5668360000000 1.0
C      1  0.5070100000000  0.5175800000000  0.5579490000000 1.0
C      1  0.5176690000000  0.5388830000000  0.5232130000000 1.0
C      1  0.5103970000000  0.5286570000000  0.4810400000000 1.0
C      1  0.4896770000000  0.5568790000000  0.4515740000000 1.0
C      1  0.4736140000000  0.5307150000000  0.4171080000000 1.0
C      1  0.4834450000000  0.4850900000000  0.4240190000000 1.0
C      1  0.5048350000000  0.4841280000000  0.4656210000000 1.0
C      1  0.5067550000000  0.4515270000000  0.4952970000000 1.0
C      1  0.4970350000000  0.4425650000000  0.5371210000000 1.0
END
