TITL C-79160-3940-66 -0.772560106865195 27000 -1183.87454790954 0 0 166 (Cs) n - 1
REM
REM in /rds/project/t2_vol4/rds-t2-cs072/BORA/CARBON/from-Arr/AIRSS/Generating-Clusters/GAP-ML-2020/Higher-Symm/SD-CG/HFTN-CG/Box-30A/DENE
REM
REM
REM
REM
REM
REM ./C.cell (13fc22856271072ba132eecf8fb47ea5)
REM AIRSS Version 0.9.1 bugfix July 2018 build 013d7b7c2542+ Fri, 06 Jul 2018 19:26:36 +0100
REM compiler GCC version 9.3.0
REM options -cpp -mtune=generic -march=x86-64 -g -O0
REM seed 1263499295 504817616 1037413098 215516698 -1009848969 -916174610 1402602184 -1128356694 -2081672306 191767412 2123896521 -406726347 1332389329 -1061046964 -132109327 -1540863162 675534955 -1808651898 1116245353 -1726534150 677560259 -90762619 -1061511598 -738785855 1946097847 -375180068 1161661769 -1763480452 849205838 -70949096 -1561862604 -2108151841 707171801
REM
CELL 1.54180   30.00000   30.00000   30.00000   90.00000   90.00000   90.00000
LATT -1
SFAC C  
C      1  0.3469920000000  0.5258930000000  0.5217150000000 1.0
C      1  0.4308030000000  0.5256050000000  0.3596330000000 1.0
C      1  0.6123240000000  0.5257030000000  0.3898220000000 1.0
C      1  0.6392970000000  0.5255800000000  0.5736320000000 1.0
C      1  0.4728900000000  0.5256340000000  0.6556520000000 1.0
C      1  0.3469830000000  0.4721980000000  0.5217100000000 1.0
C      1  0.4307940000000  0.4724850000000  0.3596280000000 1.0
C      1  0.6123160000000  0.4723210000000  0.3898170000000 1.0
C      1  0.6392880000000  0.4724040000000  0.5736280000000 1.0
C      1  0.4728810000000  0.4723920000000  0.6556480000000 1.0
C      1  0.4926650000000  0.6698310000000  0.4615940000000 1.0
C      1  0.5350340000000  0.6689630000000  0.4808100000000 1.0
C      1  0.5298830000000  0.6688170000000  0.5270870000000 1.0
C      1  0.4842450000000  0.6694890000000  0.5364170000000 1.0
C      1  0.4612800000000  0.6700060000000  0.4959370000000 1.0
C      1  0.4926080000000  0.3282210000000  0.4615650000000 1.0
C      1  0.5349770000000  0.3290720000000  0.4807810000000 1.0
C      1  0.5298260000000  0.3292120000000  0.5270580000000 1.0
C      1  0.4841880000000  0.3285530000000  0.5363880000000 1.0
C      1  0.4612230000000  0.3280500000000  0.4959080000000 1.0
C      1  0.3787540000000  0.5882060000000  0.6129200000000 1.0
C      1  0.3549370000000  0.5888290000000  0.4191290000000 1.0
C      1  0.5314840000000  0.5879020000000  0.3373450000000 1.0
C      1  0.6644550000000  0.5876400000000  0.4793780000000 1.0
C      1  0.5699780000000  0.5877920000000  0.6506690000000 1.0
C      1  0.3787240000000  0.4098580000000  0.6129050000000 1.0
C      1  0.3549070000000  0.4092760000000  0.4191140000000 1.0
C      1  0.5314540000000  0.4101580000000  0.3373300000000 1.0
C      1  0.6644250000000  0.4103510000000  0.4793630000000 1.0
C      1  0.5699480000000  0.4102020000000  0.6506540000000 1.0
C      1  0.5687570000000  0.4551770000000  0.4602740000000 1.0
C      1  0.5586780000000  0.4551860000000  0.5533370000000 1.0
C      1  0.4679150000000  0.4542760000000  0.5732230000000 1.0
C      1  0.4256210000000  0.4533050000000  0.4953990000000 1.0
C      1  0.4817020000000  0.4532840000000  0.4239590000000 1.0
C      1  0.5687720000000  0.5428500000000  0.4602810000000 1.0
C      1  0.5586920000000  0.5428280000000  0.5533440000000 1.0
C      1  0.4679300000000  0.5437650000000  0.5732310000000 1.0
C      1  0.4256370000000  0.5447630000000  0.4954070000000 1.0
C      1  0.4817180000000  0.5447780000000  0.4239670000000 1.0
C      1  0.5626300000000  0.6350660000000  0.5939660000000 1.0
C      1  0.4305600000000  0.6359630000000  0.5890810000000 1.0
C      1  0.3945130000000  0.6365230000000  0.4612410000000 1.0
C      1  0.5037410000000  0.6355750000000  0.3876880000000 1.0
C      1  0.6084070000000  0.6350480000000  0.4691550000000 1.0
C      1  0.5625850000000  0.3629400000000  0.5939430000000 1.0
C      1  0.4305140000000  0.3620880000000  0.5890580000000 1.0
C      1  0.3944670000000  0.3615620000000  0.4612180000000 1.0
C      1  0.5036950000000  0.3624860000000  0.3876650000000 1.0
C      1  0.6083620000000  0.3629640000000  0.4691320000000 1.0
C      1  0.4151690000000  0.5899890000000  0.6453190000000 1.0
C      1  0.3364350000000  0.5900990000000  0.4641620000000 1.0
C      1  0.4829460000000  0.5894640000000  0.3332370000000 1.0
C      1  0.6533970000000  0.5895680000000  0.4318530000000 1.0
C      1  0.6116710000000  0.5895130000000  0.6253170000000 1.0
C      1  0.4151390000000  0.4080580000000  0.6453040000000 1.0
C      1  0.3364040000000  0.4080050000000  0.4641460000000 1.0
C      1  0.4829150000000  0.4086130000000  0.3332220000000 1.0
C      1  0.6533670000000  0.4084360000000  0.4318380000000 1.0
C      1  0.6116400000000  0.4084720000000  0.6253020000000 1.0
C      1  0.5214480000000  0.5222970000000  0.6774230000000 1.0
C      1  0.3401140000000  0.5222940000000  0.5740850000000 1.0
C      1  0.3783640000000  0.5225440000000  0.3689560000000 1.0
C      1  0.5867550000000  0.5224180000000  0.3435350000000 1.0
C      1  0.6744440000000  0.5222300000000  0.5334920000000 1.0
C      1  0.5214400000000  0.4757090000000  0.6774200000000 1.0
C      1  0.3401060000000  0.4757900000000  0.5740810000000 1.0
C      1  0.3783570000000  0.4755620000000  0.3689520000000 1.0
C      1  0.5867470000000  0.4756230000000  0.3435310000000 1.0
C      1  0.6744360000000  0.4757490000000  0.5334880000000 1.0
C      1  0.4807610000000  0.5843310000000  0.5417090000000 1.0
C      1  0.4563520000000  0.5852370000000  0.4947600000000 1.0
C      1  0.4923870000000  0.5846040000000  0.4561860000000 1.0
C      1  0.5395870000000  0.5833260000000  0.4793780000000 1.0
C      1  0.5321980000000  0.5834870000000  0.5318820000000 1.0
C      1  0.4807330000000  0.4137120000000  0.5416950000000 1.0
C      1  0.4563230000000  0.4128220000000  0.4947450000000 1.0
C      1  0.4923580000000  0.4134490000000  0.4561710000000 1.0
C      1  0.5395590000000  0.4147070000000  0.4793640000000 1.0
C      1  0.5321690000000  0.4145400000000  0.5318680000000 1.0
C      1  0.5768180000000  0.4465910000000  0.4138550000000 1.0
C      1  0.6060770000000  0.4459230000000  0.5478030000000 1.0
C      1  0.4867700000000  0.4457430000000  0.6162430000000 1.0
C      1  0.3874700000000  0.4442840000000  0.5226290000000 1.0
C      1  0.4413300000000  0.4451920000000  0.3997030000000 1.0
C      1  0.5768360000000  0.5514410000000  0.4138640000000 1.0
C      1  0.6060950000000  0.5520760000000  0.5478120000000 1.0
C      1  0.4867880000000  0.5522850000000  0.6162520000000 1.0
C      1  0.3874890000000  0.5537920000000  0.5226380000000 1.0
C      1  0.4413480000000  0.5528880000000  0.3997120000000 1.0
C      1  0.4929430000000  0.6008340000000  0.6331670000000 1.0
C      1  0.3723010000000  0.6018390000000  0.5340640000000 1.0
C      1  0.4271150000000  0.6015370000000  0.3884540000000 1.0
C      1  0.5825440000000  0.6001210000000  0.3970170000000 1.0
C      1  0.6235720000000  0.6002570000000  0.5472830000000 1.0
C      1  0.4929090000000  0.3971890000000  0.6331500000000 1.0
C      1  0.3722670000000  0.3962410000000  0.5340470000000 1.0
C      1  0.4270810000000  0.3965490000000  0.3884370000000 1.0
C      1  0.5825100000000  0.3979120000000  0.3969990000000 1.0
C      1  0.6235380000000  0.3977360000000  0.5472650000000 1.0
C      1  0.6032030000000  0.4762400000000  0.6524240000000 1.0
C      1  0.3877200000000  0.4762710000000  0.6444740000000 1.0
C      1  0.3289210000000  0.4763440000000  0.4376540000000 1.0
C      1  0.5061150000000  0.4763410000000  0.3169670000000 1.0
C      1  0.6766750000000  0.4762390000000  0.4478390000000 1.0
C      1  0.6032110000000  0.5217430000000  0.6524280000000 1.0
C      1  0.3877270000000  0.5217850000000  0.6444780000000 1.0
C      1  0.3289280000000  0.5217670000000  0.4376580000000 1.0
C      1  0.5061220000000  0.5217310000000  0.3169710000000 1.0
C      1  0.6766820000000  0.5217540000000  0.4478430000000 1.0
C      1  0.6294580000000  0.4516590000000  0.6200490000000 1.0
C      1  0.4258120000000  0.4513740000000  0.6605220000000 1.0
C      1  0.3267250000000  0.4517160000000  0.4791480000000 1.0
C      1  0.4656800000000  0.4519510000000  0.3273890000000 1.0
C      1  0.6537730000000  0.4515650000000  0.4130780000000 1.0
C      1  0.6294740000000  0.5463200000000  0.6200570000000 1.0
C      1  0.4258280000000  0.5466670000000  0.6605300000000 1.0
C      1  0.3267400000000  0.5463880000000  0.4791560000000 1.0
C      1  0.4656960000000  0.5461330000000  0.3273970000000 1.0
C      1  0.6537890000000  0.5464410000000  0.4130860000000 1.0
C      1  0.4889930000000  0.6341740000000  0.4319110000000 1.0
C      1  0.5618300000000  0.6329750000000  0.4684320000000 1.0
C      1  0.5496850000000  0.6329090000000  0.5492000000000 1.0
C      1  0.4692430000000  0.6342340000000  0.5628930000000 1.0
C      1  0.4316930000000  0.6344460000000  0.4897800000000 1.0
C      1  0.4889480000000  0.3638840000000  0.4318880000000 1.0
C      1  0.5617850000000  0.3650530000000  0.4684090000000 1.0
C      1  0.5496400000000  0.3651090000000  0.5491780000000 1.0
C      1  0.4691980000000  0.3638080000000  0.5628700000000 1.0
C      1  0.4316480000000  0.3636210000000  0.4897570000000 1.0
C      1  0.3513320000000  0.5453300000000  0.4012290000000 1.0
C      1  0.5473840000000  0.5447560000000  0.3282390000000 1.0
C      1  0.6774880000000  0.5442000000000  0.4910550000000 1.0
C      1  0.5626780000000  0.5444020000000  0.6668620000000 1.0
C      1  0.3618290000000  0.5444770000000  0.6104310000000 1.0
C      1  0.3513160000000  0.4527800000000  0.4012210000000 1.0
C      1  0.5473690000000  0.4533000000000  0.3282310000000 1.0
C      1  0.6774730000000  0.4537850000000  0.4910470000000 1.0
C      1  0.5626630000000  0.4535910000000  0.6668540000000 1.0
C      1  0.3618140000000  0.4535940000000  0.6104230000000 1.0
C      1  0.6368910000000  0.3817100000000  0.5043900000000 1.0
C      1  0.5377670000000  0.3814410000000  0.6321300000000 1.0
C      1  0.3866680000000  0.3808150000000  0.5767070000000 1.0
C      1  0.3917940000000  0.3801970000000  0.4156290000000 1.0
C      1  0.5459340000000  0.3816710000000  0.3715980000000 1.0
C      1  0.6369300000000  0.6162870000000  0.5044090000000 1.0
C      1  0.5378070000000  0.6165670000000  0.6321500000000 1.0
C      1  0.3867080000000  0.6172530000000  0.5767270000000 1.0
C      1  0.3918340000000  0.6178960000000  0.4156490000000 1.0
C      1  0.5459730000000  0.6163790000000  0.3716170000000 1.0
C      1  0.4650700000000  0.3789520000000  0.3644570000000 1.0
C      1  0.6177230000000  0.3792940000000  0.4249100000000 1.0
C      1  0.6074920000000  0.3792510000000  0.5892980000000 1.0
C      1  0.4481600000000  0.3785970000000  0.6306370000000 1.0
C      1  0.3603760000000  0.3779440000000  0.4908110000000 1.0
C      1  0.4651100000000  0.6191250000000  0.3644780000000 1.0
C      1  0.6177630000000  0.6187230000000  0.4249310000000 1.0
C      1  0.6075320000000  0.6187410000000  0.5893180000000 1.0
C      1  0.4482010000000  0.6194410000000  0.6306570000000 1.0
C      1  0.3604160000000  0.6201470000000  0.4908320000000 1.0
C      1  0.5756660000000  0.4990110000000  0.4752430000000 1.0
C      1  0.5463080000000  0.4990090000000  0.5623510000000 1.0
C      1  0.4557510000000  0.4990240000000  0.5589200000000 1.0
C      1  0.4494220000000  0.4990290000000  0.5066220000000 1.0
C      1  0.4928590000000  0.4990280000000  0.4367690000000 1.0
C      1  0.4937050000000  0.4990240000000  0.4847520000000 1.0
END
