TITL C-79160-3940-70 -4449.61345685668 27000 -508.739747527532 0 0 72 (D3h) n - 1
REM
REM in /rds/project/t2_vol4/rds-t2-cs072/BORA/CARBON/from-Arr/AIRSS/Generating-Clusters/GAP-ML-2020/Higher-Symm/SD-CG/HFTN-CG/Box-30A/DENE
REM
REM
REM
REM
REM
REM ./C.cell (13fc22856271072ba132eecf8fb47ea5)
REM AIRSS Version 0.9.1 bugfix July 2018 build 013d7b7c2542+ Fri, 06 Jul 2018 19:26:36 +0100
REM compiler GCC version 9.3.0
REM options -cpp -mtune=generic -march=x86-64 -g -O0
REM seed 129294951 -1331089954 -784874110 1302105533 -1016447510 397684097 396723600 1397870231 -1385363899 -808631380 2025962624 19377444 1248435104 301880204 896676551 -346456305 1804080677 -100974503 -377968612 1547712228 -844321223 -414693199 -934143668 -1297941944 -512310422 -340138044 1896972779 554762384 -257555329 1179156666 1774665890 936302633 1717076733
REM
CELL 1.54180   30.00000   30.00000   30.00000   90.00000   90.00000   90.00000
LATT -1
SFAC C  
C      1  0.5761250000000  0.5908490000000  0.5000760000000 1.0
C      1  0.6167120000000  0.5206630000000  0.5000010000000 1.0
C      1  0.6026880000000  0.4408080000000  0.4999250000000 1.0
C      1  0.5406160000000  0.3886490000000  0.4998840000000 1.0
C      1  0.4595380000000  0.3885930000000  0.4998980000000 1.0
C      1  0.3973940000000  0.4406660000000  0.4999590000000 1.0
C      1  0.3832600000000  0.5205010000000  0.5000400000000 1.0
C      1  0.4237500000000  0.5907440000000  0.5001020000000 1.0
C      1  0.4999180000000  0.6185270000000  0.5001160000000 1.0
C      1  0.3900580000000  0.4806070000000  0.4298670000000 1.0
C      1  0.4032670000000  0.5558210000000  0.4299380000000 1.0
C      1  0.4617330000000  0.6049490000000  0.4299770000000 1.0
C      1  0.5380980000000  0.6050020000000  0.4299640000000 1.0
C      1  0.5966320000000  0.5559550000000  0.4299060000000 1.0
C      1  0.6099450000000  0.4807590000000  0.4298300000000 1.0
C      1  0.5718080000000  0.4145980000000  0.4297720000000 1.0
C      1  0.5000650000000  0.3884290000000  0.4297580000000 1.0
C      1  0.4282870000000  0.4144980000000  0.4297960000000 1.0
C      1  0.4756100000000  0.5668160000000  0.5984430000000 1.0
C      1  0.5243300000000  0.5668490000000  0.5984350000000 1.0
C      1  0.5616740000000  0.5355580000000  0.5983980000000 1.0
C      1  0.5701680000000  0.4875840000000  0.5983490000000 1.0
C      1  0.5458370000000  0.4453740000000  0.5983120000000 1.0
C      1  0.5000660000000  0.4286790000000  0.5983030000000 1.0
C      1  0.4542720000000  0.4453110000000  0.5983270000000 1.0
C      1  0.4298830000000  0.4874870000000  0.5983730000000 1.0
C      1  0.4383100000000  0.5354730000000  0.5984190000000 1.0
C      1  0.4203170000000  0.5948660000000  0.4530350000000 1.0
C      1  0.4999060000000  0.6238960000000  0.4530500000000 1.0
C      1  0.5795360000000  0.5949760000000  0.4530090000000 1.0
C      1  0.6219460000000  0.5216370000000  0.4529300000000 1.0
C      1  0.6072920000000  0.4381950000000  0.4528500000000 1.0
C      1  0.5424320000000  0.3836940000000  0.4528080000000 1.0
C      1  0.4577130000000  0.3836360000000  0.4528220000000 1.0
C      1  0.3927770000000  0.4380470000000  0.4528870000000 1.0
C      1  0.3780080000000  0.5214680000000  0.4529710000000 1.0
C      1  0.5701340000000  0.4877770000000  0.4016030000000 1.0
C      1  0.5458030000000  0.4455670000000  0.4015660000000 1.0
C      1  0.5000330000000  0.4288720000000  0.4015570000000 1.0
C      1  0.4542390000000  0.4455040000000  0.4015810000000 1.0
C      1  0.4298500000000  0.4876800000000  0.4016260000000 1.0
C      1  0.4382770000000  0.5356660000000  0.4016720000000 1.0
C      1  0.4755770000000  0.5670090000000  0.4016960000000 1.0
C      1  0.5242970000000  0.5670420000000  0.4016880000000 1.0
C      1  0.5616410000000  0.5357510000000  0.4016510000000 1.0
C      1  0.4617560000000  0.6048120000000  0.5702420000000 1.0
C      1  0.5381220000000  0.6048640000000  0.5702290000000 1.0
C      1  0.5966560000000  0.5558180000000  0.5701710000000 1.0
C      1  0.6099690000000  0.4806210000000  0.5700950000000 1.0
C      1  0.5718310000000  0.4144600000000  0.5700370000000 1.0
C      1  0.5000890000000  0.3882920000000  0.5700230000000 1.0
C      1  0.4283110000000  0.4143610000000  0.5700610000000 1.0
C      1  0.3900820000000  0.4804690000000  0.5701320000000 1.0
C      1  0.4032910000000  0.5556840000000  0.5702030000000 1.0
C      1  0.6073080000000  0.4381030000000  0.5469920000000 1.0
C      1  0.5424480000000  0.3836020000000  0.5469500000000 1.0
C      1  0.4577290000000  0.3835440000000  0.5469640000000 1.0
C      1  0.3927930000000  0.4379550000000  0.5470280000000 1.0
C      1  0.3780240000000  0.5213760000000  0.5471120000000 1.0
C      1  0.4203330000000  0.5947740000000  0.5471770000000 1.0
C      1  0.4999220000000  0.6238040000000  0.5471920000000 1.0
C      1  0.5795520000000  0.5948840000000  0.5471510000000 1.0
C      1  0.6219620000000  0.5215440000000  0.5470710000000 1.0
C      1  0.5218600000000  0.4400680000000  0.4999370000000 1.0
C      1  0.4782230000000  0.4400380000000  0.4999450000000 1.0
C      1  0.4447750000000  0.4680650000000  0.4999780000000 1.0
C      1  0.4371670000000  0.5110340000000  0.5000220000000 1.0
C      1  0.4589600000000  0.5488410000000  0.5000550000000 1.0
C      1  0.4999560000000  0.5637940000000  0.5000630000000 1.0
C      1  0.5409720000000  0.5488980000000  0.5000410000000 1.0
C      1  0.5628180000000  0.5111210000000  0.5000000000000 1.0
C      1  0.5552700000000  0.4681410000000  0.4999600000000 1.0
END
