TITL C-79161-3900-110 1.24794571953071 27000 -1260.86772497323 0 0 174 (C1) n - 1
REM
REM in /rds/project/t2_vol4/rds-t2-cs072/BORA/CARBON/from-Arr/AIRSS/Generating-Clusters/GAP-ML-2020/Higher-Symm/SD-CG/HFTN-CG/Box-30A/DENE
REM
REM
REM
REM
REM
REM ./C.cell (13fc22856271072ba132eecf8fb47ea5)
REM AIRSS Version 0.9.1 bugfix July 2018 build 013d7b7c2542+ Fri, 06 Jul 2018 19:26:36 +0100
REM compiler GCC version 9.3.0
REM options -cpp -mtune=generic -march=x86-64 -g -O0
REM seed 1988289958 631145856 -185388469 -868436378 -1449420941 1507720069 -1482376974 1647830578 1431280391 -1680896389 809501137 -1975905107 1226184143 102728373 1733531612 1612380368 92798072 -1758000987 -425178636 -1112463823 -253086111 1971502574 -828877978 -44036857 -1990320935 670651695 1570850819 -747679487 -1568086398 2106441306 -1110659707 207671490 -1705544900
REM
CELL 1.54180   30.00000   30.00000   30.00000   90.00000   90.00000   90.00000
LATT -1
SFAC C  
C      1  0.4887800000000  0.3863280000000  0.6177720000000 1.0
C      1  0.4398760000000  0.3813400000000  0.6153610000000 1.0
C      1  0.3634690000000  0.3774220000000  0.5411720000000 1.0
C      1  0.3558460000000  0.3778980000000  0.4936030000000 1.0
C      1  0.4030380000000  0.3774180000000  0.3950270000000 1.0
C      1  0.4464200000000  0.3775290000000  0.3739290000000 1.0
C      1  0.5308400000000  0.4078940000000  0.3548430000000 1.0
C      1  0.6089770000000  0.3813920000000  0.4224000000000 1.0
C      1  0.6311790000000  0.3793390000000  0.4649730000000 1.0
C      1  0.6111680000000  0.3816090000000  0.5700890000000 1.0
C      1  0.5853490000000  0.3789650000000  0.6107450000000 1.0
C      1  0.5658810000000  0.5110270000000  0.5198930000000 1.0
C      1  0.5478350000000  0.4909020000000  0.5585560000000 1.0
C      1  0.5106730000000  0.5155750000000  0.5707960000000 1.0
C      1  0.4720120000000  0.4916660000000  0.5606040000000 1.0
C      1  0.4427530000000  0.5161950000000  0.5356550000000 1.0
C      1  0.4302110000000  0.4908830000000  0.4984930000000 1.0
C      1  0.4434860000000  0.5141440000000  0.4605920000000 1.0
C      1  0.4802860000000  0.4923040000000  0.4422730000000 1.0
C      1  0.5181840000000  0.5179560000000  0.4407390000000 1.0
C      1  0.5552400000000  0.4898840000000  0.4455900000000 1.0
C      1  0.5649610000000  0.4728890000000  0.4891470000000 1.0
C      1  0.6270400000000  0.6514160000000  0.4870770000000 1.0
C      1  0.6149170000000  0.6521690000000  0.5576980000000 1.0
C      1  0.5656210000000  0.6524680000000  0.6117470000000 1.0
C      1  0.4959510000000  0.6511470000000  0.6295070000000 1.0
C      1  0.4267280000000  0.6503690000000  0.6069750000000 1.0
C      1  0.3800120000000  0.6500660000000  0.5509700000000 1.0
C      1  0.3708690000000  0.6499670000000  0.4788890000000 1.0
C      1  0.4032350000000  0.6492330000000  0.4135000000000 1.0
C      1  0.4662210000000  0.6480290000000  0.3765080000000 1.0
C      1  0.5387050000000  0.6500570000000  0.3783840000000 1.0
C      1  0.5997610000000  0.6520590000000  0.4193850000000 1.0
C      1  0.6449760000000  0.5155510000000  0.5727130000000 1.0
C      1  0.5824900000000  0.5160390000000  0.6388980000000 1.0
C      1  0.4968510000000  0.5147210000000  0.6588700000000 1.0
C      1  0.4120880000000  0.5140900000000  0.6294120000000 1.0
C      1  0.3557130000000  0.5144720000000  0.5627160000000 1.0
C      1  0.3444800000000  0.5143390000000  0.4748090000000 1.0
C      1  0.3819820000000  0.5138740000000  0.3966010000000 1.0
C      1  0.4591110000000  0.5119570000000  0.3523230000000 1.0
C      1  0.5484510000000  0.5098640000000  0.3525350000000 1.0
C      1  0.6257110000000  0.5158350000000  0.3991930000000 1.0
C      1  0.6595600000000  0.5150050000000  0.4846990000000 1.0
C      1  0.5034240000000  0.6272800000000  0.3579360000000 1.0
C      1  0.5809580000000  0.6310950000000  0.3821270000000 1.0
C      1  0.6325620000000  0.6319760000000  0.4452460000000 1.0
C      1  0.6412380000000  0.6304280000000  0.5261090000000 1.0
C      1  0.6049330000000  0.6319190000000  0.5981630000000 1.0
C      1  0.5361440000000  0.6307690000000  0.6404230000000 1.0
C      1  0.4555080000000  0.6291330000000  0.6367070000000 1.0
C      1  0.3881140000000  0.6293730000000  0.5916250000000 1.0
C      1  0.3543190000000  0.6299980000000  0.5176650000000 1.0
C      1  0.3683750000000  0.6292720000000  0.4372960000000 1.0
C      1  0.4237910000000  0.6283390000000  0.3771060000000 1.0
C      1  0.4707550000000  0.5810340000000  0.4328010000000 1.0
C      1  0.5141240000000  0.5676790000000  0.4462430000000 1.0
C      1  0.5578010000000  0.5819330000000  0.4323480000000 1.0
C      1  0.5871770000000  0.5754790000000  0.4669590000000 1.0
C      1  0.5640220000000  0.5617330000000  0.5098590000000 1.0
C      1  0.5606550000000  0.5776730000000  0.5568680000000 1.0
C      1  0.5160670000000  0.5639190000000  0.5697320000000 1.0
C      1  0.4827880000000  0.5891750000000  0.5464370000000 1.0
C      1  0.4427380000000  0.5655230000000  0.5357150000000 1.0
C      1  0.4220060000000  0.5810180000000  0.4980370000000 1.0
C      1  0.4398590000000  0.5625280000000  0.4600180000000 1.0
C      1  0.6540670000000  0.5845390000000  0.5289320000000 1.0
C      1  0.6010560000000  0.5825700000000  0.5942720000000 1.0
C      1  0.5384590000000  0.5845810000000  0.6516510000000 1.0
C      1  0.4526880000000  0.5828650000000  0.6460330000000 1.0
C      1  0.3795610000000  0.5833000000000  0.5985770000000 1.0
C      1  0.3440570000000  0.5834360000000  0.5191310000000 1.0
C      1  0.3569280000000  0.5835300000000  0.4320340000000 1.0
C      1  0.4172700000000  0.5820390000000  0.3687210000000 1.0
C      1  0.5029610000000  0.5804080000000  0.3489000000000 1.0
C      1  0.5795660000000  0.5815540000000  0.3852940000000 1.0
C      1  0.6340400000000  0.5827010000000  0.4476060000000 1.0
C      1  0.5857540000000  0.4187300000000  0.5430540000000 1.0
C      1  0.5421320000000  0.4397610000000  0.5552520000000 1.0
C      1  0.5043640000000  0.4210700000000  0.5807100000000 1.0
C      1  0.4683560000000  0.4431090000000  0.5612060000000 1.0
C      1  0.4532140000000  0.4156200000000  0.5253830000000 1.0
C      1  0.4313620000000  0.4423140000000  0.4940370000000 1.0
C      1  0.4403690000000  0.4256440000000  0.4522260000000 1.0
C      1  0.4788240000000  0.4451530000000  0.4374340000000 1.0
C      1  0.5187400000000  0.4166570000000  0.4366880000000 1.0
C      1  0.5526380000000  0.4480710000000  0.4267460000000 1.0
C      1  0.5972490000000  0.4365550000000  0.5004410000000 1.0
C      1  0.4758350000000  0.3189790000000  0.4238950000000 1.0
C      1  0.5126560000000  0.3054340000000  0.4510140000000 1.0
C      1  0.5574390000000  0.3213170000000  0.4461080000000 1.0
C      1  0.5826450000000  0.3168900000000  0.4863640000000 1.0
C      1  0.5777740000000  0.3122410000000  0.5357020000000 1.0
C      1  0.5486180000000  0.3109290000000  0.5718440000000 1.0
C      1  0.5005290000000  0.3111090000000  0.5812930000000 1.0
C      1  0.4571590000000  0.3172520000000  0.5612660000000 1.0
C      1  0.4160580000000  0.3104050000000  0.5311100000000 1.0
C      1  0.4105120000000  0.3130070000000  0.4854550000000 1.0
C      1  0.4322930000000  0.3150710000000  0.4414280000000 1.0
C      1  0.4127520000000  0.4462500000000  0.3677220000000 1.0
C      1  0.4951860000000  0.4389470000000  0.3458210000000 1.0
C      1  0.6033800000000  0.4453790000000  0.3660040000000 1.0
C      1  0.6462480000000  0.4485760000000  0.4383490000000 1.0
C      1  0.6541590000000  0.4461340000000  0.5279460000000 1.0
C      1  0.6176370000000  0.4486730000000  0.6099470000000 1.0
C      1  0.5417770000000  0.4449040000000  0.6510180000000 1.0
C      1  0.4536140000000  0.4476070000000  0.6480510000000 1.0
C      1  0.3815890000000  0.4430380000000  0.5972740000000 1.0
C      1  0.3438320000000  0.4473400000000  0.5195830000000 1.0
C      1  0.3573320000000  0.4424710000000  0.4340140000000 1.0
C      1  0.4126360000000  0.6749830000000  0.4857040000000 1.0
C      1  0.4345100000000  0.6744410000000  0.4420590000000 1.0
C      1  0.4766190000000  0.6745850000000  0.4166490000000 1.0
C      1  0.5253260000000  0.6755150000000  0.4181910000000 1.0
C      1  0.5663930000000  0.6764560000000  0.4459060000000 1.0
C      1  0.5851820000000  0.6765670000000  0.4914660000000 1.0
C      1  0.5772870000000  0.6778090000000  0.5394500000000 1.0
C      1  0.5440560000000  0.6782820000000  0.5760930000000 1.0
C      1  0.4965720000000  0.6777510000000  0.5881620000000 1.0
C      1  0.4498080000000  0.6768210000000  0.5727710000000 1.0
C      1  0.4184260000000  0.6758650000000  0.5345980000000 1.0
C      1  0.3439530000000  0.5612410000000  0.4744020000000 1.0
C      1  0.3806330000000  0.5609560000000  0.3948770000000 1.0
C      1  0.4583470000000  0.5590110000000  0.3528210000000 1.0
C      1  0.5449680000000  0.5571470000000  0.3549270000000 1.0
C      1  0.6220150000000  0.5613970000000  0.4027770000000 1.0
C      1  0.6588230000000  0.5618580000000  0.4863400000000 1.0
C      1  0.6407310000000  0.5618750000000  0.5695400000000 1.0
C      1  0.5781510000000  0.5620170000000  0.6353650000000 1.0
C      1  0.4953410000000  0.5616590000000  0.6581440000000 1.0
C      1  0.4123190000000  0.5609820000000  0.6281970000000 1.0
C      1  0.3545520000000  0.5612980000000  0.5625100000000 1.0
C      1  0.3599920000000  0.4220100000000  0.5583160000000 1.0
C      1  0.3462310000000  0.4220350000000  0.4776970000000 1.0
C      1  0.3839720000000  0.4216100000000  0.3975200000000 1.0
C      1  0.4518070000000  0.4203940000000  0.3545880000000 1.0
C      1  0.5727960000000  0.4190670000000  0.3455560000000 1.0
C      1  0.6245140000000  0.4233630000000  0.4041000000000 1.0
C      1  0.6413620000000  0.4250820000000  0.4813890000000 1.0
C      1  0.6317990000000  0.4264730000000  0.5683680000000 1.0
C      1  0.5815580000000  0.4228190000000  0.6303120000000 1.0
C      1  0.4972940000000  0.4256340000000  0.6457670000000 1.0
C      1  0.4185560000000  0.4225590000000  0.6244500000000 1.0
C      1  0.6588830000000  0.4925280000000  0.5292950000000 1.0
C      1  0.6194860000000  0.4951640000000  0.6116120000000 1.0
C      1  0.5415190000000  0.4919570000000  0.6544940000000 1.0
C      1  0.4522440000000  0.4937180000000  0.6510980000000 1.0
C      1  0.3802060000000  0.4905950000000  0.5991230000000 1.0
C      1  0.3431730000000  0.4935810000000  0.5197240000000 1.0
C      1  0.3581240000000  0.4900530000000  0.4338000000000 1.0
C      1  0.4162690000000  0.4923600000000  0.3684550000000 1.0
C      1  0.5025800000000  0.4866860000000  0.3466290000000 1.0
C      1  0.5944480000000  0.4924030000000  0.3686760000000 1.0
C      1  0.6481310000000  0.4946420000000  0.4396860000000 1.0
C      1  0.5570140000000  0.3420680000000  0.6093090000000 1.0
C      1  0.5099230000000  0.3432240000000  0.6172760000000 1.0
C      1  0.4257490000000  0.3454810000000  0.5904370000000 1.0
C      1  0.3905830000000  0.3424420000000  0.5577980000000 1.0
C      1  0.3762020000000  0.3440050000000  0.4692230000000 1.0
C      1  0.3967430000000  0.3439000000000  0.4257380000000 1.0
C      1  0.4832610000000  0.3530910000000  0.3919370000000 1.0
C      1  0.5257570000000  0.3782430000000  0.3955980000000 1.0
C      1  0.5685430000000  0.3557700000000  0.4142200000000 1.0
C      1  0.6208790000000  0.3453090000000  0.4938250000000 1.0
C      1  0.6150950000000  0.3434160000000  0.5416630000000 1.0
C      1  0.4853850000000  0.3315670000000  0.5217930000000 1.0
C      1  0.4825650000000  0.3803800000000  0.5077720000000 1.0
C      1  0.5194520000000  0.4012300000000  0.4857630000000 1.0
C      1  0.5006080000000  0.6197460000000  0.5142570000000 1.0
C      1  0.5288680000000  0.4425240000000  0.5078270000000 1.0
C      1  0.4989020000000  0.7070290000000  0.5007350000000 1.0
C      1  0.5217830000000  0.5840200000000  0.4921760000000 1.0
C      1  0.4997070000000  0.2959250000000  0.4937560000000 1.0
C      1  0.4934110000000  0.6654120000000  0.5046170000000 1.0
END
