TITL C-79163-3824-102 130.37020954763 27000 -781.046240137812 0 0 112 (C1) n - 1
REM
REM in /rds/project/t2_vol4/rds-t2-cs072/BORA/CARBON/from-Arr/AIRSS/Generating-Clusters/GAP-ML-2020/Higher-Symm/SD-CG/HFTN-CG/Box-30A/DENE
REM
REM
REM
REM
REM
REM ./C.cell (13fc22856271072ba132eecf8fb47ea5)
REM AIRSS Version 0.9.1 bugfix July 2018 build 013d7b7c2542+ Fri, 06 Jul 2018 19:26:36 +0100
REM compiler GCC version 9.3.0
REM options -cpp -mtune=generic -march=x86-64 -g -O0
REM seed 1691358250 -768273013 551094549 -214282225 -478123078 -1453840118 -2024507098 1863421486 -851794526 2034242957 -1941122540 -134497350 -1824451766 -1747552636 1608071679 139559786 -1830753979 1063900042 -1054751174 1014052153 369400539 895891810 -1204929767 496970580 -1275832297 624020283 -1177910213 419762943 1324093969 -1037366702 -46608407 -1016412254 1300040845
REM
CELL 1.54180   30.00000   30.00000   30.00000   90.00000   90.00000   90.00000
LATT -1
SFAC C  
C      1  0.4489120000000  0.5522110000000  0.5005360000000 1.0
C      1  0.5373250000000  0.4745130000000  0.5175160000000 1.0
C      1  0.5665420000000  0.6265100000000  0.5851510000000 1.0
C      1  0.4784830000000  0.3432130000000  0.4762420000000 1.0
C      1  0.4895390000000  0.5440440000000  0.4819030000000 1.0
C      1  0.6482160000000  0.5376340000000  0.4239900000000 1.0
C      1  0.6302680000000  0.6121960000000  0.4603790000000 1.0
C      1  0.4151410000000  0.4999010000000  0.3477630000000 1.0
C      1  0.5372140000000  0.3911720000000  0.5100480000000 1.0
C      1  0.5102550000000  0.4329880000000  0.6227400000000 1.0
C      1  0.3798580000000  0.5911250000000  0.4663180000000 1.0
C      1  0.5461820000000  0.3737830000000  0.5881400000000 1.0
C      1  0.5868140000000  0.3966560000000  0.5082110000000 1.0
C      1  0.4172020000000  0.6139300000000  0.4453550000000 1.0
C      1  0.4161660000000  0.5033850000000  0.5589980000000 1.0
C      1  0.5497400000000  0.4458720000000  0.3619850000000 1.0
C      1  0.4506310000000  0.5389490000000  0.5493380000000 1.0
C      1  0.4195570000000  0.5293230000000  0.4666170000000 1.0
C      1  0.4430570000000  0.3751970000000  0.4892660000000 1.0
C      1  0.6302440000000  0.5107060000000  0.5699740000000 1.0
C      1  0.4563360000000  0.4597710000000  0.4554100000000 1.0
C      1  0.5161970000000  0.6473150000000  0.5119150000000 1.0
C      1  0.5079690000000  0.3465810000000  0.5154000000000 1.0
C      1  0.4811220000000  0.3967250000000  0.6094160000000 1.0
C      1  0.5469520000000  0.4931020000000  0.3642250000000 1.0
C      1  0.6415530000000  0.5676440000000  0.4577450000000 1.0
C      1  0.5412250000000  0.3725080000000  0.3774420000000 1.0
C      1  0.3934990000000  0.3869270000000  0.5380220000000 1.0
C      1  0.5305650000000  0.5120170000000  0.6434140000000 1.0
C      1  0.5135110000000  0.6289500000000  0.4335560000000 1.0
C      1  0.4453600000000  0.6256440000000  0.5533200000000 1.0
C      1  0.4381210000000  0.4396010000000  0.4045710000000 1.0
C      1  0.5643150000000  0.6405140000000  0.5072040000000 1.0
C      1  0.4424040000000  0.6417250000000  0.4746510000000 1.0
C      1  0.6040690000000  0.4830650000000  0.5992980000000 1.0
C      1  0.5228930000000  0.5946090000000  0.6288280000000 1.0
C      1  0.6195060000000  0.5050270000000  0.4063290000000 1.0
C      1  0.5218390000000  0.4331920000000  0.5377430000000 1.0
C      1  0.5719150000000  0.4052010000000  0.3770700000000 1.0
C      1  0.5473590000000  0.4229850000000  0.5887400000000 1.0
C      1  0.3663360000000  0.5189200000000  0.4151560000000 1.0
C      1  0.5653620000000  0.5327560000000  0.4672710000000 1.0
C      1  0.4984890000000  0.4760870000000  0.6389240000000 1.0
C      1  0.5187590000000  0.6290020000000  0.5917280000000 1.0
C      1  0.6053320000000  0.4059760000000  0.4656340000000 1.0
C      1  0.4917000000000  0.6381480000000  0.5539790000000 1.0
C      1  0.3685380000000  0.4681520000000  0.4742470000000 1.0
C      1  0.5922330000000  0.4410420000000  0.5816480000000 1.0
C      1  0.4991050000000  0.3695590000000  0.3956370000000 1.0
C      1  0.4248540000000  0.5835020000000  0.5737820000000 1.0
C      1  0.5762810000000  0.5212650000000  0.3879730000000 1.0
C      1  0.4388720000000  0.3664620000000  0.5454180000000 1.0
C      1  0.3668230000000  0.4746000000000  0.4256450000000 1.0
C      1  0.3710900000000  0.5435830000000  0.4590950000000 1.0
C      1  0.5028660000000  0.3626220000000  0.4412290000000 1.0
C      1  0.4581330000000  0.5432070000000  0.6393290000000 1.0
C      1  0.5123990000000  0.5613810000000  0.4031740000000 1.0
C      1  0.4869890000000  0.6002100000000  0.4072530000000 1.0
C      1  0.3898430000000  0.4329380000000  0.4181370000000 1.0
C      1  0.5378320000000  0.4835430000000  0.4684560000000 1.0
C      1  0.6349680000000  0.4439620000000  0.4669980000000 1.0
C      1  0.3938740000000  0.3850820000000  0.4898250000000 1.0
C      1  0.6343180000000  0.5043680000000  0.5233120000000 1.0
C      1  0.5696610000000  0.5943110000000  0.6206460000000 1.0
C      1  0.3856550000000  0.4476120000000  0.5994740000000 1.0
C      1  0.4417320000000  0.5899120000000  0.4147480000000 1.0
C      1  0.6213440000000  0.4601000000000  0.4234060000000 1.0
C      1  0.4297590000000  0.5718060000000  0.6189020000000 1.0
C      1  0.3830110000000  0.6045150000000  0.5109190000000 1.0
C      1  0.4939010000000  0.4884140000000  0.3773930000000 1.0
C      1  0.5771510000000  0.5126630000000  0.6286980000000 1.0
C      1  0.6087840000000  0.4275790000000  0.5388890000000 1.0
C      1  0.4204390000000  0.6351260000000  0.5159370000000 1.0
C      1  0.4923750000000  0.5253760000000  0.5679890000000 1.0
C      1  0.5850940000000  0.4245870000000  0.4228340000000 1.0
C      1  0.5471770000000  0.5550220000000  0.5386600000000 1.0
C      1  0.5579700000000  0.5587970000000  0.4182640000000 1.0
C      1  0.4033640000000  0.5230070000000  0.3856750000000 1.0
C      1  0.4565000000000  0.4038600000000  0.5693810000000 1.0
C      1  0.5570220000000  0.6106400000000  0.4329090000000 1.0
C      1  0.4148700000000  0.4835870000000  0.6059020000000 1.0
C      1  0.4904580000000  0.6459140000000  0.4722890000000 1.0
C      1  0.5302030000000  0.5125590000000  0.5459350000000 1.0
C      1  0.5868190000000  0.6269090000000  0.4654240000000 1.0
C      1  0.6136790000000  0.5433170000000  0.4976620000000 1.0
C      1  0.4278070000000  0.4644550000000  0.5301440000000 1.0
C      1  0.4709520000000  0.4362750000000  0.5323300000000 1.0
C      1  0.6348740000000  0.4586600000000  0.5122010000000 1.0
C      1  0.5940320000000  0.5562060000000  0.6180580000000 1.0
C      1  0.4197300000000  0.4802000000000  0.4815550000000 1.0
C      1  0.4817390000000  0.3413380000000  0.5545110000000 1.0
C      1  0.5158290000000  0.4040170000000  0.4653650000000 1.0
C      1  0.3831260000000  0.5736180000000  0.5450440000000 1.0
C      1  0.5393630000000  0.4397620000000  0.4384060000000 1.0
C      1  0.4466640000000  0.4733800000000  0.3666030000000 1.0
C      1  0.4924280000000  0.4991020000000  0.4566130000000 1.0
C      1  0.4709760000000  0.4205450000000  0.4824310000000 1.0
C      1  0.3562240000000  0.5137820000000  0.4964690000000 1.0
C      1  0.6013810000000  0.5739880000000  0.5388450000000 1.0
C      1  0.3764930000000  0.4175160000000  0.4623600000000 1.0
C      1  0.3750900000000  0.5272170000000  0.5378870000000 1.0
C      1  0.3893170000000  0.4307700000000  0.5567700000000 1.0
C      1  0.4853060000000  0.5224180000000  0.4109940000000 1.0
C      1  0.5039950000000  0.3581990000000  0.5939240000000 1.0
C      1  0.5870510000000  0.6212530000000  0.5440450000000 1.0
C      1  0.4376560000000  0.5409060000000  0.4173870000000 1.0
C      1  0.5051510000000  0.5532610000000  0.6448070000000 1.0
C      1  0.4536920000000  0.4960560000000  0.6335180000000 1.0
C      1  0.5109890000000  0.4443870000000  0.3944320000000 1.0
C      1  0.4761180000000  0.4116960000000  0.3912520000000 1.0
C      1  0.5331040000000  0.5573780000000  0.4947070000000 1.0
C      1  0.6208940000000  0.5552240000000  0.5787880000000 1.0
END
