TITL C-79163-3824-56 0.496000519455154 27000 -228.06603833878 0 0 35 (Cs) n - 1
REM
REM in /rds/project/t2_vol4/rds-t2-cs072/BORA/CARBON/from-Arr/AIRSS/Generating-Clusters/GAP-ML-2020/Higher-Symm/SD-CG/HFTN-CG/Box-30A/DENE
REM
REM
REM
REM
REM
REM ./C.cell (13fc22856271072ba132eecf8fb47ea5)
REM AIRSS Version 0.9.1 bugfix July 2018 build 013d7b7c2542+ Fri, 06 Jul 2018 19:26:36 +0100
REM compiler GCC version 9.3.0
REM options -cpp -mtune=generic -march=x86-64 -g -O0
REM seed 1507838548 474804248 1258824328 -1824101194 -812459654 283143669 1655096632 946346619 462480817 1872484647 -316351167 -1404389639 28232137 153148594 -1860896558 -1914604246 -679793285 409591424 505910968 -1298320717 1936489281 -570920986 -2114904594 -1365993894 8556866 2044475670 1794110988 382057703 1009279127 746616446 -901418416 1139099545 -1744153987
REM
CELL 1.54180   30.00000   30.00000   30.00000   90.00000   90.00000   90.00000
LATT -1
SFAC C  
C      1  0.4768740000000  0.4625000000000  0.5551630000000 1.0
C      1  0.4998790000000  0.5466660000000  0.5551550000000 1.0
C      1  0.4818450000000  0.4622800000000  0.4411890000000 1.0
C      1  0.5042650000000  0.5443060000000  0.4411810000000 1.0
C      1  0.5140040000000  0.4325400000000  0.4613670000000 1.0
C      1  0.4869070000000  0.5869990000000  0.4583180000000 1.0
C      1  0.5113670000000  0.4309880000000  0.5394460000000 1.0
C      1  0.4836460000000  0.5880530000000  0.5354680000000 1.0
C      1  0.5470810000000  0.5535580000000  0.4613550000000 1.0
C      1  0.4451860000000  0.4343560000000  0.4583330000000 1.0
C      1  0.5456040000000  0.5562500000000  0.5394340000000 1.0
C      1  0.4418460000000  0.4351200000000  0.5354830000000 1.0
C      1  0.5971480000000  0.4748440000000  0.4560670000000 1.0
C      1  0.4078940000000  0.5265720000000  0.4588050000000 1.0
C      1  0.6141400000000  0.4702060000000  0.5252340000000 1.0
C      1  0.4052630000000  0.5272980000000  0.5292960000000 1.0
C      1  0.5301870000000  0.5995200000000  0.5218030000000 1.0
C      1  0.4760830000000  0.4015720000000  0.5218230000000 1.0
C      1  0.5315640000000  0.5983240000000  0.4755760000000 1.0
C      1  0.4778750000000  0.4018930000000  0.4755960000000 1.0
C      1  0.5724140000000  0.4816000000000  0.4203060000000 1.0
C      1  0.4308120000000  0.5203040000000  0.4215530000000 1.0
C      1  0.5889840000000  0.4770850000000  0.5611970000000 1.0
C      1  0.4247830000000  0.5219660000000  0.5685190000000 1.0
C      1  0.5932870000000  0.4396080000000  0.4910450000000 1.0
C      1  0.4166020000000  0.5602940000000  0.4941820000000 1.0
C      1  0.5443470000000  0.4413590000000  0.5009900000000 1.0
C      1  0.4564790000000  0.5836680000000  0.4956660000000 1.0
C      1  0.4775890000000  0.5075190000000  0.4289270000000 1.0
C      1  0.4715200000000  0.5091920000000  0.5662780000000 1.0
C      1  0.6117480000000  0.5071510000000  0.4910380000000 1.0
C      1  0.3982400000000  0.4931150000000  0.4941890000000 1.0
C      1  0.4206840000000  0.4527070000000  0.4956790000000 1.0
C      1  0.5687220000000  0.5305380000000  0.5009820000000 1.0
C      1  0.5518990000000  0.4872180000000  0.5276850000000 1.0
END
