TITL C-79160-3940-58 -254.292342116924 27000 -545.34377364605 0 0 79 (D2) n - 1
REM
REM in /rds/project/t2_vol4/rds-t2-cs072/BORA/CARBON/from-Arr/AIRSS/Generating-Clusters/GAP-ML-2020/Higher-Symm/SD-CG/HFTN-CG/Box-30A/DENE
REM
REM
REM
REM
REM
REM ./C.cell (13fc22856271072ba132eecf8fb47ea5)
REM AIRSS Version 0.9.1 bugfix July 2018 build 013d7b7c2542+ Fri, 06 Jul 2018 19:26:36 +0100
REM compiler GCC version 9.3.0
REM options -cpp -mtune=generic -march=x86-64 -g -O0
REM seed -155367443 -803550140 1467474084 -191496970 -41866248 -249251398 596764303 1141134833 1597517332 1459496793 -1136945392 -763684142 1395750214 1410173225 1062689177 -588954748 2094665569 723043267 1367565259 -66967049 28265898 1713056937 503879179 -178504107 -1831625168 1764202333 684629354 2108938746 -790860137 1693176487 2022844763 -1853990680 -206595752
REM
CELL 1.54180   30.00000   30.00000   30.00000   90.00000   90.00000   90.00000
LATT -1
SFAC C  
C      1  0.6377680000000  0.5001490000000  0.5352140000000 1.0
C      1  0.6377770000000  0.4984990000000  0.4653510000000 1.0
C      1  0.3611120000000  0.4984980000000  0.5351820000000 1.0
C      1  0.3611210000000  0.5001400000000  0.4653180000000 1.0
C      1  0.5078690000000  0.3889940000000  0.5717840000000 1.0
C      1  0.5078810000000  0.6096490000000  0.4287510000000 1.0
C      1  0.4910040000000  0.6096570000000  0.5717700000000 1.0
C      1  0.4910250000000  0.3889860000000  0.4287610000000 1.0
C      1  0.4582030000000  0.5423680000000  0.6056860000000 1.0
C      1  0.4582300000000  0.4562740000000  0.3948370000000 1.0
C      1  0.5406610000000  0.4562880000000  0.6057010000000 1.0
C      1  0.5406840000000  0.5423570000000  0.3948410000000 1.0
C      1  0.4278730000000  0.5179490000000  0.5163450000000 1.0
C      1  0.4278770000000  0.4806920000000  0.4841710000000 1.0
C      1  0.5710120000000  0.4806960000000  0.5163640000000 1.0
C      1  0.5710150000000  0.5179500000000  0.4841860000000 1.0
C      1  0.4540510000000  0.6133390000000  0.5416870000000 1.0
C      1  0.4540650000000  0.3853030000000  0.4588350000000 1.0
C      1  0.5448280000000  0.3853090000000  0.5417100000000 1.0
C      1  0.5448340000000  0.6133360000000  0.4588330000000 1.0
C      1  0.5948880000000  0.4945590000000  0.5599980000000 1.0
C      1  0.5949020000000  0.5040880000000  0.4405570000000 1.0
C      1  0.4039870000000  0.5040910000000  0.5599750000000 1.0
C      1  0.4040010000000  0.4945490000000  0.4405350000000 1.0
C      1  0.4718070000000  0.3672700000000  0.5496910000000 1.0
C      1  0.4718140000000  0.6313730000000  0.4508350000000 1.0
C      1  0.5270700000000  0.6313790000000  0.5496830000000 1.0
C      1  0.5270860000000  0.3672650000000  0.4508570000000 1.0
C      1  0.5360290000000  0.4075360000000  0.4718310000000 1.0
C      1  0.5360190000000  0.5911090000000  0.5287100000000 1.0
C      1  0.4628660000000  0.5911050000000  0.4718120000000 1.0
C      1  0.4628630000000  0.4075380000000  0.5287120000000 1.0
C      1  0.5025650000000  0.5704170000000  0.4017350000000 1.0
C      1  0.5025440000000  0.4282260000000  0.5987980000000 1.0
C      1  0.4963480000000  0.4282150000000  0.4017430000000 1.0
C      1  0.4963220000000  0.5704280000000  0.5987890000000 1.0
C      1  0.4244330000000  0.5389460000000  0.4283910000000 1.0
C      1  0.4244180000000  0.4596940000000  0.5721240000000 1.0
C      1  0.5744730000000  0.4596890000000  0.4284130000000 1.0
C      1  0.5744540000000  0.5389570000000  0.5721370000000 1.0
C      1  0.5252650000000  0.5309210000000  0.4755050000000 1.0
C      1  0.5252600000000  0.4677230000000  0.5250340000000 1.0
C      1  0.4736300000000  0.4677190000000  0.4755030000000 1.0
C      1  0.4736230000000  0.5309230000000  0.5250240000000 1.0
C      1  0.4751090000000  0.6367430000000  0.4983300000000 1.0
C      1  0.4751130000000  0.3619000000000  0.5021970000000 1.0
C      1  0.5237810000000  0.3619010000000  0.4983520000000 1.0
C      1  0.5237750000000  0.6367440000000  0.5021870000000 1.0
C      1  0.5229480000000  0.4991520000000  0.3847690000000 1.0
C      1  0.5229200000000  0.4994930000000  0.6157690000000 1.0
C      1  0.4759690000000  0.4994790000000  0.3847640000000 1.0
C      1  0.4759410000000  0.4991640000000  0.6157630000000 1.0
C      1  0.6390380000000  0.5332340000000  0.5003480000000 1.0
C      1  0.6390390000000  0.4654150000000  0.5002170000000 1.0
C      1  0.3598510000000  0.4654100000000  0.5003190000000 1.0
C      1  0.3598500000000  0.5332290000000  0.5001810000000 1.0
C      1  0.4184770000000  0.5827860000000  0.5466660000000 1.0
C      1  0.4184910000000  0.4158540000000  0.4538480000000 1.0
C      1  0.5804010000000  0.4158620000000  0.5466940000000 1.0
C      1  0.5804090000000  0.5827840000000  0.4538580000000 1.0
C      1  0.4191290000000  0.4500960000000  0.4198470000000 1.0
C      1  0.4191080000000  0.5485440000000  0.5806670000000 1.0
C      1  0.5797790000000  0.5485380000000  0.4198600000000 1.0
C      1  0.5797620000000  0.4501090000000  0.5806910000000 1.0
C      1  0.5985980000000  0.4390760000000  0.5043780000000 1.0
C      1  0.5985960000000  0.5595710000000  0.4961780000000 1.0
C      1  0.4002900000000  0.5595680000000  0.5043480000000 1.0
C      1  0.4002940000000  0.4390720000000  0.4961620000000 1.0
C      1  0.5770130000000  0.5707380000000  0.5377060000000 1.0
C      1  0.5770250000000  0.4279080000000  0.4628450000000 1.0
C      1  0.4218670000000  0.4279100000000  0.5376960000000 1.0
C      1  0.4218730000000  0.5707310000000  0.4628190000000 1.0
C      1  0.4624890000000  0.5420970000000  0.3998350000000 1.0
C      1  0.4624670000000  0.4565450000000  0.6006890000000 1.0
C      1  0.5364240000000  0.4565350000000  0.3998490000000 1.0
C      1  0.5363990000000  0.5421100000000  0.6006930000000 1.0
C      1  0.4994430000000  0.5653190000000  0.5002630000000 1.0
C      1  0.4994460000000  0.4333240000000  0.5002700000000 1.0
C      1  0.4994450000000  0.4993220000000  0.5002660000000 1.0
END
