TITL C-79160-3940-44 0.0499729537808484 27000 -1101.24194388691 0 0 158 (C1) n - 1
REM
REM in /rds/project/t2_vol4/rds-t2-cs072/BORA/CARBON/from-Arr/AIRSS/Generating-Clusters/GAP-ML-2020/Higher-Symm/SD-CG/HFTN-CG/Box-30A/DENE
REM
REM
REM
REM
REM
REM ./C.cell (13fc22856271072ba132eecf8fb47ea5)
REM AIRSS Version 0.9.1 bugfix July 2018 build 013d7b7c2542+ Fri, 06 Jul 2018 19:26:36 +0100
REM compiler GCC version 9.3.0
REM options -cpp -mtune=generic -march=x86-64 -g -O0
REM seed 90805263 1656080389 1547774136 1181511892 -50327400 1918859801 -815880081 634120990 -1580666507 452936310 -302682423 -841896583 -40424429 1442113431 890040807 1963091226 -1491024074 454577968 -1442199688 1029808042 75271547 -1219758792 -602891361 -928663098 -1915165216 832700150 1719032426 1222936944 -457939109 347574538 1852861628 -1869998391 1720405018
REM
CELL 1.54180   30.00000   30.00000   30.00000   90.00000   90.00000   90.00000
LATT -1
SFAC C  
C      1  0.5119130000000  0.3843330000000  0.3706170000000 1.0
C      1  0.6194580000000  0.4213780000000  0.6359620000000 1.0
C      1  0.5828120000000  0.5968110000000  0.3594550000000 1.0
C      1  0.4842540000000  0.6242250000000  0.6212590000000 1.0
C      1  0.3840770000000  0.5766100000000  0.3649780000000 1.0
C      1  0.4111670000000  0.4057320000000  0.6616030000000 1.0
C      1  0.5152530000000  0.4587330000000  0.5034820000000 1.0
C      1  0.5466930000000  0.5014720000000  0.5275110000000 1.0
C      1  0.5381200000000  0.5328350000000  0.4925470000000 1.0
C      1  0.4867970000000  0.5323210000000  0.5024290000000 1.0
C      1  0.4553220000000  0.4906340000000  0.4795240000000 1.0
C      1  0.4657550000000  0.4572160000000  0.5134250000000 1.0
C      1  0.5107060000000  0.5948140000000  0.5302780000000 1.0
C      1  0.4167130000000  0.5409370000000  0.4457300000000 1.0
C      1  0.4103600000000  0.4309390000000  0.5649170000000 1.0
C      1  0.4607540000000  0.3776470000000  0.4438410000000 1.0
C      1  0.5864500000000  0.4534650000000  0.5614930000000 1.0
C      1  0.5962590000000  0.5670140000000  0.4338270000000 1.0
C      1  0.5489900000000  0.4845160000000  0.3344240000000 1.0
C      1  0.5314850000000  0.4842460000000  0.6652650000000 1.0
C      1  0.5209740000000  0.5247030000000  0.3402650000000 1.0
C      1  0.4751170000000  0.5260020000000  0.6336590000000 1.0
C      1  0.4735970000000  0.5015070000000  0.3478700000000 1.0
C      1  0.4843760000000  0.4813390000000  0.6563740000000 1.0
C      1  0.5893870000000  0.4795990000000  0.5200840000000 1.0
C      1  0.5662880000000  0.5730500000000  0.4792300000000 1.0
C      1  0.4758880000000  0.5783050000000  0.4966680000000 1.0
C      1  0.4126990000000  0.5127310000000  0.4857990000000 1.0
C      1  0.4369660000000  0.4189320000000  0.5180320000000 1.0
C      1  0.5295540000000  0.4170080000000  0.5167230000000 1.0
C      1  0.3859020000000  0.4404200000000  0.3932030000000 1.0
C      1  0.5271500000000  0.3606710000000  0.5721630000000 1.0
C      1  0.6213060000000  0.4444200000000  0.4451220000000 1.0
C      1  0.5982890000000  0.5931020000000  0.5540940000000 1.0
C      1  0.4713370000000  0.6352430000000  0.4339660000000 1.0
C      1  0.3787220000000  0.5518870000000  0.5578850000000 1.0
C      1  0.3829750000000  0.3666760000000  0.5461720000000 1.0
C      1  0.5295560000000  0.3423680000000  0.4831360000000 1.0
C      1  0.6623810000000  0.4348460000000  0.5268470000000 1.0
C      1  0.6078350000000  0.6323490000000  0.4712260000000 1.0
C      1  0.4568070000000  0.6623580000000  0.5163480000000 1.0
C      1  0.3398840000000  0.5564110000000  0.4733250000000 1.0
C      1  0.4822880000000  0.6624600000000  0.4772400000000 1.0
C      1  0.3572180000000  0.5738820000000  0.5131580000000 1.0
C      1  0.3630140000000  0.3960670000000  0.5152630000000 1.0
C      1  0.5090010000000  0.3385280000000  0.5264380000000 1.0
C      1  0.6434460000000  0.4177350000000  0.4880170000000 1.0
C      1  0.6075540000000  0.5917960000000  0.5053200000000 1.0
C      1  0.5207430000000  0.5680750000000  0.5731980000000 1.0
C      1  0.4534030000000  0.5370250000000  0.4175160000000 1.0
C      1  0.4368100000000  0.4585210000000  0.5954740000000 1.0
C      1  0.4762090000000  0.4266890000000  0.4222910000000 1.0
C      1  0.5527410000000  0.4636080000000  0.5927620000000 1.0
C      1  0.5800670000000  0.5536290000000  0.3881660000000 1.0
C      1  0.3531040000000  0.5628300000000  0.3974850000000 1.0
C      1  0.4107180000000  0.3779600000000  0.6248340000000 1.0
C      1  0.5313890000000  0.3635560000000  0.4082960000000 1.0
C      1  0.6515530000000  0.4314910000000  0.6033140000000 1.0
C      1  0.5882610000000  0.6301510000000  0.3920270000000 1.0
C      1  0.4590030000000  0.6461690000000  0.5900300000000 1.0
C      1  0.5065460000000  0.6018580000000  0.3647650000000 1.0
C      1  0.4184260000000  0.5721960000000  0.6346570000000 1.0
C      1  0.3736550000000  0.5035050000000  0.3364020000000 1.0
C      1  0.5003530000000  0.3970770000000  0.6407640000000 1.0
C      1  0.5857350000000  0.4263480000000  0.3693000000000 1.0
C      1  0.6032060000000  0.5010540000000  0.6407920000000 1.0
C      1  0.3856250000000  0.6170720000000  0.4479240000000 1.0
C      1  0.3745580000000  0.4620930000000  0.5517980000000 1.0
C      1  0.4273190000000  0.3709410000000  0.4074340000000 1.0
C      1  0.6148130000000  0.3757120000000  0.5542370000000 1.0
C      1  0.6292610000000  0.5352070000000  0.4499290000000 1.0
C      1  0.5281790000000  0.6457400000000  0.5419080000000 1.0
C      1  0.4946650000000  0.5916540000000  0.4521510000000 1.0
C      1  0.4187150000000  0.5405910000000  0.5288910000000 1.0
C      1  0.3996990000000  0.4549490000000  0.4358870000000 1.0
C      1  0.5136340000000  0.4065220000000  0.5584240000000 1.0
C      1  0.5831240000000  0.4531220000000  0.4760430000000 1.0
C      1  0.6069170000000  0.5429760000000  0.5696350000000 1.0
C      1  0.6125080000000  0.6129730000000  0.4296700000000 1.0
C      1  0.4848000000000  0.6643290000000  0.5542460000000 1.0
C      1  0.3504340000000  0.5871540000000  0.4373250000000 1.0
C      1  0.3884880000000  0.3929680000000  0.5847280000000 1.0
C      1  0.5039550000000  0.3521730000000  0.4446030000000 1.0
C      1  0.6513640000000  0.4051840000000  0.5638470000000 1.0
C      1  0.5085180000000  0.6374070000000  0.4002800000000 1.0
C      1  0.3976160000000  0.5857130000000  0.5939520000000 1.0
C      1  0.3641440000000  0.4812920000000  0.3757100000000 1.0
C      1  0.4914130000000  0.3617680000000  0.6095770000000 1.0
C      1  0.6014940000000  0.4110610000000  0.4103920000000 1.0
C      1  0.6318940000000  0.5154190000000  0.6074320000000 1.0
C      1  0.5880740000000  0.4731520000000  0.3579730000000 1.0
C      1  0.5337730000000  0.5802710000000  0.6502230000000 1.0
C      1  0.4601280000000  0.5876650000000  0.3523430000000 1.0
C      1  0.4248700000000  0.5228110000000  0.6431530000000 1.0
C      1  0.4796390000000  0.4516920000000  0.3380830000000 1.0
C      1  0.5447050000000  0.4042660000000  0.6549410000000 1.0
C      1  0.4189820000000  0.4438710000000  0.6807140000000 1.0
C      1  0.5448640000000  0.4094690000000  0.3497640000000 1.0
C      1  0.6022560000000  0.4578900000000  0.6606170000000 1.0
C      1  0.5443720000000  0.5993880000000  0.3291340000000 1.0
C      1  0.4593230000000  0.5953280000000  0.6479500000000 1.0
C      1  0.3988700000000  0.5417030000000  0.3359480000000 1.0
C      1  0.6354900000000  0.5497380000000  0.4943540000000 1.0
C      1  0.5299550000000  0.6550190000000  0.4913330000000 1.0
C      1  0.3891440000000  0.6083430000000  0.4960960000000 1.0
C      1  0.3590570000000  0.4426330000000  0.5104060000000 1.0
C      1  0.4614460000000  0.3446930000000  0.5224720000000 1.0
C      1  0.6107710000000  0.3842700000000  0.5064590000000 1.0
C      1  0.5773970000000  0.3671560000000  0.5857040000000 1.0
C      1  0.6276210000000  0.4934750000000  0.4257850000000 1.0
C      1  0.5625600000000  0.6227780000000  0.5730210000000 1.0
C      1  0.4234840000000  0.6272260000000  0.4178400000000 1.0
C      1  0.3750080000000  0.5039520000000  0.5752830000000 1.0
C      1  0.4169700000000  0.4047930000000  0.3796430000000 1.0
C      1  0.4287720000000  0.3450430000000  0.5558170000000 1.0
C      1  0.5730980000000  0.3635360000000  0.4715680000000 1.0
C      1  0.6631080000000  0.4805670000000  0.5441020000000 1.0
C      1  0.5671370000000  0.6589990000000  0.4612170000000 1.0
C      1  0.4187070000000  0.6330100000000  0.5289480000000 1.0
C      1  0.3410890000000  0.5113970000000  0.4539750000000 1.0
C      1  0.5074970000000  0.4485010000000  0.5837100000000 1.0
C      1  0.5355640000000  0.4680620000000  0.4565340000000 1.0
C      1  0.5543000000000  0.5296210000000  0.5742610000000 1.0
C      1  0.5015590000000  0.5481500000000  0.4248920000000 1.0
C      1  0.4640180000000  0.5236690000000  0.5485400000000 1.0
C      1  0.4487850000000  0.4655860000000  0.4333900000000 1.0
C      1  0.4210320000000  0.6053080000000  0.3755250000000 1.0
C      1  0.4053380000000  0.4935790000000  0.6106960000000 1.0
C      1  0.4676750000000  0.4152270000000  0.3703960000000 1.0
C      1  0.5831700000000  0.3890080000000  0.6280990000000 1.0
C      1  0.6050710000000  0.5066940000000  0.3855800000000 1.0
C      1  0.5322990000000  0.6044450000000  0.6083790000000 1.0
C      1  0.3730100000000  0.4766760000000  0.4731340000000 1.0
C      1  0.4462700000000  0.3783620000000  0.4916400000000 1.0
C      1  0.5702270000000  0.4074330000000  0.4941460000000 1.0
C      1  0.6290750000000  0.5158180000000  0.5285780000000 1.0
C      1  0.5318650000000  0.6052220000000  0.4810890000000 1.0
C      1  0.4310850000000  0.5853250000000  0.5112420000000 1.0
C      1  0.4790230000000  0.4421670000000  0.6251370000000 1.0
C      1  0.5207920000000  0.4414700000000  0.4230160000000 1.0
C      1  0.5562910000000  0.5049690000000  0.6235380000000 1.0
C      1  0.5269870000000  0.5546310000000  0.3827960000000 1.0
C      1  0.4801400000000  0.5462650000000  0.5856660000000 1.0
C      1  0.4558930000000  0.4976560000000  0.3951340000000 1.0
C      1  0.4465420000000  0.5445120000000  0.3333660000000 1.0
C      1  0.4378460000000  0.4850130000000  0.6784270000000 1.0
C      1  0.5242520000000  0.4452080000000  0.3276580000000 1.0
C      1  0.5577050000000  0.4467980000000  0.6736660000000 1.0
C      1  0.5302540000000  0.5629320000000  0.3069640000000 1.0
C      1  0.4925970000000  0.5645190000000  0.6616800000000 1.0
C      1  0.6589630000000  0.4788840000000  0.5908370000000 1.0
C      1  0.5522350000000  0.6530640000000  0.4137630000000 1.0
C      1  0.4176170000000  0.6258050000000  0.5759780000000 1.0
C      1  0.3457710000000  0.5154770000000  0.4070300000000 1.0
C      1  0.4457570000000  0.3532810000000  0.6013860000000 1.0
C      1  0.5752200000000  0.3736530000000  0.4248350000000 1.0
C      1  0.4694880000000  0.4755750000000  0.5600230000000 1.0
C      1  0.5290590000000  0.5158040000000  0.4501150000000 1.0
END
