TITL C-79161-3900-88 -327.705109863321 27000 -694.762353051092 0 0 99 (C1) n - 1
REM
REM in /rds/project/t2_vol4/rds-t2-cs072/BORA/CARBON/from-Arr/AIRSS/Generating-Clusters/GAP-ML-2020/Higher-Symm/SD-CG/HFTN-CG/Box-30A/DENE
REM
REM
REM
REM
REM
REM ./C.cell (13fc22856271072ba132eecf8fb47ea5)
REM AIRSS Version 0.9.1 bugfix July 2018 build 013d7b7c2542+ Fri, 06 Jul 2018 19:26:36 +0100
REM compiler GCC version 9.3.0
REM options -cpp -mtune=generic -march=x86-64 -g -O0
REM seed 1119431875 660096277 2118708857 -248820279 1497818217 326843575 -1441573802 1521860719 2034766570 -161303404 -1761924666 2032807122 -614170074 -1363910942 -1076845777 -1198563014 1694030494 -939848130 1275437922 -940947959 -1523881401 1859293162 -1881758919 1046410533 -1401791634 780997990 -2047909083 1723068048 1391028396 -963188047 -854494096 -325996582 -1655168765
REM
CELL 1.54180   30.00000   30.00000   30.00000   90.00000   90.00000   90.00000
LATT -1
SFAC C  
C      1  0.4199270000000  0.5458480000000  0.3773840000000 1.0
C      1  0.4980430000000  0.5471920000000  0.3580310000000 1.0
C      1  0.5745300000000  0.5432380000000  0.3900520000000 1.0
C      1  0.6314870000000  0.5414950000000  0.4437210000000 1.0
C      1  0.6481250000000  0.5363100000000  0.5179920000000 1.0
C      1  0.6131280000000  0.5423690000000  0.5857860000000 1.0
C      1  0.5450170000000  0.5429240000000  0.6240800000000 1.0
C      1  0.4632750000000  0.5452410000000  0.6350210000000 1.0
C      1  0.3924750000000  0.5438300000000  0.5972290000000 1.0
C      1  0.3560090000000  0.5418440000000  0.5222610000000 1.0
C      1  0.3661730000000  0.5428140000000  0.4422140000000 1.0
C      1  0.4537160000000  0.5235850000000  0.5487410000000 1.0
C      1  0.4428140000000  0.5302910000000  0.5080150000000 1.0
C      1  0.4447310000000  0.5003080000000  0.4752090000000 1.0
C      1  0.4622730000000  0.5214510000000  0.4398770000000 1.0
C      1  0.5006920000000  0.5008130000000  0.4351620000000 1.0
C      1  0.5364170000000  0.5207610000000  0.4537320000000 1.0
C      1  0.5596120000000  0.4889830000000  0.4766990000000 1.0
C      1  0.5823700000000  0.5106480000000  0.5088760000000 1.0
C      1  0.5533150000000  0.4911960000000  0.5366530000000 1.0
C      1  0.5227150000000  0.5197360000000  0.5534980000000 1.0
C      1  0.4851740000000  0.4941840000000  0.5587780000000 1.0
C      1  0.5073900000000  0.4769790000000  0.6453070000000 1.0
C      1  0.4253070000000  0.4733680000000  0.6259440000000 1.0
C      1  0.3732790000000  0.4727310000000  0.5621000000000 1.0
C      1  0.3556530000000  0.4705230000000  0.4814680000000 1.0
C      1  0.3905700000000  0.4750660000000  0.4050100000000 1.0
C      1  0.4582630000000  0.4751990000000  0.3578500000000 1.0
C      1  0.5427110000000  0.4784120000000  0.3590340000000 1.0
C      1  0.6122210000000  0.4733240000000  0.4025770000000 1.0
C      1  0.6501970000000  0.4683460000000  0.4772360000000 1.0
C      1  0.6418740000000  0.4697350000000  0.5595970000000 1.0
C      1  0.5867340000000  0.4745160000000  0.6233850000000 1.0
C      1  0.6213880000000  0.4526120000000  0.4438480000000 1.0
C      1  0.6353690000000  0.4471350000000  0.5174140000000 1.0
C      1  0.6058600000000  0.4547560000000  0.5852210000000 1.0
C      1  0.5439630000000  0.4540960000000  0.6260150000000 1.0
C      1  0.4692070000000  0.4564950000000  0.6267680000000 1.0
C      1  0.4059160000000  0.4512660000000  0.5885360000000 1.0
C      1  0.3738520000000  0.4503410000000  0.5207130000000 1.0
C      1  0.3832940000000  0.4546490000000  0.4471130000000 1.0
C      1  0.4300110000000  0.4546520000000  0.3898490000000 1.0
C      1  0.5011030000000  0.4584680000000  0.3677230000000 1.0
C      1  0.5718470000000  0.4541190000000  0.3879510000000 1.0
C      1  0.3855430000000  0.5231810000000  0.4028240000000 1.0
C      1  0.4559710000000  0.5222120000000  0.3551830000000 1.0
C      1  0.5417310000000  0.5262480000000  0.3600180000000 1.0
C      1  0.6151110000000  0.5211520000000  0.4029570000000 1.0
C      1  0.6564020000000  0.5160460000000  0.4762810000000 1.0
C      1  0.6460300000000  0.5170940000000  0.5606610000000 1.0
C      1  0.5880390000000  0.5219960000000  0.6220580000000 1.0
C      1  0.5057770000000  0.5249690000000  0.6443520000000 1.0
C      1  0.4224440000000  0.5201760000000  0.6270280000000 1.0
C      1  0.3665820000000  0.5207410000000  0.5639290000000 1.0
C      1  0.3502950000000  0.5173090000000  0.4807720000000 1.0
C      1  0.5878130000000  0.4244290000000  0.5128740000000 1.0
C      1  0.5669520000000  0.4486290000000  0.5535010000000 1.0
C      1  0.5306090000000  0.4291710000000  0.5824830000000 1.0
C      1  0.4821530000000  0.4483150000000  0.5776560000000 1.0
C      1  0.4396340000000  0.4247280000000  0.5604370000000 1.0
C      1  0.4180230000000  0.4255280000000  0.5124350000000 1.0
C      1  0.4303050000000  0.4506990000000  0.4694020000000 1.0
C      1  0.4572200000000  0.4325020000000  0.4283640000000 1.0
C      1  0.5018880000000  0.4539370000000  0.4188030000000 1.0
C      1  0.5460740000000  0.4288090000000  0.4255990000000 1.0
C      1  0.5764140000000  0.4434670000000  0.4648610000000 1.0
C      1  0.4223570000000  0.3747750000000  0.4994560000000 1.0
C      1  0.4512370000000  0.3628510000000  0.4664020000000 1.0
C      1  0.4758270000000  0.3864390000000  0.4365730000000 1.0
C      1  0.5244580000000  0.3831750000000  0.4287760000000 1.0
C      1  0.5481930000000  0.3472820000000  0.4483760000000 1.0
C      1  0.5600250000000  0.3515260000000  0.4887850000000 1.0
C      1  0.5667980000000  0.3803050000000  0.5244460000000 1.0
C      1  0.5331130000000  0.3832960000000  0.5620960000000 1.0
C      1  0.4940120000000  0.3605310000000  0.5665860000000 1.0
C      1  0.4500230000000  0.3731060000000  0.5657810000000 1.0
C      1  0.4183310000000  0.3513040000000  0.5396520000000 1.0
C      1  0.5854890000000  0.5736510000000  0.5561960000000 1.0
C      1  0.5383100000000  0.5606800000000  0.5774970000000 1.0
C      1  0.4556800000000  0.5864050000000  0.6125950000000 1.0
C      1  0.4123300000000  0.5866240000000  0.5910410000000 1.0
C      1  0.3696120000000  0.5852950000000  0.5088160000000 1.0
C      1  0.3763300000000  0.5853530000000  0.4602710000000 1.0
C      1  0.4380150000000  0.5879480000000  0.3895860000000 1.0
C      1  0.4851990000000  0.5881640000000  0.3786910000000 1.0
C      1  0.5571940000000  0.5609080000000  0.4342230000000 1.0
C      1  0.5978660000000  0.5743680000000  0.4655850000000 1.0
C      1  0.6018320000000  0.5556860000000  0.5118910000000 1.0
C      1  0.4948840000000  0.6151270000000  0.4197810000000 1.0
C      1  0.5356930000000  0.6056650000000  0.4404470000000 1.0
C      1  0.5719080000000  0.6190480000000  0.4691610000000 1.0
C      1  0.5694450000000  0.6421500000000  0.5086720000000 1.0
C      1  0.5619550000000  0.6187420000000  0.5473680000000 1.0
C      1  0.5197500000000  0.6063830000000  0.5672020000000 1.0
C      1  0.4749460000000  0.6157500000000  0.5771470000000 1.0
C      1  0.4299670000000  0.6166100000000  0.5551420000000 1.0
C      1  0.4082590000000  0.6165370000000  0.5142560000000 1.0
C      1  0.4154770000000  0.6157930000000  0.4649560000000 1.0
C      1  0.4464460000000  0.6153320000000  0.4303980000000 1.0
END
