TITL C-79163-3824-86 -0.562287050056661 27000 -511.744315824897 0 0 73 (C1) n - 1
REM
REM in /rds/project/t2_vol4/rds-t2-cs072/BORA/CARBON/from-Arr/AIRSS/Generating-Clusters/GAP-ML-2020/Higher-Symm/SD-CG/HFTN-CG/Box-30A/DENE
REM
REM
REM
REM
REM
REM ./C.cell (13fc22856271072ba132eecf8fb47ea5)
REM AIRSS Version 0.9.1 bugfix July 2018 build 013d7b7c2542+ Fri, 06 Jul 2018 19:26:36 +0100
REM compiler GCC version 9.3.0
REM options -cpp -mtune=generic -march=x86-64 -g -O0
REM seed 102982834 923925638 1438850662 2089656872 -1822667312 -1316656823 1351283129 -428582968 -748293034 -2098078283 978426819 -1214246345 -1916449532 -1029439972 756950106 -694894506 -413631646 2060933560 -1969017932 1710350052 1107393029 -1623073281 -828913554 -457442758 347127993 651108543 -407787039 758769545 1246199063 1324788010 -1086954731 -1401667415 2079419764
REM
CELL 1.54180   30.00000   30.00000   30.00000   90.00000   90.00000   90.00000
LATT -1
SFAC C  
C      1  0.4546310000000  0.5988940000000  0.4124240000000 1.0
C      1  0.4155870000000  0.5689670000000  0.4145150000000 1.0
C      1  0.3928060000000  0.4796990000000  0.4133210000000 1.0
C      1  0.4152710000000  0.4355770000000  0.4165000000000 1.0
C      1  0.5082690000000  0.4141990000000  0.4250750000000 1.0
C      1  0.5519850000000  0.4276030000000  0.4370960000000 1.0
C      1  0.5756860000000  0.4671460000000  0.4261060000000 1.0
C      1  0.5824220000000  0.5605090000000  0.4189550000000 1.0
C      1  0.5477160000000  0.5954880000000  0.4140440000000 1.0
C      1  0.6174410000000  0.5190320000000  0.5301920000000 1.0
C      1  0.5773930000000  0.5939930000000  0.5187660000000 1.0
C      1  0.5013370000000  0.6265340000000  0.5187080000000 1.0
C      1  0.4308480000000  0.5927540000000  0.5196640000000 1.0
C      1  0.3843400000000  0.5241990000000  0.5235610000000 1.0
C      1  0.3880530000000  0.4458650000000  0.5156950000000 1.0
C      1  0.4372300000000  0.3785060000000  0.5225690000000 1.0
C      1  0.5176900000000  0.3592040000000  0.5251720000000 1.0
C      1  0.6158020000000  0.4333860000000  0.5215450000000 1.0
C      1  0.5016400000000  0.5319780000000  0.4684350000000 1.0
C      1  0.4714830000000  0.5002150000000  0.4584540000000 1.0
C      1  0.4741630000000  0.4817830000000  0.5006750000000 1.0
C      1  0.4866610000000  0.4354400000000  0.5040070000000 1.0
C      1  0.5337490000000  0.4304140000000  0.5158180000000 1.0
C      1  0.5447210000000  0.4677650000000  0.5450310000000 1.0
C      1  0.5393710000000  0.5129940000000  0.5401600000000 1.0
C      1  0.5695350000000  0.5889970000000  0.5655980000000 1.0
C      1  0.5269890000000  0.5939790000000  0.5855610000000 1.0
C      1  0.5419810000000  0.6173890000000  0.4950040000000 1.0
C      1  0.4621760000000  0.6194930000000  0.4932070000000 1.0
C      1  0.3981310000000  0.5635550000000  0.4994120000000 1.0
C      1  0.3751190000000  0.4876670000000  0.4941340000000 1.0
C      1  0.4083240000000  0.4069630000000  0.4952670000000 1.0
C      1  0.4801770000000  0.3644610000000  0.4984420000000 1.0
C      1  0.6080340000000  0.4022350000000  0.4887990000000 1.0
C      1  0.6159500000000  0.4796340000000  0.5034700000000 1.0
C      1  0.6045380000000  0.5571910000000  0.5020020000000 1.0
C      1  0.4616070000000  0.4109170000000  0.5439380000000 1.0
C      1  0.5417310000000  0.3927460000000  0.5503240000000 1.0
C      1  0.5886730000000  0.4181110000000  0.5588170000000 1.0
C      1  0.6093860000000  0.5171630000000  0.5771980000000 1.0
C      1  0.5879110000000  0.5557960000000  0.5917540000000 1.0
C      1  0.4922390000000  0.6115550000000  0.5615210000000 1.0
C      1  0.4535670000000  0.5841830000000  0.5630130000000 1.0
C      1  0.4000950000000  0.5067460000000  0.5643920000000 1.0
C      1  0.4029900000000  0.4586530000000  0.5600580000000 1.0
C      1  0.6010810000000  0.4917410000000  0.4591140000000 1.0
C      1  0.6010530000000  0.5398400000000  0.4573390000000 1.0
C      1  0.5266240000000  0.6168220000000  0.4491230000000 1.0
C      1  0.4778980000000  0.6191140000000  0.4477310000000 1.0
C      1  0.3919680000000  0.5519840000000  0.4521040000000 1.0
C      1  0.3780700000000  0.5053770000000  0.4493040000000 1.0
C      1  0.4288730000000  0.4094150000000  0.4528620000000 1.0
C      1  0.4772070000000  0.4021850000000  0.4617480000000 1.0
C      1  0.5644200000000  0.4116470000000  0.4786160000000 1.0
C      1  0.5235700000000  0.5690340000000  0.3801630000000 1.0
C      1  0.4764190000000  0.5704690000000  0.3786470000000 1.0
C      1  0.4359780000000  0.5401030000000  0.3794900000000 1.0
C      1  0.4247780000000  0.4947290000000  0.3793660000000 1.0
C      1  0.4464990000000  0.4497900000000  0.3826120000000 1.0
C      1  0.4918020000000  0.4367330000000  0.3852320000000 1.0
C      1  0.5225370000000  0.4658100000000  0.3694790000000 1.0
C      1  0.5576400000000  0.4883220000000  0.3870730000000 1.0
C      1  0.5602130000000  0.5351660000000  0.3841900000000 1.0
C      1  0.5626930000000  0.4492080000000  0.5884140000000 1.0
C      1  0.5781160000000  0.4901410000000  0.6087860000000 1.0
C      1  0.5531760000000  0.5306080000000  0.6174360000000 1.0
C      1  0.5123080000000  0.5546900000000  0.6086940000000 1.0
C      1  0.4650600000000  0.5479810000000  0.5954580000000 1.0
C      1  0.4393720000000  0.5082930000000  0.5937070000000 1.0
C      1  0.4439810000000  0.4583190000000  0.5891650000000 1.0
C      1  0.4770680000000  0.4236220000000  0.5874230000000 1.0
C      1  0.5234210000000  0.4180340000000  0.5910530000000 1.0
C      1  0.5055120000000  0.5197200000000  0.5128220000000 1.0
END
