TITL C-79161-3900-116 -146.329114422703 27000 -588.113293054361 0 0 87 (C3) n - 1
REM
REM in /rds/project/t2_vol4/rds-t2-cs072/BORA/CARBON/from-Arr/AIRSS/Generating-Clusters/GAP-ML-2020/Higher-Symm/SD-CG/HFTN-CG/Box-30A/DENE
REM
REM
REM
REM
REM
REM ./C.cell (13fc22856271072ba132eecf8fb47ea5)
REM AIRSS Version 0.9.1 bugfix July 2018 build 013d7b7c2542+ Fri, 06 Jul 2018 19:26:36 +0100
REM compiler GCC version 9.3.0
REM options -cpp -mtune=generic -march=x86-64 -g -O0
REM seed 166774151 472541846 -136107582 1620286883 1027056935 886551873 1190925157 376645090 68252867 -1198938088 -1366696554 -262246805 -1021426558 503165190 1673831424 -1548416993 1816028874 936521858 -662555187 1522444176 -1587669189 -269291809 1794662886 -2064948451 -1134905282 -1763556637 -715014948 1234180993 -189586485 -1000200789 -566567480 1166612217 1107848638
REM
CELL 1.54180   30.00000   30.00000   30.00000   90.00000   90.00000   90.00000
LATT -1
SFAC C  
C      1  0.5497440000000  0.5502170000000  0.4928350000000 1.0
C      1  0.5497410000000  0.4686850000000  0.4600900000000 1.0
C      1  0.5497440000000  0.4810940000000  0.5470710000000 1.0
C      1  0.5379390000000  0.5554860000000  0.6333660000000 1.0
C      1  0.5379320000000  0.5877550000000  0.3852620000000 1.0
C      1  0.5379290000000  0.3567560000000  0.4813690000000 1.0
C      1  0.5250230000000  0.5945770000000  0.4733770000000 1.0
C      1  0.5250170000000  0.4296550000000  0.4314030000000 1.0
C      1  0.5250230000000  0.4757650000000  0.5952170000000 1.0
C      1  0.4457710000000  0.4316060000000  0.3846290000000 1.0
C      1  0.4457780000000  0.4342830000000  0.6169200000000 1.0
C      1  0.4457800000000  0.6341150000000  0.4984560000000 1.0
C      1  0.4739080000000  0.5971830000000  0.5934520000000 1.0
C      1  0.4739000000000  0.5323400000000  0.3691130000000 1.0
C      1  0.4739000000000  0.3704780000000  0.5374380000000 1.0
C      1  0.4705580000000  0.5702620000000  0.5236560000000 1.0
C      1  0.4705530000000  0.4853560000000  0.4273260000000 1.0
C      1  0.4705550000000  0.4443850000000  0.5490210000000 1.0
C      1  0.4789490000000  0.4195270000000  0.3565680000000 1.0
C      1  0.4789580000000  0.4160210000000  0.6414090000000 1.0
C      1  0.4789600000000  0.6644540000000  0.5020250000000 1.0
C      1  0.6184330000000  0.5552040000000  0.4555130000000 1.0
C      1  0.6184300000000  0.4338690000000  0.4744280000000 1.0
C      1  0.6184350000000  0.5109170000000  0.5700500000000 1.0
C      1  0.5421020000000  0.5121460000000  0.4100870000000 1.0
C      1  0.5421030000000  0.4160600000000  0.5344340000000 1.0
C      1  0.5421070000000  0.5717910000000  0.5554750000000 1.0
C      1  0.3990590000000  0.4107360000000  0.5005150000000 1.0
C      1  0.3990640000000  0.5450790000000  0.5770540000000 1.0
C      1  0.3990600000000  0.5441930000000  0.4224400000000 1.0
C      1  0.4819490000000  0.5245200000000  0.4580310000000 1.0
C      1  0.4819480000000  0.4513940000000  0.4997510000000 1.0
C      1  0.4819510000000  0.5240880000000  0.5422200000000 1.0
C      1  0.5505930000000  0.3889990000000  0.4437150000000 1.0
C      1  0.5506010000000  0.5067550000000  0.6242690000000 1.0
C      1  0.5505980000000  0.6042420000000  0.4320120000000 1.0
C      1  0.3920940000000  0.5396630000000  0.5297960000000 1.0
C      1  0.3920910000000  0.5059740000000  0.4507600000000 1.0
C      1  0.3920920000000  0.4543710000000  0.5194540000000 1.0
C      1  0.3919680000000  0.5790730000000  0.5029090000000 1.0
C      1  0.3919630000000  0.4629840000000  0.4300740000000 1.0
C      1  0.3919660000000  0.4579510000000  0.5670270000000 1.0
C      1  0.5038090000000  0.4928570000000  0.3882230000000 1.0
C      1  0.5038120000000  0.4067700000000  0.5620740000000 1.0
C      1  0.5038170000000  0.6003730000000  0.5497020000000 1.0
C      1  0.5091580000000  0.6311210000000  0.5093230000000 1.0
C      1  0.5091490000000  0.4425130000000  0.3817840000000 1.0
C      1  0.5091550000000  0.4263650000000  0.6088920000000 1.0
C      1  0.4267780000000  0.4756410000000  0.3979860000000 1.0
C      1  0.4267810000000  0.4238330000000  0.5721070000000 1.0
C      1  0.4267850000000  0.6005310000000  0.5299130000000 1.0
C      1  0.5020360000000  0.3498940000000  0.5077870000000 1.0
C      1  0.5020460000000  0.5817960000000  0.6261020000000 1.0
C      1  0.5020380000000  0.5683090000000  0.3661110000000 1.0
C      1  0.4281170000000  0.5247180000000  0.3871560000000 1.0
C      1  0.4281180000000  0.3899160000000  0.5350210000000 1.0
C      1  0.4281240000000  0.5853720000000  0.5778300000000 1.0
C      1  0.4798450000000  0.5727030000000  0.4716770000000 1.0
C      1  0.4798410000000  0.4391200000000  0.4512000000000 1.0
C      1  0.4798460000000  0.4881780000000  0.5771250000000 1.0
C      1  0.5851990000000  0.5649710000000  0.6179360000000 1.0
C      1  0.5851920000000  0.5696480000000  0.3847600000000 1.0
C      1  0.5851900000000  0.3653740000000  0.4972970000000 1.0
C      1  0.6003710000000  0.5569390000000  0.4990690000000 1.0
C      1  0.6003670000000  0.4707230000000  0.4511480000000 1.0
C      1  0.6003700000000  0.4723300000000  0.5497740000000 1.0
C      1  0.5857800000000  0.3974100000000  0.5320220000000 1.0
C      1  0.5857850000000  0.5790260000000  0.5728290000000 1.0
C      1  0.5857790000000  0.5235570000000  0.3951410000000 1.0
C      1  0.6146450000000  0.5120250000000  0.4317100000000 1.0
C      1  0.6146460000000  0.4348450000000  0.5237230000000 1.0
C      1  0.6146490000000  0.5531210000000  0.5445570000000 1.0
C      1  0.4363590000000  0.4726860000000  0.5057350000000 1.0
C      1  0.4363610000000  0.5186240000000  0.5207920000000 1.0
C      1  0.4363590000000  0.5086950000000  0.4734790000000 1.0
C      1  0.5316670000000  0.5151210000000  0.4574480000000 1.0
C      1  0.5316660000000  0.4555880000000  0.5081780000000 1.0
C      1  0.5316690000000  0.5292880000000  0.5343710000000 1.0
C      1  0.5956310000000  0.5876500000000  0.4275160000000 1.0
C      1  0.5956260000000  0.3934010000000  0.4603290000000 1.0
C      1  0.5956340000000  0.5189420000000  0.6121470000000 1.0
C      1  0.4011710000000  0.4979180000000  0.5928860000000 1.0
C      1  0.4011700000000  0.5814850000000  0.4553670000000 1.0
C      1  0.4011650000000  0.4206060000000  0.4517550000000 1.0
C      1  0.4413380000000  0.4137150000000  0.4290240000000 1.0
C      1  0.4413450000000  0.4816760000000  0.6102170000000 1.0
C      1  0.4413440000000  0.6046130000000  0.4607640000000 1.0
END
