TITL C-79161-3900-120 -0.00731648574781567 27000 -179.678395725016 0 0 29 (C1) n - 1
REM
REM in /rds/project/t2_vol4/rds-t2-cs072/BORA/CARBON/from-Arr/AIRSS/Generating-Clusters/GAP-ML-2020/Higher-Symm/SD-CG/HFTN-CG/Box-30A/DENE
REM
REM
REM
REM
REM
REM ./C.cell (13fc22856271072ba132eecf8fb47ea5)
REM AIRSS Version 0.9.1 bugfix July 2018 build 013d7b7c2542+ Fri, 06 Jul 2018 19:26:36 +0100
REM compiler GCC version 9.3.0
REM options -cpp -mtune=generic -march=x86-64 -g -O0
REM seed -2007808817 -1470180291 -635664758 -1688660550 -262201502 -2143200167 -2085347041 -735436368 91792672 -1049623456 -694831273 -1538805753 -2006709962 539313444 -935836946 908825609 -1101739551 1108211561 138167901 1362750639 -914739323 -1266055258 1713346566 598992769 -1917487727 -2105609368 -789013072 -980343132 1933562501 -640380834 -88139626 -1072840789 -1454511867
REM
CELL 1.54180   30.00000   30.00000   30.00000   90.00000   90.00000   90.00000
LATT -1
SFAC C  
C      1  0.4270310000000  0.4128910000000  0.5232490000000 1.0
C      1  0.4287210000000  0.4238390000000  0.4348500000000 1.0
C      1  0.5657280000000  0.4139640000000  0.4427700000000 1.0
C      1  0.5739890000000  0.4165440000000  0.5308770000000 1.0
C      1  0.5027970000000  0.4102620000000  0.5777420000000 1.0
C      1  0.5755720000000  0.5780550000000  0.5255910000000 1.0
C      1  0.5457220000000  0.5757300000000  0.4362270000000 1.0
C      1  0.4593270000000  0.5775900000000  0.4354450000000 1.0
C      1  0.4146590000000  0.5724000000000  0.5111530000000 1.0
C      1  0.5226490000000  0.5661910000000  0.5969940000000 1.0
C      1  0.5091320000000  0.5298830000000  0.5811690000000 1.0
C      1  0.4291750000000  0.5337900000000  0.5180890000000 1.0
C      1  0.4614190000000  0.5345540000000  0.4390400000000 1.0
C      1  0.5469910000000  0.5331430000000  0.4402190000000 1.0
C      1  0.5707320000000  0.5372720000000  0.5189520000000 1.0
C      1  0.5000500000000  0.4531490000000  0.5731490000000 1.0
C      1  0.5736660000000  0.4589690000000  0.5289360000000 1.0
C      1  0.5510560000000  0.4530950000000  0.4441480000000 1.0
C      1  0.4494690000000  0.4598150000000  0.4401810000000 1.0
C      1  0.4362040000000  0.4535310000000  0.5254670000000 1.0
C      1  0.5022390000000  0.4963130000000  0.5460910000000 1.0
C      1  0.5298170000000  0.4921420000000  0.4641340000000 1.0
C      1  0.4597710000000  0.4955630000000  0.5146700000000 1.0
C      1  0.4761420000000  0.4931850000000  0.4640820000000 1.0
C      1  0.5443850000000  0.4968610000000  0.5143030000000 1.0
C      1  0.5019350000000  0.5829660000000  0.4624630000000 1.0
C      1  0.5244520000000  0.4059190000000  0.5318040000000 1.0
C      1  0.4996450000000  0.4030210000000  0.4944150000000 1.0
C      1  0.5003440000000  0.5859880000000  0.5072730000000 1.0
END
