TITL C-79161-3900-113 253.327769307455 27000 -887.829791725984 0 0 127 (C1) n - 1
REM
REM in /rds/project/t2_vol4/rds-t2-cs072/BORA/CARBON/from-Arr/AIRSS/Generating-Clusters/GAP-ML-2020/Higher-Symm/SD-CG/HFTN-CG/Box-30A/DENE
REM
REM
REM
REM
REM
REM ./C.cell (13fc22856271072ba132eecf8fb47ea5)
REM AIRSS Version 0.9.1 bugfix July 2018 build 013d7b7c2542+ Fri, 06 Jul 2018 19:26:36 +0100
REM compiler GCC version 9.3.0
REM options -cpp -mtune=generic -march=x86-64 -g -O0
REM seed -556879703 -2061724674 -158781610 1733044021 385196383 455841560 -709956494 -1036094340 -873965039 -1160195908 -2064583817 615169227 -1035663955 -116782149 -600299193 2007902075 -2117331816 202347032 1599001803 501657834 -101701873 1388551988 -838039430 -2102091604 10437003 1394782041 -380116407 -61017109 363493173 -2058270619 1081638197 -956992891 891762547
REM
CELL 1.54180   30.00000   30.00000   30.00000   90.00000   90.00000   90.00000
LATT -1
SFAC C  
C      1  0.4141880000000  0.5373100000000  0.4715770000000 1.0
C      1  0.5254470000000  0.5361580000000  0.5958840000000 1.0
C      1  0.5780230000000  0.5369060000000  0.4359370000000 1.0
C      1  0.4648770000000  0.4591700000000  0.5335100000000 1.0
C      1  0.5398120000000  0.4487100000000  0.5173910000000 1.0
C      1  0.4911090000000  0.4565350000000  0.4557460000000 1.0
C      1  0.3962120000000  0.5024350000000  0.5008270000000 1.0
C      1  0.5484650000000  0.4914540000000  0.5988760000000 1.0
C      1  0.5597280000000  0.4968620000000  0.4109200000000 1.0
C      1  0.5806280000000  0.4161900000000  0.5944250000000 1.0
C      1  0.5350600000000  0.4207140000000  0.3889720000000 1.0
C      1  0.3831020000000  0.4265460000000  0.5263750000000 1.0
C      1  0.5023580000000  0.6750060000000  0.5298350000000 1.0
C      1  0.5056730000000  0.6766550000000  0.4810270000000 1.0
C      1  0.4621940000000  0.6743320000000  0.4614680000000 1.0
C      1  0.4483190000000  0.5917430000000  0.3819190000000 1.0
C      1  0.4343310000000  0.6043630000000  0.5933880000000 1.0
C      1  0.6264930000000  0.6132250000000  0.5121260000000 1.0
C      1  0.5015680000000  0.4401570000000  0.6475940000000 1.0
C      1  0.6147600000000  0.4357220000000  0.4323010000000 1.0
C      1  0.3736880000000  0.4554280000000  0.4328190000000 1.0
C      1  0.4473820000000  0.4725830000000  0.5773540000000 1.0
C      1  0.6029380000000  0.4661310000000  0.5397490000000 1.0
C      1  0.4617020000000  0.4703480000000  0.4190670000000 1.0
C      1  0.6209290000000  0.5274250000000  0.5866990000000 1.0
C      1  0.5338440000000  0.5157920000000  0.3659220000000 1.0
C      1  0.3703330000000  0.5248500000000  0.5483440000000 1.0
C      1  0.4629700000000  0.4496330000000  0.3740830000000 1.0
C      1  0.4083140000000  0.4497750000000  0.5943660000000 1.0
C      1  0.6381110000000  0.4360670000000  0.5516920000000 1.0
C      1  0.3436890000000  0.4573890000000  0.5166550000000 1.0
C      1  0.5890550000000  0.4504600000000  0.6309240000000 1.0
C      1  0.5679330000000  0.4474870000000  0.3608980000000 1.0
C      1  0.3617500000000  0.4760490000000  0.4753180000000 1.0
C      1  0.5418220000000  0.4621730000000  0.6376730000000 1.0
C      1  0.5940910000000  0.4623410000000  0.3988810000000 1.0
C      1  0.5823830000000  0.6475050000000  0.4489760000000 1.0
C      1  0.4021010000000  0.6303080000000  0.4427710000000 1.0
C      1  0.5093240000000  0.6404160000000  0.6004930000000 1.0
C      1  0.6340740000000  0.5738510000000  0.4874770000000 1.0
C      1  0.4229190000000  0.5463450000000  0.3916650000000 1.0
C      1  0.4506350000000  0.5638370000000  0.6141340000000 1.0
C      1  0.5435600000000  0.3454760000000  0.5805460000000 1.0
C      1  0.5355560000000  0.3477540000000  0.4267380000000 1.0
C      1  0.4095830000000  0.3550030000000  0.4960780000000 1.0
C      1  0.4973870000000  0.5986500000000  0.3813160000000 1.0
C      1  0.4050090000000  0.6079110000000  0.5549430000000 1.0
C      1  0.6086810000000  0.6120490000000  0.5567710000000 1.0
C      1  0.3758390000000  0.5927230000000  0.4486040000000 1.0
C      1  0.5248820000000  0.6021120000000  0.6222310000000 1.0
C      1  0.5945990000000  0.6076780000000  0.4248520000000 1.0
C      1  0.5079950000000  0.6412670000000  0.4072660000000 1.0
C      1  0.4216130000000  0.6455150000000  0.5265390000000 1.0
C      1  0.5802120000000  0.6536910000000  0.5568930000000 1.0
C      1  0.5595640000000  0.5743660000000  0.6038940000000 1.0
C      1  0.5654750000000  0.5749010000000  0.4057070000000 1.0
C      1  0.3789660000000  0.5739410000000  0.4913070000000 1.0
C      1  0.5035930000000  0.3995610000000  0.6200450000000 1.0
C      1  0.5915050000000  0.3943560000000  0.4449510000000 1.0
C      1  0.3925820000000  0.4104020000000  0.4436700000000 1.0
C      1  0.4911950000000  0.3418150000000  0.4151670000000 1.0
C      1  0.4334530000000  0.3459040000000  0.5349760000000 1.0
C      1  0.5761290000000  0.3294420000000  0.5535870000000 1.0
C      1  0.4939970000000  0.5007780000000  0.4771700000000 1.0
C      1  0.4911280000000  0.5001730000000  0.5253060000000 1.0
C      1  0.5363450000000  0.4949780000000  0.5018910000000 1.0
C      1  0.3914010000000  0.4833780000000  0.6235480000000 1.0
C      1  0.6688690000000  0.4687240000000  0.5346310000000 1.0
C      1  0.4486810000000  0.4852960000000  0.3481770000000 1.0
C      1  0.4316010000000  0.6299290000000  0.4050960000000 1.0
C      1  0.4634710000000  0.6413730000000  0.5899080000000 1.0
C      1  0.6070260000000  0.6526080000000  0.4898930000000 1.0
C      1  0.4442300000000  0.5228420000000  0.5848070000000 1.0
C      1  0.6148060000000  0.5346340000000  0.5052440000000 1.0
C      1  0.4626230000000  0.5194840000000  0.4114050000000 1.0
C      1  0.5995500000000  0.4940470000000  0.6121480000000 1.0
C      1  0.5557910000000  0.4837590000000  0.3358040000000 1.0
C      1  0.3342170000000  0.4934380000000  0.5429150000000 1.0
C      1  0.5323600000000  0.5668910000000  0.3742240000000 1.0
C      1  0.3761340000000  0.5740410000000  0.5368890000000 1.0
C      1  0.6029820000000  0.5740150000000  0.5863090000000 1.0
C      1  0.4196960000000  0.4627210000000  0.5179690000000 1.0
C      1  0.5607180000000  0.4551820000000  0.5615700000000 1.0
C      1  0.5278420000000  0.4577480000000  0.4243980000000 1.0
C      1  0.6298070000000  0.5075750000000  0.5424630000000 1.0
C      1  0.4852530000000  0.5120060000000  0.3662940000000 1.0
C      1  0.3946710000000  0.5188520000000  0.5899780000000 1.0
C      1  0.4664400000000  0.6587390000000  0.4170550000000 1.0
C      1  0.4587190000000  0.6643520000000  0.5485010000000 1.0
C      1  0.5958380000000  0.6832210000000  0.5228760000000 1.0
C      1  0.4882470000000  0.4100230000000  0.3739610000000 1.0
C      1  0.3972780000000  0.4097860000000  0.5709810000000 1.0
C      1  0.6155100000000  0.3970650000000  0.5631870000000 1.0
C      1  0.4978510000000  0.3401030000000  0.5727150000000 1.0
C      1  0.5446110000000  0.3384070000000  0.4725270000000 1.0
C      1  0.4287490000000  0.3436290000000  0.4554260000000 1.0
C      1  0.5012240000000  0.3229960000000  0.4908060000000 1.0
C      1  0.4708560000000  0.3247010000000  0.4538990000000 1.0
C      1  0.4784120000000  0.3274920000000  0.5324210000000 1.0
C      1  0.3923870000000  0.5523440000000  0.4280440000000 1.0
C      1  0.4957660000000  0.5647580000000  0.6280850000000 1.0
C      1  0.6188640000000  0.5720380000000  0.4438900000000 1.0
C      1  0.5001200000000  0.5762810000000  0.5256780000000 1.0
C      1  0.5368110000000  0.5722150000000  0.4975530000000 1.0
C      1  0.4927380000000  0.5766530000000  0.4790980000000 1.0
C      1  0.5364440000000  0.6591340000000  0.4449470000000 1.0
C      1  0.4226210000000  0.6550250000000  0.4795790000000 1.0
C      1  0.5335810000000  0.6617350000000  0.5647530000000 1.0
C      1  0.4648140000000  0.3761020000000  0.3955320000000 1.0
C      1  0.4284220000000  0.3747160000000  0.5730300000000 1.0
C      1  0.5995800000000  0.3638850000000  0.5312440000000 1.0
C      1  0.5586590000000  0.3849070000000  0.4126730000000 1.0
C      1  0.3874810000000  0.3958580000000  0.4892500000000 1.0
C      1  0.5464940000000  0.3851640000000  0.6060400000000 1.0
C      1  0.6530500000000  0.4511100000000  0.4539210000000 1.0
C      1  0.3795100000000  0.4798040000000  0.3936540000000 1.0
C      1  0.4628690000000  0.4621480000000  0.6641180000000 1.0
C      1  0.4091750000000  0.5033570000000  0.3683130000000 1.0
C      1  0.4256290000000  0.4794130000000  0.6531050000000 1.0
C      1  0.6713480000000  0.4615360000000  0.4900330000000 1.0
C      1  0.4714380000000  0.3720390000000  0.5962090000000 1.0
C      1  0.5843460000000  0.3644360000000  0.4847590000000 1.0
C      1  0.4236760000000  0.3786730000000  0.4231120000000 1.0
C      1  0.4681610000000  0.5391050000000  0.4598910000000 1.0
C      1  0.4895170000000  0.5378200000000  0.5553340000000 1.0
C      1  0.5666720000000  0.5331090000000  0.4880710000000 1.0
C      1  0.4960350000000  0.4284180000000  0.5027270000000 1.0
END
