TITL C-79163-3824-83 -0.469639763402757 27000 -396.110896724883 0 0 58 (C1) n - 1
REM
REM in /rds/project/t2_vol4/rds-t2-cs072/BORA/CARBON/from-Arr/AIRSS/Generating-Clusters/GAP-ML-2020/Higher-Symm/SD-CG/HFTN-CG/Box-30A/DENE
REM
REM
REM
REM
REM
REM ./C.cell (13fc22856271072ba132eecf8fb47ea5)
REM AIRSS Version 0.9.1 bugfix July 2018 build 013d7b7c2542+ Fri, 06 Jul 2018 19:26:36 +0100
REM compiler GCC version 9.3.0
REM options -cpp -mtune=generic -march=x86-64 -g -O0
REM seed 931642589 -422518663 905906915 -814174890 1569656584 1057180740 1491074321 1449859998 -934198147 -1447109481 1591550467 275068902 975428075 2056017738 -210055943 -2073637563 152177253 -1513081058 509605384 2015824810 -1191887017 737601447 764007788 737047284 1053385427 -1955004600 711764396 -1416538116 -1449409397 -1538646899 425359976 -1801377739 792794346
REM
CELL 1.54180   30.00000   30.00000   30.00000   90.00000   90.00000   90.00000
LATT -1
SFAC C  
C      1  0.4711660000000  0.4680710000000  0.5904460000000 1.0
C      1  0.4707630000000  0.4093370000000  0.4957350000000 1.0
C      1  0.4727750000000  0.4738180000000  0.3955900000000 1.0
C      1  0.4810610000000  0.5897130000000  0.4357570000000 1.0
C      1  0.4766540000000  0.5743490000000  0.5543960000000 1.0
C      1  0.3865380000000  0.5184620000000  0.5294930000000 1.0
C      1  0.3804850000000  0.4685410000000  0.5265780000000 1.0
C      1  0.3696130000000  0.4521540000000  0.4805490000000 1.0
C      1  0.3728710000000  0.5206420000000  0.4466080000000 1.0
C      1  0.3855680000000  0.5467230000000  0.4876310000000 1.0
C      1  0.4515420000000  0.6010770000000  0.4743170000000 1.0
C      1  0.4453310000000  0.5503260000000  0.5866100000000 1.0
C      1  0.4400730000000  0.4307270000000  0.5734800000000 1.0
C      1  0.4405190000000  0.4141030000000  0.4552480000000 1.0
C      1  0.4446680000000  0.5160950000000  0.3978820000000 1.0
C      1  0.4018070000000  0.5191890000000  0.4106130000000 1.0
C      1  0.4106770000000  0.5842130000000  0.4819230000000 1.0
C      1  0.4083190000000  0.5331190000000  0.5667000000000 1.0
C      1  0.4002170000000  0.4402840000000  0.5558560000000 1.0
C      1  0.3965020000000  0.4213050000000  0.4587850000000 1.0
C      1  0.4782870000000  0.4605260000000  0.5060520000000 1.0
C      1  0.5098030000000  0.4906020000000  0.4843000000000 1.0
C      1  0.4834130000000  0.5278710000000  0.4843360000000 1.0
C      1  0.4732300000000  0.5305920000000  0.5286300000000 1.0
C      1  0.4705160000000  0.4859330000000  0.5433520000000 1.0
C      1  0.5485240000000  0.4848620000000  0.5967580000000 1.0
C      1  0.5452350000000  0.3995100000000  0.5168550000000 1.0
C      1  0.5481980000000  0.4566840000000  0.4145360000000 1.0
C      1  0.5527500000000  0.5560930000000  0.4250580000000 1.0
C      1  0.5536420000000  0.5866170000000  0.5373840000000 1.0
C      1  0.5161640000000  0.4484450000000  0.5894560000000 1.0
C      1  0.5154110000000  0.3988820000000  0.4779200000000 1.0
C      1  0.5183430000000  0.4871830000000  0.3918670000000 1.0
C      1  0.5264090000000  0.5892320000000  0.4514370000000 1.0
C      1  0.5221350000000  0.5687540000000  0.5712140000000 1.0
C      1  0.5974940000000  0.5766110000000  0.5302270000000 1.0
C      1  0.5928680000000  0.4812600000000  0.5860410000000 1.0
C      1  0.5881340000000  0.4129700000000  0.5105500000000 1.0
C      1  0.5873790000000  0.4777430000000  0.4301560000000 1.0
C      1  0.5890280000000  0.5272410000000  0.4348580000000 1.0
C      1  0.6265500000000  0.5443000000000  0.5133230000000 1.0
C      1  0.6230600000000  0.4783390000000  0.5503220000000 1.0
C      1  0.6179660000000  0.4474960000000  0.5083140000000 1.0
C      1  0.6196770000000  0.4741870000000  0.4678180000000 1.0
C      1  0.6222230000000  0.5224720000000  0.4702170000000 1.0
C      1  0.5205040000000  0.5350630000000  0.3965280000000 1.0
C      1  0.5244730000000  0.6013850000000  0.4995360000000 1.0
C      1  0.5198900000000  0.5267410000000  0.5982230000000 1.0
C      1  0.5147910000000  0.4108960000000  0.5569770000000 1.0
C      1  0.5179200000000  0.4222130000000  0.4345260000000 1.0
C      1  0.4749670000000  0.5169140000000  0.6076220000000 1.0
C      1  0.4698800000000  0.4037800000000  0.5458500000000 1.0
C      1  0.4730360000000  0.4320140000000  0.4218330000000 1.0
C      1  0.4771850000000  0.5533980000000  0.4025860000000 1.0
C      1  0.4802260000000  0.6056070000000  0.5134310000000 1.0
C      1  0.6485590000000  0.5149460000000  0.5421210000000 1.0
C      1  0.5520120000000  0.4958470000000  0.5012240000000 1.0
C      1  0.3471100000000  0.4837770000000  0.4560400000000 1.0
END
