TITL C-79163-3824-92 -0.230191912761279 27000 -86.9629762331026 0 0 14 (C1) n - 1
REM
REM in /rds/project/t2_vol4/rds-t2-cs072/BORA/CARBON/from-Arr/AIRSS/Generating-Clusters/GAP-ML-2020/Higher-Symm/SD-CG/HFTN-CG/Box-30A/DENE
REM
REM
REM
REM
REM
REM ./C.cell (13fc22856271072ba132eecf8fb47ea5)
REM AIRSS Version 0.9.1 bugfix July 2018 build 013d7b7c2542+ Fri, 06 Jul 2018 19:26:36 +0100
REM compiler GCC version 9.3.0
REM options -cpp -mtune=generic -march=x86-64 -g -O0
REM seed -1020606481 1167502676 -923650380 992066373 695379110 1429652500 1804618726 994444007 258804829 1671471805 962222413 -1630491295 -1511932444 -1230503922 24239250 1772306723 1826665606 -762747708 1765670591 -73058015 701889845 1162884262 -99112361 -785351235 500385020 622928992 612162168 -1858530953 -1739366727 855336713 2058093934 1149472510 -770027207
REM
CELL 1.54180   30.00000   30.00000   30.00000   90.00000   90.00000   90.00000
LATT -1
SFAC C  
C      1  0.4913320000000  0.5211800000000  0.4049010000000 1.0
C      1  0.5592280000000  0.4723260000000  0.5319170000000 1.0
C      1  0.5459760000000  0.5102290000000  0.5521890000000 1.0
C      1  0.5679060000000  0.4343620000000  0.5147620000000 1.0
C      1  0.4614330000000  0.5143480000000  0.5598180000000 1.0
C      1  0.4413530000000  0.4919680000000  0.5297150000000 1.0
C      1  0.4534650000000  0.4553410000000  0.4534420000000 1.0
C      1  0.4486760000000  0.4740510000000  0.4909840000000 1.0
C      1  0.5251630000000  0.5651130000000  0.5874690000000 1.0
C      1  0.5032730000000  0.5258330000000  0.5723010000000 1.0
C      1  0.4807790000000  0.4822090000000  0.3872440000000 1.0
C      1  0.4954840000000  0.5503910000000  0.4358520000000 1.0
C      1  0.5636690000000  0.5523260000000  0.5683990000000 1.0
C      1  0.4622640000000  0.4503210000000  0.4110060000000 1.0
END
