TITL C-79163-3824-67 -1.19847310611401 27000 -1351.09234490612 0 0 187 (C1) n - 1
REM
REM in /rds/project/t2_vol4/rds-t2-cs072/BORA/CARBON/from-Arr/AIRSS/Generating-Clusters/GAP-ML-2020/Higher-Symm/SD-CG/HFTN-CG/Box-30A/DENE
REM
REM
REM
REM
REM
REM ./C.cell (13fc22856271072ba132eecf8fb47ea5)
REM AIRSS Version 0.9.1 bugfix July 2018 build 013d7b7c2542+ Fri, 06 Jul 2018 19:26:36 +0100
REM compiler GCC version 9.3.0
REM options -cpp -mtune=generic -march=x86-64 -g -O0
REM seed -996232550 2037613503 1517651059 36629643 -2043441849 -512148189 -1137534258 -222339467 -1465328732 1072999428 -1451012630 903407363 -834560048 2055100945 910119422 658500467 1697396397 -617154188 -1127131373 1478440401 -1093078859 356363830 670293913 973168431 -1452367755 -903381641 -586446008 -1992865228 1938097855 571019185 670120129 -114395333 -2136014332
REM
CELL 1.54180   30.00000   30.00000   30.00000   90.00000   90.00000   90.00000
LATT -1
SFAC C  
C      1  0.3654640000000  0.3487990000000  0.5325350000000 1.0
C      1  0.6042930000000  0.3270540000000  0.5409180000000 1.0
C      1  0.7013060000000  0.5450840000000  0.5267650000000 1.0
C      1  0.5162400000000  0.7031920000000  0.5318600000000 1.0
C      1  0.3107520000000  0.5849810000000  0.5125500000000 1.0
C      1  0.6360750000000  0.4491500000000  0.3961130000000 1.0
C      1  0.5916170000000  0.6125170000000  0.3906430000000 1.0
C      1  0.4240570000000  0.6173290000000  0.3876460000000 1.0
C      1  0.3640270000000  0.4601120000000  0.3858030000000 1.0
C      1  0.4961150000000  0.3545980000000  0.3964450000000 1.0
C      1  0.3720430000000  0.4238240000000  0.4574580000000 1.0
C      1  0.5437480000000  0.3432980000000  0.4620340000000 1.0
C      1  0.6520580000000  0.4917060000000  0.4600670000000 1.0
C      1  0.5571560000000  0.6498150000000  0.4554880000000 1.0
C      1  0.3878120000000  0.5924620000000  0.4531320000000 1.0
C      1  0.5450370000000  0.4940610000000  0.3204360000000 1.0
C      1  0.5199610000000  0.5349790000000  0.3187690000000 1.0
C      1  0.4734010000000  0.5239860000000  0.3170500000000 1.0
C      1  0.4697600000000  0.4761980000000  0.3200000000000 1.0
C      1  0.5136620000000  0.4579190000000  0.3221470000000 1.0
C      1  0.6717330000000  0.4676340000000  0.5382550000000 1.0
C      1  0.5932810000000  0.6595290000000  0.5320440000000 1.0
C      1  0.3793190000000  0.6275120000000  0.5313600000000 1.0
C      1  0.3243050000000  0.4288370000000  0.5246570000000 1.0
C      1  0.5168940000000  0.3196590000000  0.5398250000000 1.0
C      1  0.5006800000000  0.4060530000000  0.5136800000000 1.0
C      1  0.5780750000000  0.4713180000000  0.5078800000000 1.0
C      1  0.5526410000000  0.5767630000000  0.5121110000000 1.0
C      1  0.4534030000000  0.5704110000000  0.5067900000000 1.0
C      1  0.4145600000000  0.4692120000000  0.5107510000000 1.0
C      1  0.5232680000000  0.4186200000000  0.3464640000000 1.0
C      1  0.5864920000000  0.4925740000000  0.3425240000000 1.0
C      1  0.5344960000000  0.5744320000000  0.3400310000000 1.0
C      1  0.4396410000000  0.5514600000000  0.3353390000000 1.0
C      1  0.4344520000000  0.4537020000000  0.3416460000000 1.0
C      1  0.4332250000000  0.3204560000000  0.4997400000000 1.0
C      1  0.6551380000000  0.3769560000000  0.5008000000000 1.0
C      1  0.6633650000000  0.6089620000000  0.4932000000000 1.0
C      1  0.4461450000000  0.6895110000000  0.4928130000000 1.0
C      1  0.3038180000000  0.5097010000000  0.4827430000000 1.0
C      1  0.4814250000000  0.6241080000000  0.4561760000000 1.0
C      1  0.3864230000000  0.5126020000000  0.4505770000000 1.0
C      1  0.4457640000000  0.3911460000000  0.4600720000000 1.0
C      1  0.5898020000000  0.4090510000000  0.4617020000000 1.0
C      1  0.6052390000000  0.5568990000000  0.4571700000000 1.0
C      1  0.6564810000000  0.6129070000000  0.5403870000000 1.0
C      1  0.4386320000000  0.6851980000000  0.5402880000000 1.0
C      1  0.3033970000000  0.5058370000000  0.5302020000000 1.0
C      1  0.4395440000000  0.3194400000000  0.5477290000000 1.0
C      1  0.6581790000000  0.3851580000000  0.5477840000000 1.0
C      1  0.3842060000000  0.4093090000000  0.5698370000000 1.0
C      1  0.5609520000000  0.3419740000000  0.6030580000000 1.0
C      1  0.6379460000000  0.5020680000000  0.5627320000000 1.0
C      1  0.5444950000000  0.6699540000000  0.5946950000000 1.0
C      1  0.3838060000000  0.5812190000000  0.5577450000000 1.0
C      1  0.3261870000000  0.5523990000000  0.4809530000000 1.0
C      1  0.3937040000000  0.3481000000000  0.4953380000000 1.0
C      1  0.6142020000000  0.3491660000000  0.5003750000000 1.0
C      1  0.6734050000000  0.5615880000000  0.4920430000000 1.0
C      1  0.4953760000000  0.6887300000000  0.4922700000000 1.0
C      1  0.6054020000000  0.5163130000000  0.6323180000000 1.0
C      1  0.5113960000000  0.6105330000000  0.6252360000000 1.0
C      1  0.3937680000000  0.5454300000000  0.6267460000000 1.0
C      1  0.4149630000000  0.4312690000000  0.6344910000000 1.0
C      1  0.5579110000000  0.4092210000000  0.6405290000000 1.0
C      1  0.4266730000000  0.4677550000000  0.6607220000000 1.0
C      1  0.5501610000000  0.4506220000000  0.6609460000000 1.0
C      1  0.5726940000000  0.4969700000000  0.6597960000000 1.0
C      1  0.4980320000000  0.5661890000000  0.6248240000000 1.0
C      1  0.4175640000000  0.5179220000000  0.6566700000000 1.0
C      1  0.6342640000000  0.5295620000000  0.4850690000000 1.0
C      1  0.5154790000000  0.6430280000000  0.4830550000000 1.0
C      1  0.3771820000000  0.5521550000000  0.4783970000000 1.0
C      1  0.4044300000000  0.3961120000000  0.4847270000000 1.0
C      1  0.5717500000000  0.3747300000000  0.4889530000000 1.0
C      1  0.5437680000000  0.4975010000000  0.4294080000000 1.0
C      1  0.5605750000000  0.5396550000000  0.4430410000000 1.0
C      1  0.4698970000000  0.5290780000000  0.4256990000000 1.0
C      1  0.4334360000000  0.5022690000000  0.4383630000000 1.0
C      1  0.4693000000000  0.4334900000000  0.4504710000000 1.0
C      1  0.6475950000000  0.4914850000000  0.4133210000000 1.0
C      1  0.5554740000000  0.6370470000000  0.4095630000000 1.0
C      1  0.3904470000000  0.5900190000000  0.4058580000000 1.0
C      1  0.3776110000000  0.4209900000000  0.4086750000000 1.0
C      1  0.5394660000000  0.3543400000000  0.4158190000000 1.0
C      1  0.5127710000000  0.6355160000000  0.3883490000000 1.0
C      1  0.3751610000000  0.5509480000000  0.3836740000000 1.0
C      1  0.4113820000000  0.3928940000000  0.3906790000000 1.0
C      1  0.5743700000000  0.3799500000000  0.3952040000000 1.0
C      1  0.6375180000000  0.5321160000000  0.3908690000000 1.0
C      1  0.4668750000000  0.3098760000000  0.4660750000000 1.0
C      1  0.6690720000000  0.4092040000000  0.4679550000000 1.0
C      1  0.6398280000000  0.6344980000000  0.4603530000000 1.0
C      1  0.4170410000000  0.6706830000000  0.4592180000000 1.0
C      1  0.3083110000000  0.4734240000000  0.4526520000000 1.0
C      1  0.5286820000000  0.3711300000000  0.6235820000000 1.0
C      1  0.6246960000000  0.4826820000000  0.6051090000000 1.0
C      1  0.5559560000000  0.6280710000000  0.6142220000000 1.0
C      1  0.4057410000000  0.5863700000000  0.6017760000000 1.0
C      1  0.3787240000000  0.4423610000000  0.6043900000000 1.0
C      1  0.5286490000000  0.4721330000000  0.5694890000000 1.0
C      1  0.5337440000000  0.5194990000000  0.5677090000000 1.0
C      1  0.4906300000000  0.5446500000000  0.5782930000000 1.0
C      1  0.4574650000000  0.5049870000000  0.5701510000000 1.0
C      1  0.4814780000000  0.4632120000000  0.5703700000000 1.0
C      1  0.5123880000000  0.4697470000000  0.6825230000000 1.0
C      1  0.5335490000000  0.5156620000000  0.6789490000000 1.0
C      1  0.4992450000000  0.5455280000000  0.6668720000000 1.0
C      1  0.4584730000000  0.5254540000000  0.6795960000000 1.0
C      1  0.4670530000000  0.4764570000000  0.6847040000000 1.0
C      1  0.4532560000000  0.5936660000000  0.3551870000000 1.0
C      1  0.3968320000000  0.4800170000000  0.3551680000000 1.0
C      1  0.4873780000000  0.3919740000000  0.3648320000000 1.0
C      1  0.5988540000000  0.4508230000000  0.3642580000000 1.0
C      1  0.5786850000000  0.5760650000000  0.3590900000000 1.0
C      1  0.5572790000000  0.6839640000000  0.5507600000000 1.0
C      1  0.3311240000000  0.6237390000000  0.5226390000000 1.0
C      1  0.3461350000000  0.3918900000000  0.5435890000000 1.0
C      1  0.5594550000000  0.3210420000000  0.5598460000000 1.0
C      1  0.7066930000000  0.5014640000000  0.5358510000000 1.0
C      1  0.6777050000000  0.5745360000000  0.5584830000000 1.0
C      1  0.4797400000000  0.6985060000000  0.5614390000000 1.0
C      1  0.3065090000000  0.5506780000000  0.5469250000000 1.0
C      1  0.3983520000000  0.3350850000000  0.5656420000000 1.0
C      1  0.6314120000000  0.3520450000000  0.5698560000000 1.0
C      1  0.3540200000000  0.5209050000000  0.4122740000000 1.0
C      1  0.4297610000000  0.3628180000000  0.4215640000000 1.0
C      1  0.6100310000000  0.3885760000000  0.4237410000000 1.0
C      1  0.6373920000000  0.5689650000000  0.4193650000000 1.0
C      1  0.4778870000000  0.6496570000000  0.4162510000000 1.0
C      1  0.6031830000000  0.4038370000000  0.6246780000000 1.0
C      1  0.6168540000000  0.5613630000000  0.6137290000000 1.0
C      1  0.4741240000000  0.6395040000000  0.6165630000000 1.0
C      1  0.3569040000000  0.5242230000000  0.6049620000000 1.0
C      1  0.4385140000000  0.3858090000000  0.6224930000000 1.0
C      1  0.3419990000000  0.5565190000000  0.5751490000000 1.0
C      1  0.4041360000000  0.3704440000000  0.5948230000000 1.0
C      1  0.6050050000000  0.3608710000000  0.6069600000000 1.0
C      1  0.6504100000000  0.5482680000000  0.5838580000000 1.0
C      1  0.4962950000000  0.6769740000000  0.5991790000000 1.0
C      1  0.5197460000000  0.6091480000000  0.5267060000000 1.0
C      1  0.4078820000000  0.5505860000000  0.5222330000000 1.0
C      1  0.4196620000000  0.4234900000000  0.5302640000000 1.0
C      1  0.5460260000000  0.4009850000000  0.5298610000000 1.0
C      1  0.6031550000000  0.5128390000000  0.5256940000000 1.0
C      1  0.4205340000000  0.5072160000000  0.5402300000000 1.0
C      1  0.4667190000000  0.4255780000000  0.5435680000000 1.0
C      1  0.5600350000000  0.4439080000000  0.5450780000000 1.0
C      1  0.5664510000000  0.5406610000000  0.5414870000000 1.0
C      1  0.4833840000000  0.5840310000000  0.5431200000000 1.0
C      1  0.4325840000000  0.6573720000000  0.4131790000000 1.0
C      1  0.3282440000000  0.4828050000000  0.4089850000000 1.0
C      1  0.4625180000000  0.3300230000000  0.4212700000000 1.0
C      1  0.6504070000000  0.4109030000000  0.4215080000000 1.0
C      1  0.6325250000000  0.6149550000000  0.4160890000000 1.0
C      1  0.3487370000000  0.4775550000000  0.5934410000000 1.0
C      1  0.4822940000000  0.3637680000000  0.6107480000000 1.0
C      1  0.6329890000000  0.4365500000000  0.6057460000000 1.0
C      1  0.5977450000000  0.6064340000000  0.6024110000000 1.0
C      1  0.4288860000000  0.6283200000000  0.6013420000000 1.0
C      1  0.5000730000000  0.6037590000000  0.3558590000000 1.0
C      1  0.4006100000000  0.5282900000000  0.3511790000000 1.0
C      1  0.4433620000000  0.4104410000000  0.3604700000000 1.0
C      1  0.5672440000000  0.4147990000000  0.3641110000000 1.0
C      1  0.6040580000000  0.5347560000000  0.3578400000000 1.0
C      1  0.5921600000000  0.5926550000000  0.4890020000000 1.0
C      1  0.4429040000000  0.6065350000000  0.4781570000000 1.0
C      1  0.3805610000000  0.4713320000000  0.4769570000000 1.0
C      1  0.4769760000000  0.3690440000000  0.4923810000000 1.0
C      1  0.6090810000000  0.4467170000000  0.4828450000000 1.0
C      1  0.6168180000000  0.6288510000000  0.5612890000000 1.0
C      1  0.4117550000000  0.6525490000000  0.5617780000000 1.0
C      1  0.3219060000000  0.4687750000000  0.5530480000000 1.0
C      1  0.4804280000000  0.3323010000000  0.5688890000000 1.0
C      1  0.6611040000000  0.4275040000000  0.5677330000000 1.0
C      1  0.5968980000000  0.6451760000000  0.4828870000000 1.0
C      1  0.3992710000000  0.6302270000000  0.4811100000000 1.0
C      1  0.3279270000000  0.4367870000000  0.4766840000000 1.0
C      1  0.5077340000000  0.3252620000000  0.4888830000000 1.0
C      1  0.6587190000000  0.4533360000000  0.4881680000000 1.0
C      1  0.5121100000000  0.4306210000000  0.4689320000000 1.0
C      1  0.5346940000000  0.4746870000000  0.4738580000000 1.0
C      1  0.5296720000000  0.5601400000000  0.4711900000000 1.0
C      1  0.4856490000000  0.5421510000000  0.4750030000000 1.0
C      1  0.4512050000000  0.4729490000000  0.4730680000000 1.0
C      1  0.4927700000000  0.4967220000000  0.4894230000000 1.0
C      1  0.5036100000000  0.5031210000000  0.4058330000000 1.0
END
