TITL C-79160-3940-62 -1.30221828874078 27000 -144.802499891859 0 0 23 (C1) n - 1
REM
REM in /rds/project/t2_vol4/rds-t2-cs072/BORA/CARBON/from-Arr/AIRSS/Generating-Clusters/GAP-ML-2020/Higher-Symm/SD-CG/HFTN-CG/Box-30A/DENE
REM
REM
REM
REM
REM
REM ./C.cell (13fc22856271072ba132eecf8fb47ea5)
REM AIRSS Version 0.9.1 bugfix July 2018 build 013d7b7c2542+ Fri, 06 Jul 2018 19:26:36 +0100
REM compiler GCC version 9.3.0
REM options -cpp -mtune=generic -march=x86-64 -g -O0
REM seed 217851308 604087098 126939364 1103705543 32172705 -581221521 -1567767952 56440365 -2121080540 369307785 1495109957 449440941 630810976 961557569 1320085850 -1455049325 -1969813910 1377165112 -188436935 -210717222 1741979884 886714861 -162551947 1000304600 1833138261 -1726871566 84093447 865747740 1184372235 229616852 -542571797 -2096720113 -968808191
REM
CELL 1.54180   30.00000   30.00000   30.00000   90.00000   90.00000   90.00000
LATT -1
SFAC C  
C      1  0.5591950000000  0.4542780000000  0.5509630000000 1.0
C      1  0.4660160000000  0.4421760000000  0.4602430000000 1.0
C      1  0.4365800000000  0.4634940000000  0.5528370000000 1.0
C      1  0.5432650000000  0.4435030000000  0.4565490000000 1.0
C      1  0.5799120000000  0.4260150000000  0.5256920000000 1.0
C      1  0.4369490000000  0.4234010000000  0.4888250000000 1.0
C      1  0.4252720000000  0.4277520000000  0.5302190000000 1.0
C      1  0.5748420000000  0.4248630000000  0.4829490000000 1.0
C      1  0.4182800000000  0.5387560000000  0.5004370000000 1.0
C      1  0.6226560000000  0.5506200000000  0.5251910000000 1.0
C      1  0.5899820000000  0.5391320000000  0.5021560000000 1.0
C      1  0.3852000000000  0.5456630000000  0.5243580000000 1.0
C      1  0.4656240000000  0.4977410000000  0.5487670000000 1.0
C      1  0.5361370000000  0.4918420000000  0.4566900000000 1.0
C      1  0.5415270000000  0.4953710000000  0.5491920000000 1.0
C      1  0.4720620000000  0.4906850000000  0.4591070000000 1.0
C      1  0.5038960000000  0.5083340000000  0.5698720000000 1.0
C      1  0.5027650000000  0.5026320000000  0.4266690000000 1.0
C      1  0.4625890000000  0.5209690000000  0.4979580000000 1.0
C      1  0.5464310000000  0.5209380000000  0.4975270000000 1.0
C      1  0.5040970000000  0.5555380000000  0.4988110000000 1.0
C      1  0.5036140000000  0.5993820000000  0.5018300000000 1.0
C      1  0.5041780000000  0.4216620000000  0.4395200000000 1.0
END
