TITL C-81961-4703-8 0.0380581427206508 125000 -449.896273530895 0 0 65 (C1) n - 1
REM
REM in /rds/project/t2_vol4/rds-t2-cs072/BORA/CARBON/from-Arr/AIRSS/Generating-Clusters/GAP-ML-2020/Higher-Symm/SD-CG/HFTN-CG
REM
REM
REM
REM
REM
REM ./C.cell (b20cbc046b6831c77cfcea5457e17084)
REM AIRSS Version 0.9.1 bugfix July 2018 build 013d7b7c2542+ Fri, 06 Jul 2018 19:26:36 +0100
REM compiler GCC version 9.3.0
REM options -cpp -mtune=generic -march=x86-64 -g -O0
REM seed -2094093522 1144533315 100873309 1480101942 1697224041 -2141631573 -1673813847 -127523447 -1411622686 709475232 1957260448 -124928504 -48289479 -1421690821 2079513406 -1879076000 2054370580 1701122636 262566443 -56207123 -951182999 904861588 155646582 1893801548 56670580 -967306042 1061774986 -459121292 -2104932209 -1740131801 -291386638 959157930 -1996352243
REM
CELL 1.54180   50.00000   50.00000   50.00000   90.00000   90.00000   90.00000
LATT -1
SFAC C  
C      1  0.5344170000000  0.4967780000000  0.5596810000000 1.0
C      1  0.4772300000000  0.4609370000000  0.4402030000000 1.0
C      1  0.4619590000000  0.5574830000000  0.4915850000000 1.0
C      1  0.4952770000000  0.5701890000000  0.5201810000000 1.0
C      1  0.4690010000000  0.5577260000000  0.5192490000000 1.0
C      1  0.4637700000000  0.4624800000000  0.4858900000000 1.0
C      1  0.4540450000000  0.4616740000000  0.4575290000000 1.0
C      1  0.5289320000000  0.4972440000000  0.4639980000000 1.0
C      1  0.5460680000000  0.4969800000000  0.5300170000000 1.0
C      1  0.5741350000000  0.4561800000000  0.4769910000000 1.0
C      1  0.5032680000000  0.4994700000000  0.4221430000000 1.0
C      1  0.5075260000000  0.4370540000000  0.5361230000000 1.0
C      1  0.5057060000000  0.5737410000000  0.4934490000000 1.0
C      1  0.5566220000000  0.4579020000000  0.4982380000000 1.0
C      1  0.5000520000000  0.5256720000000  0.4982960000000 1.0
C      1  0.4884120000000  0.5122720000000  0.5735650000000 1.0
C      1  0.5259700000000  0.4590530000000  0.4965730000000 1.0
C      1  0.4861480000000  0.4441730000000  0.5533740000000 1.0
C      1  0.4397680000000  0.4857620000000  0.4506590000000 1.0
C      1  0.5170830000000  0.5589230000000  0.5352510000000 1.0
C      1  0.4824830000000  0.4377670000000  0.4910170000000 1.0
C      1  0.5057640000000  0.4386060000000  0.5074870000000 1.0
C      1  0.5005820000000  0.4505990000000  0.4524500000000 1.0
C      1  0.5706180000000  0.5212430000000  0.4951100000000 1.0
C      1  0.5582450000000  0.5008030000000  0.4612650000000 1.0
C      1  0.5166390000000  0.5404720000000  0.4489850000000 1.0
C      1  0.4678420000000  0.5317450000000  0.4559870000000 1.0
C      1  0.4968030000000  0.4875420000000  0.5269430000000 1.0
C      1  0.5378620000000  0.5514790000000  0.5169980000000 1.0
C      1  0.4473490000000  0.5119220000000  0.5352060000000 1.0
C      1  0.4613420000000  0.5374770000000  0.5389150000000 1.0
C      1  0.4903880000000  0.5013180000000  0.5040450000000 1.0
C      1  0.5831510000000  0.4964360000000  0.4983890000000 1.0
C      1  0.4210350000000  0.4977380000000  0.4659260000000 1.0
C      1  0.5790110000000  0.4825840000000  0.4715280000000 1.0
C      1  0.4386980000000  0.5008770000000  0.5097190000000 1.0
C      1  0.4805430000000  0.5360260000000  0.5595520000000 1.0
C      1  0.5246340000000  0.4767820000000  0.5214670000000 1.0
C      1  0.5671060000000  0.4808710000000  0.5160760000000 1.0
C      1  0.4753200000000  0.4882090000000  0.5709220000000 1.0
C      1  0.5129040000000  0.4724520000000  0.4714400000000 1.0
C      1  0.5278010000000  0.4550410000000  0.5439920000000 1.0
C      1  0.4493850000000  0.4652350000000  0.5356800000000 1.0
C      1  0.4581430000000  0.5018110000000  0.4366430000000 1.0
C      1  0.4489590000000  0.5375400000000  0.4765490000000 1.0
C      1  0.4457620000000  0.4728980000000  0.5084270000000 1.0
C      1  0.5317290000000  0.5627850000000  0.4913760000000 1.0
C      1  0.4942330000000  0.4664980000000  0.5703860000000 1.0
C      1  0.5626960000000  0.5284920000000  0.4685170000000 1.0
C      1  0.4324630000000  0.5147040000000  0.4852720000000 1.0
C      1  0.4796270000000  0.4859230000000  0.4265130000000 1.0
C      1  0.5465070000000  0.5227850000000  0.5124370000000 1.0
C      1  0.4922450000000  0.4290120000000  0.4666660000000 1.0
C      1  0.5177860000000  0.5131900000000  0.4402260000000 1.0
C      1  0.5367980000000  0.5430060000000  0.4701500000000 1.0
C      1  0.4853960000000  0.4848140000000  0.4797900000000 1.0
C      1  0.4745420000000  0.5043640000000  0.4600900000000 1.0
C      1  0.5168100000000  0.5170080000000  0.5677350000000 1.0
C      1  0.5224720000000  0.4712150000000  0.5664340000000 1.0
C      1  0.4900470000000  0.5496400000000  0.4546000000000 1.0
C      1  0.5088750000000  0.5429740000000  0.5564430000000 1.0
C      1  0.4532490000000  0.4892640000000  0.5517880000000 1.0
C      1  0.5251970000000  0.5180660000000  0.4873600000000 1.0
C      1  0.4850090000000  0.5670570000000  0.4760590000000 1.0
C      1  0.4605640000000  0.4420360000000  0.5444410000000 1.0
END
