TITL C-81866-6518-3 41.8326515426199 125000 -1005.88153825435 0 0 145 (C1) n - 1
REM
REM in /rds/project/t2_vol4/rds-t2-cs072/BORA/CARBON/from-Arr/AIRSS/Generating-Clusters/GAP-ML-2020/Higher-Symm/SD-CG/HFTN-CG
REM
REM
REM
REM
REM
REM ./C.cell (b20cbc046b6831c77cfcea5457e17084)
REM AIRSS Version 0.9.1 bugfix July 2018 build 013d7b7c2542+ Fri, 06 Jul 2018 19:26:36 +0100
REM compiler GCC version 9.3.0
REM options -cpp -mtune=generic -march=x86-64 -g -O0
REM seed 1645963006 -225505644 404482134 1972882785 -129660155 1403705127 1312408480 596468433 -1253031597 -1433079804 1954510613 913069843 1163363626 529539717 -1180444340 1072632370 -510452952 -1194627962 478098114 1700905216 -1837241435 -597932760 637055400 497138312 -1923764187 -298941200 274207013 477887120 -2072985914 -1653018042 -989384640 499374844 -450735513
REM
CELL 1.54180   50.00000   50.00000   50.00000   90.00000   90.00000   90.00000
LATT -1
SFAC C  
C      1  0.5714480000000  0.4222410000000  0.5045300000000 1.0
C      1  0.4282120000000  0.5775590000000  0.4962560000000 1.0
C      1  0.5205340000000  0.4775140000000  0.5367960000000 1.0
C      1  0.4863740000000  0.5185310000000  0.4692040000000 1.0
C      1  0.5486850000000  0.4179140000000  0.4872160000000 1.0
C      1  0.4515910000000  0.5816210000000  0.5129330000000 1.0
C      1  0.4897210000000  0.5351350000000  0.4163910000000 1.0
C      1  0.5098900000000  0.4632450000000  0.5842450000000 1.0
C      1  0.5357850000000  0.4372500000000  0.5438830000000 1.0
C      1  0.4667730000000  0.5568010000000  0.4624540000000 1.0
C      1  0.4634660000000  0.5067290000000  0.5192970000000 1.0
C      1  0.5450220000000  0.4953060000000  0.4790420000000 1.0
C      1  0.4696440000000  0.5211980000000  0.5927520000000 1.0
C      1  0.5312100000000  0.4783350000000  0.4067800000000 1.0
C      1  0.4490870000000  0.5776460000000  0.4507910000000 1.0
C      1  0.5550260000000  0.4195610000000  0.5552560000000 1.0
C      1  0.5289250000000  0.5132330000000  0.4959930000000 1.0
C      1  0.4736920000000  0.4860640000000  0.5013860000000 1.0
C      1  0.4643450000000  0.4274370000000  0.4551920000000 1.0
C      1  0.5361290000000  0.5738210000000  0.5449200000000 1.0
C      1  0.5340920000000  0.5666140000000  0.4235040000000 1.0
C      1  0.4663260000000  0.4323850000000  0.5768990000000 1.0
C      1  0.5437630000000  0.4287100000000  0.5805390000000 1.0
C      1  0.4572460000000  0.5718420000000  0.4225620000000 1.0
C      1  0.5761490000000  0.5476620000000  0.4431940000000 1.0
C      1  0.4248930000000  0.4517290000000  0.5561320000000 1.0
C      1  0.5272700000000  0.5256760000000  0.4533900000000 1.0
C      1  0.4747730000000  0.4735700000000  0.5454580000000 1.0
C      1  0.4817120000000  0.5000330000000  0.6059110000000 1.0
C      1  0.5192880000000  0.4997140000000  0.3937320000000 1.0
C      1  0.5220410000000  0.4152150000000  0.4987320000000 1.0
C      1  0.4786460000000  0.5847750000000  0.5012800000000 1.0
C      1  0.4457040000000  0.4776930000000  0.5858950000000 1.0
C      1  0.5555390000000  0.5216810000000  0.4129890000000 1.0
C      1  0.4519130000000  0.5059910000000  0.5734180000000 1.0
C      1  0.5496000000000  0.4933010000000  0.4251290000000 1.0
C      1  0.4464700000000  0.5643100000000  0.5379610000000 1.0
C      1  0.5539650000000  0.4351950000000  0.4620960000000 1.0
C      1  0.4575330000000  0.4212360000000  0.4822910000000 1.0
C      1  0.5432270000000  0.5789970000000  0.5175050000000 1.0
C      1  0.3953710000000  0.4912860000000  0.4762600000000 1.0
C      1  0.5951680000000  0.5053460000000  0.5203280000000 1.0
C      1  0.4899630000000  0.4359450000000  0.4479120000000 1.0
C      1  0.5106190000000  0.5650920000000  0.5524040000000 1.0
C      1  0.5124420000000  0.4436830000000  0.4950930000000 1.0
C      1  0.4892880000000  0.5565740000000  0.5049630000000 1.0
C      1  0.5505160000000  0.5519720000000  0.5573630000000 1.0
C      1  0.4498790000000  0.4493100000000  0.4432590000000 1.0
C      1  0.4205590000000  0.5492330000000  0.5342460000000 1.0
C      1  0.5801980000000  0.4493490000000  0.4651640000000 1.0
C      1  0.5518060000000  0.4760670000000  0.4979700000000 1.0
C      1  0.4511950000000  0.5251750000000  0.5019980000000 1.0
C      1  0.5729440000000  0.4277800000000  0.5338780000000 1.0
C      1  0.4264660000000  0.5722520000000  0.4675650000000 1.0
C      1  0.5328420000000  0.5374030000000  0.4804010000000 1.0
C      1  0.4699120000000  0.4626010000000  0.5187180000000 1.0
C      1  0.5154020000000  0.4325480000000  0.5854410000000 1.0
C      1  0.4840950000000  0.5659800000000  0.4173880000000 1.0
C      1  0.5845360000000  0.5196930000000  0.5444790000000 1.0
C      1  0.4136900000000  0.4805150000000  0.4562410000000 1.0
C      1  0.4510860000000  0.5370910000000  0.4445200000000 1.0
C      1  0.5433820000000  0.4651930000000  0.5520340000000 1.0
C      1  0.4808720000000  0.5445510000000  0.5796320000000 1.0
C      1  0.5194650000000  0.4557310000000  0.4207550000000 1.0
C      1  0.6008150000000  0.5203880000000  0.4761750000000 1.0
C      1  0.4000030000000  0.4773160000000  0.5196020000000 1.0
C      1  0.4390680000000  0.4465680000000  0.5143600000000 1.0
C      1  0.5623390000000  0.5532420000000  0.4852780000000 1.0
C      1  0.4627100000000  0.5226700000000  0.4171950000000 1.0
C      1  0.5372350000000  0.4762960000000  0.5818420000000 1.0
C      1  0.5283670000000  0.4653770000000  0.5096280000000 1.0
C      1  0.4711400000000  0.5388720000000  0.4869420000000 1.0
C      1  0.5077700000000  0.5790570000000  0.4299100000000 1.0
C      1  0.4921500000000  0.4188190000000  0.5715430000000 1.0
C      1  0.4292020000000  0.5237790000000  0.4565050000000 1.0
C      1  0.5692080000000  0.4761050000000  0.5442910000000 1.0
C      1  0.5706690000000  0.5012330000000  0.5610440000000 1.0
C      1  0.4274670000000  0.4990820000000  0.4397330000000 1.0
C      1  0.4455110000000  0.5460210000000  0.4182500000000 1.0
C      1  0.5546920000000  0.4548890000000  0.5868090000000 1.0
C      1  0.5283520000000  0.5840000000000  0.4911250000000 1.0
C      1  0.4728590000000  0.4157430000000  0.5085690000000 1.0
C      1  0.4098950000000  0.5590750000000  0.5097250000000 1.0
C      1  0.5898510000000  0.4399240000000  0.4906120000000 1.0
C      1  0.5628520000000  0.5597860000000  0.5135050000000 1.0
C      1  0.4377350000000  0.4402380000000  0.4864540000000 1.0
C      1  0.5092700000000  0.4509640000000  0.4652130000000 1.0
C      1  0.4920460000000  0.5489680000000  0.5351870000000 1.0
C      1  0.4354850000000  0.4617390000000  0.4655110000000 1.0
C      1  0.5646910000000  0.5396130000000  0.5354630000000 1.0
C      1  0.6031340000000  0.4911670000000  0.4753140000000 1.0
C      1  0.3983200000000  0.5065450000000  0.5221450000000 1.0
C      1  0.5051760000000  0.4364650000000  0.5406840000000 1.0
C      1  0.4965910000000  0.5614170000000  0.4596810000000 1.0
C      1  0.4998920000000  0.4636550000000  0.5533930000000 1.0
C      1  0.5010010000000  0.5337720000000  0.4475920000000 1.0
C      1  0.4896250000000  0.4408440000000  0.5142440000000 1.0
C      1  0.5125610000000  0.5584700000000  0.4858120000000 1.0
C      1  0.4560900000000  0.4949990000000  0.4286860000000 1.0
C      1  0.5433840000000  0.5057050000000  0.5717380000000 1.0
C      1  0.4995710000000  0.4021420000000  0.5160070000000 1.0
C      1  0.5006640000000  0.5975290000000  0.4838290000000 1.0
C      1  0.5365970000000  0.5416310000000  0.4074060000000 1.0
C      1  0.4637850000000  0.4576530000000  0.5926460000000 1.0
C      1  0.4731140000000  0.4941040000000  0.4553900000000 1.0
C      1  0.5237270000000  0.5062110000000  0.5427650000000 1.0
C      1  0.3927890000000  0.5155250000000  0.4956930000000 1.0
C      1  0.6067400000000  0.4829020000000  0.5022730000000 1.0
C      1  0.5502730000000  0.5761630000000  0.4706540000000 1.0
C      1  0.4510880000000  0.4235930000000  0.5290400000000 1.0
C      1  0.6022320000000  0.5243710000000  0.5024920000000 1.0
C      1  0.3920730000000  0.4712300000000  0.4939460000000 1.0
C      1  0.4689000000000  0.5550690000000  0.5531690000000 1.0
C      1  0.5316480000000  0.4446150000000  0.4466840000000 1.0
C      1  0.5544450000000  0.5678450000000  0.4432930000000 1.0
C      1  0.4468000000000  0.4317930000000  0.5563780000000 1.0
C      1  0.4171760000000  0.4571550000000  0.5298990000000 1.0
C      1  0.5848200000000  0.5427700000000  0.4692170000000 1.0
C      1  0.4908540000000  0.4519330000000  0.4240210000000 1.0
C      1  0.5095050000000  0.5492220000000  0.5767930000000 1.0
C      1  0.5052890000000  0.4818600000000  0.4612600000000 1.0
C      1  0.4962320000000  0.5189640000000  0.5419400000000 1.0
C      1  0.5781630000000  0.4931900000000  0.4349630000000 1.0
C      1  0.4234850000000  0.5056030000000  0.5630360000000 1.0
C      1  0.4547980000000  0.4858090000000  0.4771940000000 1.0
C      1  0.5435430000000  0.5143580000000  0.5225370000000 1.0
C      1  0.4121840000000  0.5220650000000  0.5423150000000 1.0
C      1  0.5895290000000  0.4755830000000  0.4550950000000 1.0
C      1  0.4986420000000  0.4083160000000  0.5456440000000 1.0
C      1  0.5009700000000  0.5907750000000  0.4549690000000 1.0
C      1  0.4122500000000  0.5474290000000  0.4653900000000 1.0
C      1  0.5866260000000  0.4530110000000  0.5350260000000 1.0
C      1  0.5650990000000  0.4922200000000  0.5188840000000 1.0
C      1  0.4374110000000  0.5094150000000  0.4829410000000 1.0
C      1  0.4644070000000  0.4651640000000  0.4239680000000 1.0
C      1  0.5358800000000  0.5358750000000  0.5769770000000 1.0
C      1  0.4223200000000  0.4763750000000  0.5701690000000 1.0
C      1  0.5788950000000  0.5227930000000  0.4289260000000 1.0
C      1  0.4717720000000  0.5027990000000  0.5467370000000 1.0
C      1  0.5314230000000  0.4963170000000  0.4526890000000 1.0
C      1  0.6012120000000  0.4569290000000  0.5102030000000 1.0
C      1  0.3980220000000  0.5423510000000  0.4898900000000 1.0
C      1  0.4870470000000  0.4737640000000  0.6005780000000 1.0
C      1  0.5130290000000  0.5256640000000  0.3996470000000 1.0
C      1  0.5009440000000  0.4983090000000  0.4868410000000 1.0
END
