TITL C-81865-6595-2 0.0078695340590549 125000 -160.986651042618 0 0 25 (C2) n - 1
REM
REM in /rds/project/t2_vol4/rds-t2-cs072/BORA/CARBON/from-Arr/AIRSS/Generating-Clusters/GAP-ML-2020/Higher-Symm/SD-CG/HFTN-CG
REM
REM
REM
REM
REM
REM ./C.cell (b20cbc046b6831c77cfcea5457e17084)
REM AIRSS Version 0.9.1 bugfix July 2018 build 013d7b7c2542+ Fri, 06 Jul 2018 19:26:36 +0100
REM compiler GCC version 9.3.0
REM options -cpp -mtune=generic -march=x86-64 -g -O0
REM seed -1881683617 -1600938397 174912561 -902326682 -1088478630 -1316314753 -1680204638 614180156 -1548016962 214842983 1670567185 -1936006935 -2093101626 -1835444312 -956094342 -796379594 1140887229 -1728654400 -1417306837 1660125965 -475038451 1813933582 1675411214 640657987 -214714813 1758679523 1436597786 1618202363 304268944 1144421250 -1775318039 1234209055 -1322417828
REM
CELL 1.54180   50.00000   50.00000   50.00000   90.00000   90.00000   90.00000
LATT -1
SFAC C  
C      1  0.5445370000000  0.4663310000000  0.5238220000000 1.0
C      1  0.4563810000000  0.4663170000000  0.4758710000000 1.0
C      1  0.4882710000000  0.5533740000000  0.4676310000000 1.0
C      1  0.5126240000000  0.5533800000000  0.5320540000000 1.0
C      1  0.4962850000000  0.4539270000000  0.5222070000000 1.0
C      1  0.5046350000000  0.4539250000000  0.4774880000000 1.0
C      1  0.4874570000000  0.5141090000000  0.5211130000000 1.0
C      1  0.5134480000000  0.5141100000000  0.4785760000000 1.0
C      1  0.5128180000000  0.5412900000000  0.4702110000000 1.0
C      1  0.4880790000000  0.5412900000000  0.5294750000000 1.0
C      1  0.4718030000000  0.5549450000000  0.5123630000000 1.0
C      1  0.5290910000000  0.5549510000000  0.4873220000000 1.0
C      1  0.4578830000000  0.4651110000000  0.5019880000000 1.0
C      1  0.5430340000000  0.4651220000000  0.4977060000000 1.0
C      1  0.5171310000000  0.4720670000000  0.5303460000000 1.0
C      1  0.4837850000000  0.4720600000000  0.4693470000000 1.0
C      1  0.4758120000000  0.5158970000000  0.4936110000000 1.0
C      1  0.5250930000000  0.5159040000000  0.5060780000000 1.0
C      1  0.4730310000000  0.5432800000000  0.4878450000000 1.0
C      1  0.5278660000000  0.5432880000000  0.5118410000000 1.0
C      1  0.4893390000000  0.4992940000000  0.4734160000000 1.0
C      1  0.5115690000000  0.4993000000000  0.5262740000000 1.0
C      1  0.4682510000000  0.4599870000000  0.5252900000000 1.0
C      1  0.5326680000000  0.4599930000000  0.4744040000000 1.0
C      1  0.5004620000000  0.4361740000000  0.4998480000000 1.0
END
