TITL C-81952-5462-7 -135.41617271763 125000 -333.380260261113 0 0 49 (C1) n - 1
REM
REM in /rds/project/t2_vol4/rds-t2-cs072/BORA/CARBON/from-Arr/AIRSS/Generating-Clusters/GAP-ML-2020/Higher-Symm/SD-CG/HFTN-CG
REM
REM
REM
REM
REM
REM ./C.cell (b20cbc046b6831c77cfcea5457e17084)
REM AIRSS Version 0.9.1 bugfix July 2018 build 013d7b7c2542+ Fri, 06 Jul 2018 19:26:36 +0100
REM compiler GCC version 9.3.0
REM options -cpp -mtune=generic -march=x86-64 -g -O0
REM seed 194170077 1045096479 -2078919102 -126878615 -912399257 -977118761 1767520963 -1922538828 239299206 92781522 1139788560 -627940713 489009151 -1354614415 722011434 -1953771028 1920588516 22824071 -862542842 33597310 -728610144 353837404 -235508836 172601792 -758572420 1867263809 -933389990 -672022153 -1574277837 -1783198752 1247122945 -306835552 782734495
REM
CELL 1.54180   50.00000   50.00000   50.00000   90.00000   90.00000   90.00000
LATT -1
SFAC C  
C      1  0.5452570000000  0.4522760000000  0.4726780000000 1.0
C      1  0.5474870000000  0.4508970000000  0.5181310000000 1.0
C      1  0.5140430000000  0.4504830000000  0.5493930000000 1.0
C      1  0.4688250000000  0.4527220000000  0.5431300000000 1.0
C      1  0.4455410000000  0.4542010000000  0.5037620000000 1.0
C      1  0.4621060000000  0.4519290000000  0.4613740000000 1.0
C      1  0.5061150000000  0.4505360000000  0.4490540000000 1.0
C      1  0.4491580000000  0.5062990000000  0.5036240000000 1.0
C      1  0.4641720000000  0.5043470000000  0.4606880000000 1.0
C      1  0.5071120000000  0.5027480000000  0.4453230000000 1.0
C      1  0.5416770000000  0.5055050000000  0.4746410000000 1.0
C      1  0.5485280000000  0.5027440000000  0.5196120000000 1.0
C      1  0.5160160000000  0.5027200000000  0.5505870000000 1.0
C      1  0.4709680000000  0.5051070000000  0.5425660000000 1.0
C      1  0.4786540000000  0.5423360000000  0.4368910000000 1.0
C      1  0.5291980000000  0.5460430000000  0.4534030000000 1.0
C      1  0.5471320000000  0.5481340000000  0.4998400000000 1.0
C      1  0.5445600000000  0.5408640000000  0.5482980000000 1.0
C      1  0.4958670000000  0.5480590000000  0.5479100000000 1.0
C      1  0.4505650000000  0.5461370000000  0.5290860000000 1.0
C      1  0.4615460000000  0.5490020000000  0.4816620000000 1.0
C      1  0.4893190000000  0.4418320000000  0.5582260000000 1.0
C      1  0.4459130000000  0.4448240000000  0.5298430000000 1.0
C      1  0.4416650000000  0.4442420000000  0.4781820000000 1.0
C      1  0.4805410000000  0.4408140000000  0.4441350000000 1.0
C      1  0.5323820000000  0.4417080000000  0.4506950000000 1.0
C      1  0.5591880000000  0.4426480000000  0.4944440000000 1.0
C      1  0.5388870000000  0.4406010000000  0.5423750000000 1.0
C      1  0.5329100000000  0.5588260000000  0.4778530000000 1.0
C      1  0.5433570000000  0.5578210000000  0.5263160000000 1.0
C      1  0.5225730000000  0.5577040000000  0.5457870000000 1.0
C      1  0.4743520000000  0.5597550000000  0.5332760000000 1.0
C      1  0.4613070000000  0.5601710000000  0.5076240000000 1.0
C      1  0.4807580000000  0.5563250000000  0.4610930000000 1.0
C      1  0.5085640000000  0.5619450000000  0.4642080000000 1.0
C      1  0.5325040000000  0.4777650000000  0.5127840000000 1.0
C      1  0.5099820000000  0.4778750000000  0.5342180000000 1.0
C      1  0.4794050000000  0.4791390000000  0.5291920000000 1.0
C      1  0.4635750000000  0.4797580000000  0.5021400000000 1.0
C      1  0.4743060000000  0.4791630000000  0.4728550000000 1.0
C      1  0.5040270000000  0.4780300000000  0.4636210000000 1.0
C      1  0.5293740000000  0.4791540000000  0.4819020000000 1.0
C      1  0.5418200000000  0.5133640000000  0.5451390000000 1.0
C      1  0.4933570000000  0.5197480000000  0.5523540000000 1.0
C      1  0.4494920000000  0.5182320000000  0.5292870000000 1.0
C      1  0.4528390000000  0.5217780000000  0.4801990000000 1.0
C      1  0.4819820000000  0.5158570000000  0.4413290000000 1.0
C      1  0.5299570000000  0.5179730000000  0.4520180000000 1.0
C      1  0.5511310000000  0.5198580000000  0.4972510000000 1.0
END
