TITL C-81944-2524-2 963.756910137172 125000 -884.420787242503 0 0 127 (C1) n - 1
REM
REM in /rds/project/t2_vol4/rds-t2-cs072/BORA/CARBON/from-Arr/AIRSS/Generating-Clusters/GAP-ML-2020/Higher-Symm/SD-CG/HFTN-CG
REM
REM
REM
REM
REM
REM ./C.cell (b20cbc046b6831c77cfcea5457e17084)
REM AIRSS Version 0.9.1 bugfix July 2018 build 013d7b7c2542+ Fri, 06 Jul 2018 19:26:36 +0100
REM compiler GCC version 9.3.0
REM options -cpp -mtune=generic -march=x86-64 -g -O0
REM seed -377138677 1260566518 -376925988 -184288960 -307062047 -1520093080 544830431 1993574614 -1179904198 1661004610 437712543 566103069 -1102797617 1136102906 1701102453 822096306 -1322766440 1168882737 -475165058 -1684771370 -154055600 2046643453 -1475839796 751324638 -1528273618 1121616270 1487090691 -1530742378 -1161608348 -852563266 1914314836 -236704739 -1549652605
REM
CELL 1.54180   50.00000   50.00000   50.00000   90.00000   90.00000   90.00000
LATT -1
SFAC C  
C      1  0.4369110000000  0.5521690000000  0.4450660000000 1.0
C      1  0.5642600000000  0.4483240000000  0.5549880000000 1.0
C      1  0.4240100000000  0.5290500000000  0.5384130000000 1.0
C      1  0.5754560000000  0.4696210000000  0.4612680000000 1.0
C      1  0.5333110000000  0.4789870000000  0.5157570000000 1.0
C      1  0.4720370000000  0.5181860000000  0.4917920000000 1.0
C      1  0.4859080000000  0.5701880000000  0.4905690000000 1.0
C      1  0.5149040000000  0.4302900000000  0.5103470000000 1.0
C      1  0.5056480000000  0.4657190000000  0.5497540000000 1.0
C      1  0.4939650000000  0.5337910000000  0.4519720000000 1.0
C      1  0.5440360000000  0.5805030000000  0.5112870000000 1.0
C      1  0.4568750000000  0.4189470000000  0.4896220000000 1.0
C      1  0.4596750000000  0.5783370000000  0.4762580000000 1.0
C      1  0.5412560000000  0.4220540000000  0.5241660000000 1.0
C      1  0.5517660000000  0.5527420000000  0.5188950000000 1.0
C      1  0.4498080000000  0.4469100000000  0.4824490000000 1.0
C      1  0.4972390000000  0.4003110000000  0.5465300000000 1.0
C      1  0.5038900000000  0.5990190000000  0.4545210000000 1.0
C      1  0.5063330000000  0.4879200000000  0.4550770000000 1.0
C      1  0.4925790000000  0.5104900000000  0.5380560000000 1.0
C      1  0.4862440000000  0.4758200000000  0.5063610000000 1.0
C      1  0.5151760000000  0.5247400000000  0.4976050000000 1.0
C      1  0.4217530000000  0.5516090000000  0.4925460000000 1.0
C      1  0.5799170000000  0.4472960000000  0.5073230000000 1.0
C      1  0.4681090000000  0.5705050000000  0.5156660000000 1.0
C      1  0.5324500000000  0.4298740000000  0.4849390000000 1.0
C      1  0.4059640000000  0.5071220000000  0.5099970000000 1.0
C      1  0.5944090000000  0.4922260000000  0.4901390000000 1.0
C      1  0.5379500000000  0.4896940000000  0.4124240000000 1.0
C      1  0.4610620000000  0.5097290000000  0.5872740000000 1.0
C      1  0.5714650000000  0.5429300000000  0.4978350000000 1.0
C      1  0.4284190000000  0.4547890000000  0.5034650000000 1.0
C      1  0.4551180000000  0.4366170000000  0.4262000000000 1.0
C      1  0.5435320000000  0.5640630000000  0.5739890000000 1.0
C      1  0.4644360000000  0.5039860000000  0.5428690000000 1.0
C      1  0.5332540000000  0.4944310000000  0.4570730000000 1.0
C      1  0.4809210000000  0.5612910000000  0.4365930000000 1.0
C      1  0.5197620000000  0.4384260000000  0.5639820000000 1.0
C      1  0.4720440000000  0.4388760000000  0.5610080000000 1.0
C      1  0.5283940000000  0.5601450000000  0.4404250000000 1.0
C      1  0.5613400000000  0.5431910000000  0.5664510000000 1.0
C      1  0.4376870000000  0.4577920000000  0.4341230000000 1.0
C      1  0.5416420000000  0.5118650000000  0.4333460000000 1.0
C      1  0.4578240000000  0.4873450000000  0.5671120000000 1.0
C      1  0.5932620000000  0.5026410000000  0.5172410000000 1.0
C      1  0.4171290000000  0.4973700000000  0.4843800000000 1.0
C      1  0.5858540000000  0.5302960000000  0.5195150000000 1.0
C      1  0.4155450000000  0.4683620000000  0.4816140000000 1.0
C      1  0.4984110000000  0.4606070000000  0.4570010000000 1.0
C      1  0.5011430000000  0.5384230000000  0.5440660000000 1.0
C      1  0.5352110000000  0.5805360000000  0.4841150000000 1.0
C      1  0.4656000000000  0.4186060000000  0.5170020000000 1.0
C      1  0.4293680000000  0.4542650000000  0.4608670000000 1.0
C      1  0.5719600000000  0.5451540000000  0.5400350000000 1.0
C      1  0.5143090000000  0.4951310000000  0.5516430000000 1.0
C      1  0.4834950000000  0.5053110000000  0.4496320000000 1.0
C      1  0.4802000000000  0.4414630000000  0.4131270000000 1.0
C      1  0.5183350000000  0.5589210000000  0.5866480000000 1.0
C      1  0.4918340000000  0.4663300000000  0.4228260000000 1.0
C      1  0.5062850000000  0.5341140000000  0.5767210000000 1.0
C      1  0.5470290000000  0.4642430000000  0.4220580000000 1.0
C      1  0.4516730000000  0.5351030000000  0.5775650000000 1.0
C      1  0.5480400000000  0.4660420000000  0.4517810000000 1.0
C      1  0.4514350000000  0.5328340000000  0.5479610000000 1.0
C      1  0.5087530000000  0.4612200000000  0.5195150000000 1.0
C      1  0.4926910000000  0.5395990000000  0.4814530000000 1.0
C      1  0.4776890000000  0.5734870000000  0.5666800000000 1.0
C      1  0.5207260000000  0.4262220000000  0.4336310000000 1.0
C      1  0.4672630000000  0.4954450000000  0.4720170000000 1.0
C      1  0.5368240000000  0.5013760000000  0.5343480000000 1.0
C      1  0.5051520000000  0.5768880000000  0.4389170000000 1.0
C      1  0.4957120000000  0.4226090000000  0.5618820000000 1.0
C      1  0.5265410000000  0.5336270000000  0.5243290000000 1.0
C      1  0.4766660000000  0.4665320000000  0.4784460000000 1.0
C      1  0.5539610000000  0.5167820000000  0.5742180000000 1.0
C      1  0.4436820000000  0.4846730000000  0.4246710000000 1.0
C      1  0.5880300000000  0.4639800000000  0.4866620000000 1.0
C      1  0.4124800000000  0.5353390000000  0.5129840000000 1.0
C      1  0.5855180000000  0.4856770000000  0.5392960000000 1.0
C      1  0.4165220000000  0.5145360000000  0.4591640000000 1.0
C      1  0.5199610000000  0.5340320000000  0.4311370000000 1.0
C      1  0.4800670000000  0.4653670000000  0.5699780000000 1.0
C      1  0.5592660000000  0.5373810000000  0.4718310000000 1.0
C      1  0.4399190000000  0.4605480000000  0.5298010000000 1.0
C      1  0.4200700000000  0.5415910000000  0.4654020000000 1.0
C      1  0.5820480000000  0.4580530000000  0.5345380000000 1.0
C      1  0.5047500000000  0.5801970000000  0.5721760000000 1.0
C      1  0.4936140000000  0.4201270000000  0.4279330000000 1.0
C      1  0.5568950000000  0.4300990000000  0.5018810000000 1.0
C      1  0.4440670000000  0.5692960000000  0.4981580000000 1.0
C      1  0.4934620000000  0.4120280000000  0.5213510000000 1.0
C      1  0.5076100000000  0.5878810000000  0.4799310000000 1.0
C      1  0.5438820000000  0.4299300000000  0.5500100000000 1.0
C      1  0.4571860000000  0.5704920000000  0.4502950000000 1.0
C      1  0.4305810000000  0.4803200000000  0.5509390000000 1.0
C      1  0.5687820000000  0.5185230000000  0.4497460000000 1.0
C      1  0.4908490000000  0.5038530000000  0.4029880000000 1.0
C      1  0.5079000000000  0.4969620000000  0.5979630000000 1.0
C      1  0.4555310000000  0.4366900000000  0.5374650000000 1.0
C      1  0.5445650000000  0.5616520000000  0.4641010000000 1.0
C      1  0.5108510000000  0.4843410000000  0.4055830000000 1.0
C      1  0.4876200000000  0.5162900000000  0.5942400000000 1.0
C      1  0.5299080000000  0.5858840000000  0.5581100000000 1.0
C      1  0.4685090000000  0.4149480000000  0.4421100000000 1.0
C      1  0.5276180000000  0.4582770000000  0.5830010000000 1.0
C      1  0.4723760000000  0.5430060000000  0.4159490000000 1.0
C      1  0.5257030000000  0.4431640000000  0.4596800000000 1.0
C      1  0.4739460000000  0.5562560000000  0.5407270000000 1.0
C      1  0.5346110000000  0.4409300000000  0.4148060000000 1.0
C      1  0.4636950000000  0.5587210000000  0.5850330000000 1.0
C      1  0.4726700000000  0.4899050000000  0.4228060000000 1.0
C      1  0.5249300000000  0.5108660000000  0.5775910000000 1.0
C      1  0.4168190000000  0.5010060000000  0.5367100000000 1.0
C      1  0.5828890000000  0.4978240000000  0.4632530000000 1.0
C      1  0.5536040000000  0.4685310000000  0.5718370000000 1.0
C      1  0.4458180000000  0.5331510000000  0.4259720000000 1.0
C      1  0.4973080000000  0.5299720000000  0.4084570000000 1.0
C      1  0.5026280000000  0.4703850000000  0.5925570000000 1.0
C      1  0.4314310000000  0.5091220000000  0.4338170000000 1.0
C      1  0.5628810000000  0.4935270000000  0.5586980000000 1.0
C      1  0.5372760000000  0.5117530000000  0.4817850000000 1.0
C      1  0.4588230000000  0.4843400000000  0.5192080000000 1.0
C      1  0.4486810000000  0.5010750000000  0.4960320000000 1.0
C      1  0.5476530000000  0.4897610000000  0.4963560000000 1.0
C      1  0.5370590000000  0.5948460000000  0.5334860000000 1.0
C      1  0.4624830000000  0.4050250000000  0.4667760000000 1.0
C      1  0.4935730000000  0.5057060000000  0.5083750000000 1.0
END
