TITL C-81952-5462-4 -96.2780823979203 125000 -706.077264775693 0 0 100 (Cs) n - 1
REM
REM in /rds/project/t2_vol4/rds-t2-cs072/BORA/CARBON/from-Arr/AIRSS/Generating-Clusters/GAP-ML-2020/Higher-Symm/SD-CG/HFTN-CG
REM
REM
REM
REM
REM
REM ./C.cell (b20cbc046b6831c77cfcea5457e17084)
REM AIRSS Version 0.9.1 bugfix July 2018 build 013d7b7c2542+ Fri, 06 Jul 2018 19:26:36 +0100
REM compiler GCC version 9.3.0
REM options -cpp -mtune=generic -march=x86-64 -g -O0
REM seed 539175932 259450448 -1125826837 -147420500 711266021 1812424696 -573646729 -1725783855 1458951255 -680633677 -1446536960 465559225 2000138841 1280333834 -1805947425 -1310071372 1619824005 1364913580 -1401995506 -2063952549 -1640098861 833497584 53667888 2120932316 -757453084 1290680584 1561582659 -547815670 -1532359785 979059382 -1523064581 1435106671 -674513050
REM
CELL 1.54180   50.00000   50.00000   50.00000   90.00000   90.00000   90.00000
LATT -1
SFAC C  
C      1  0.4174300000000  0.4929860000000  0.5182120000000 1.0
C      1  0.4408150000000  0.5633850000000  0.5186690000000 1.0
C      1  0.5120760000000  0.5864730000000  0.5180150000000 1.0
C      1  0.5710590000000  0.5390850000000  0.5177570000000 1.0
C      1  0.5788230000000  0.4664680000000  0.5103140000000 1.0
C      1  0.5289470000000  0.4171930000000  0.5099530000000 1.0
C      1  0.4592790000000  0.4312140000000  0.5149580000000 1.0
C      1  0.4682990000000  0.4889460000000  0.4197770000000 1.0
C      1  0.4723780000000  0.5164820000000  0.4238970000000 1.0
C      1  0.4955770000000  0.5319910000000  0.4239010000000 1.0
C      1  0.5225830000000  0.5252350000000  0.4197870000000 1.0
C      1  0.5326660000000  0.4986700000000  0.4167200000000 1.0
C      1  0.5174020000000  0.4742400000000  0.4157390000000 1.0
C      1  0.4889930000000  0.4694740000000  0.4167110000000 1.0
C      1  0.4630250000000  0.4256360000000  0.4869380000000 1.0
C      1  0.4166410000000  0.4826940000000  0.4913300000000 1.0
C      1  0.4366380000000  0.5535760000000  0.4907380000000 1.0
C      1  0.5040100000000  0.5861250000000  0.4909170000000 1.0
C      1  0.5677070000000  0.5490470000000  0.4909690000000 1.0
C      1  0.5813590000000  0.4768930000000  0.4836450000000 1.0
C      1  0.5362920000000  0.4200340000000  0.4820130000000 1.0
C      1  0.4642760000000  0.5790690000000  0.5186740000000 1.0
C      1  0.5382680000000  0.5737670000000  0.5182360000000 1.0
C      1  0.5793510000000  0.5114840000000  0.5149820000000 1.0
C      1  0.5656780000000  0.4417470000000  0.5099600000000 1.0
C      1  0.5010790000000  0.4144950000000  0.5102990000000 1.0
C      1  0.4369430000000  0.4494270000000  0.5177310000000 1.0
C      1  0.4157010000000  0.5220460000000  0.5179960000000 1.0
C      1  0.5501810000000  0.5523580000000  0.5354150000000 1.0
C      1  0.5729380000000  0.4868150000000  0.5286300000000 1.0
C      1  0.5447000000000  0.4333720000000  0.5283850000000 1.0
C      1  0.4845220000000  0.4277080000000  0.5286130000000 1.0
C      1  0.4326540000000  0.4737910000000  0.5353920000000 1.0
C      1  0.4357280000000  0.5387110000000  0.5341820000000 1.0
C      1  0.4890170000000  0.5743350000000  0.5341920000000 1.0
C      1  0.5475160000000  0.5228610000000  0.5755680000000 1.0
C      1  0.5463350000000  0.4740020000000  0.5905820000000 1.0
C      1  0.5065140000000  0.4473820000000  0.5905740000000 1.0
C      1  0.4609180000000  0.4649700000000  0.5755510000000 1.0
C      1  0.4389570000000  0.5084770000000  0.5671290000000 1.0
C      1  0.4647330000000  0.5529810000000  0.5709150000000 1.0
C      1  0.5157100000000  0.5597870000000  0.5671450000000 1.0
C      1  0.4932070000000  0.4740120000000  0.5257690000000 1.0
C      1  0.4712800000000  0.4803150000000  0.5076390000000 1.0
C      1  0.4590240000000  0.5335050000000  0.4959280000000 1.0
C      1  0.4849320000000  0.5508250000000  0.4959330000000 1.0
C      1  0.5293940000000  0.5191640000000  0.5076500000000 1.0
C      1  0.5268310000000  0.4964910000000  0.5257750000000 1.0
C      1  0.5181940000000  0.4730280000000  0.5099350000000 1.0
C      1  0.4854640000000  0.4530800000000  0.5730860000000 1.0
C      1  0.4412420000000  0.4807800000000  0.5637620000000 1.0
C      1  0.4436230000000  0.5355910000000  0.5637250000000 1.0
C      1  0.4888730000000  0.5658420000000  0.5637340000000 1.0
C      1  0.5404320000000  0.5470890000000  0.5637820000000 1.0
C      1  0.5491210000000  0.4956350000000  0.5730980000000 1.0
C      1  0.5315910000000  0.4529670000000  0.5803720000000 1.0
C      1  0.4532360000000  0.5702080000000  0.4709990000000 1.0
C      1  0.5262300000000  0.5770470000000  0.4734370000000 1.0
C      1  0.5749820000000  0.5283820000000  0.4706040000000 1.0
C      1  0.5697780000000  0.4579750000000  0.4648540000000 1.0
C      1  0.5123970000000  0.4196150000000  0.4648420000000 1.0
C      1  0.4453470000000  0.4417200000000  0.4705780000000 1.0
C      1  0.4190130000000  0.5053720000000  0.4734160000000 1.0
C      1  0.4764960000000  0.4914690000000  0.4830520000000 1.0
C      1  0.4702440000000  0.5177650000000  0.4738780000000 1.0
C      1  0.4951940000000  0.5344440000000  0.4738830000000 1.0
C      1  0.5171000000000  0.5186130000000  0.4830600000000 1.0
C      1  0.5195540000000  0.4959600000000  0.4679330000000 1.0
C      1  0.5184140000000  0.4727070000000  0.4829370000000 1.0
C      1  0.4964950000000  0.4805450000000  0.4679280000000 1.0
C      1  0.4749450000000  0.5791840000000  0.4907460000000 1.0
C      1  0.5480880000000  0.5705670000000  0.4913560000000 1.0
C      1  0.5830820000000  0.5058950000000  0.4869610000000 1.0
C      1  0.5602520000000  0.4360520000000  0.4820180000000 1.0
C      1  0.4904840000000  0.4161430000000  0.4836270000000 1.0
C      1  0.4290260000000  0.4563380000000  0.4909420000000 1.0
C      1  0.4191130000000  0.5293710000000  0.4909010000000 1.0
C      1  0.5318180000000  0.4526360000000  0.5481880000000 1.0
C      1  0.4980790000000  0.4503520000000  0.5443220000000 1.0
C      1  0.4508060000000  0.4927810000000  0.5222610000000 1.0
C      1  0.4580350000000  0.5205610000000  0.5229180000000 1.0
C      1  0.4972640000000  0.5467860000000  0.5229260000000 1.0
C      1  0.5256980000000  0.5428470000000  0.5222760000000 1.0
C      1  0.5468270000000  0.4829410000000  0.5443310000000 1.0
C      1  0.4937250000000  0.5514670000000  0.4452630000000 1.0
C      1  0.5391510000000  0.5413220000000  0.4364700000000 1.0
C      1  0.5559520000000  0.4957420000000  0.4328010000000 1.0
C      1  0.5307870000000  0.4542130000000  0.4306840000000 1.0
C      1  0.4827930000000  0.4468340000000  0.4327860000000 1.0
C      1  0.4470960000000  0.4797820000000  0.4364520000000 1.0
C      1  0.4550830000000  0.5256350000000  0.4452560000000 1.0
C      1  0.5220020000000  0.5624430000000  0.4487670000000 1.0
C      1  0.5618330000000  0.5236360000000  0.4448860000000 1.0
C      1  0.5566470000000  0.4665220000000  0.4404070000000 1.0
C      1  0.5095250000000  0.4350210000000  0.4403970000000 1.0
C      1  0.4547650000000  0.4520610000000  0.4448650000000 1.0
C      1  0.4341300000000  0.5037010000000  0.4487500000000 1.0
C      1  0.4630990000000  0.5554610000000  0.4493280000000 1.0
C      1  0.5001860000000  0.4999570000000  0.5386800000000 1.0
C      1  0.4852450000000  0.5223090000000  0.5324050000000 1.0
END
