TITL C-81866-6518-1 -0.0699805100051634 125000 -271.672627617919 0 0 41 (C2) n - 1
REM
REM in /rds/project/t2_vol4/rds-t2-cs072/BORA/CARBON/from-Arr/AIRSS/Generating-Clusters/GAP-ML-2020/Higher-Symm/SD-CG/HFTN-CG
REM
REM
REM
REM
REM
REM ./C.cell (b20cbc046b6831c77cfcea5457e17084)
REM AIRSS Version 0.9.1 bugfix July 2018 build 013d7b7c2542+ Fri, 06 Jul 2018 19:26:36 +0100
REM compiler GCC version 9.3.0
REM options -cpp -mtune=generic -march=x86-64 -g -O0
REM seed -389046418 -894352932 -1347674928 -119502416 -921688266 1715172158 -464158485 -360472990 -1979367387 287779889 -1586171913 271508373 600454947 -1103217797 847258783 -1266071035 1622039419 -465193219 22577479 1093501839 1738364753 336840291 -1050820121 -1623877567 1119630617 1302822384 -1528139518 -442064873 -434261838 1762668027 2056515271 -382186578 2100593406
REM
CELL 1.54180   50.00000   50.00000   50.00000   90.00000   90.00000   90.00000
LATT -1
SFAC C  
C      1  0.5312220000000  0.4677310000000  0.5117570000000 1.0
C      1  0.5307760000000  0.5335620000000  0.4889710000000 1.0
C      1  0.4352380000000  0.4858930000000  0.5010230000000 1.0
C      1  0.4350750000000  0.5143140000000  0.5003180000000 1.0
C      1  0.4933870000000  0.5241370000000  0.4468820000000 1.0
C      1  0.4939990000000  0.4767340000000  0.5540850000000 1.0
C      1  0.4854080000000  0.5146370000000  0.4941940000000 1.0
C      1  0.4856100000000  0.4861410000000  0.5068250000000 1.0
C      1  0.4627790000000  0.4551030000000  0.5287510000000 1.0
C      1  0.4620870000000  0.5454130000000  0.4724160000000 1.0
C      1  0.5102260000000  0.5480100000000  0.5382950000000 1.0
C      1  0.5105220000000  0.4530490000000  0.4625650000000 1.0
C      1  0.4816240000000  0.5013840000000  0.5528460000000 1.0
C      1  0.4813010000000  0.4993480000000  0.4481990000000 1.0
C      1  0.5573350000000  0.5278990000000  0.4989150000000 1.0
C      1  0.5576500000000  0.4736950000000  0.5016440000000 1.0
C      1  0.4502050000000  0.4783030000000  0.4783680000000 1.0
C      1  0.4501000000000  0.5220740000000  0.5228770000000 1.0
C      1  0.4541320000000  0.5000690000000  0.5409720000000 1.0
C      1  0.4538730000000  0.5003520000000  0.4602490000000 1.0
C      1  0.4768630000000  0.5331030000000  0.5168970000000 1.0
C      1  0.4771300000000  0.4675780000000  0.4841760000000 1.0
C      1  0.5703550000000  0.5479300000000  0.5145660000000 1.0
C      1  0.5707970000000  0.4538130000000  0.4859080000000 1.0
C      1  0.4899880000000  0.4565630000000  0.5346710000000 1.0
C      1  0.4892720000000  0.5442620000000  0.4663220000000 1.0
C      1  0.5341740000000  0.4428070000000  0.4538500000000 1.0
C      1  0.5338160000000  0.5585200000000  0.5468590000000 1.0
C      1  0.4447100000000  0.5242700000000  0.4735230000000 1.0
C      1  0.4451570000000  0.4760480000000  0.5277560000000 1.0
C      1  0.5153200000000  0.4891400000000  0.5080140000000 1.0
C      1  0.5151420000000  0.5119750000000  0.4928150000000 1.0
C      1  0.4971830000000  0.4458120000000  0.4890990000000 1.0
C      1  0.4966370000000  0.5550950000000  0.5118480000000 1.0
C      1  0.5556020000000  0.5592500000000  0.5326010000000 1.0
C      1  0.5560580000000  0.4423250000000  0.4679680000000 1.0
C      1  0.5103650000000  0.4479840000000  0.5141360000000 1.0
C      1  0.5096810000000  0.5530720000000  0.4867260000000 1.0
C      1  0.4919860000000  0.4743970000000  0.4587120000000 1.0
C      1  0.4919580000000  0.5264540000000  0.5422660000000 1.0
C      1  0.5604910000000  0.5008140000000  0.5002700000000 1.0
END
