TITL C-81873-6629-8 -0.0275957944789919 125000 -84.0616545313762 0 0 14 (C2) n - 1
REM
REM in /rds/project/t2_vol4/rds-t2-cs072/BORA/CARBON/from-Arr/AIRSS/Generating-Clusters/GAP-ML-2020/Higher-Symm/SD-CG/HFTN-CG
REM
REM
REM
REM
REM
REM ./C.cell (b20cbc046b6831c77cfcea5457e17084)
REM AIRSS Version 0.9.1 bugfix July 2018 build 013d7b7c2542+ Fri, 06 Jul 2018 19:26:36 +0100
REM compiler GCC version 9.3.0
REM options -cpp -mtune=generic -march=x86-64 -g -O0
REM seed 1847622213 -1271635275 2137385737 728618352 -1081456477 797626491 1578898797 1780892493 625837395 1576442839 -44592890 1339691017 742748801 611599525 1679963311 -2087471083 541793032 1257879777 884523087 110473193 1313148803 166442230 1989238349 -353379559 -1102302157 -1450578231 -1741882755 1027316689 -544366569 -907841455 -466379211 591534299 425005124
REM
CELL 1.54180   50.00000   50.00000   50.00000   90.00000   90.00000   90.00000
LATT -1
SFAC C  
C      1  0.4747410000000  0.4861010000000  0.5190730000000 1.0
C      1  0.4817480000000  0.5147500000000  0.4712670000000 1.0
C      1  0.5276610000000  0.4882620000000  0.4791770000000 1.0
C      1  0.5211920000000  0.5102920000000  0.5304420000000 1.0
C      1  0.5170140000000  0.5308790000000  0.5473590000000 1.0
C      1  0.5111630000000  0.4666440000000  0.4717000000000 1.0
C      1  0.4863850000000  0.5373510000000  0.4572980000000 1.0
C      1  0.4907660000000  0.4633240000000  0.5235200000000 1.0
C      1  0.4519070000000  0.5001960000000  0.5115530000000 1.0
C      1  0.4628430000000  0.5118830000000  0.4912890000000 1.0
C      1  0.5507760000000  0.5007180000000  0.4885090000000 1.0
C      1  0.5400610000000  0.5097730000000  0.5101900000000 1.0
C      1  0.5000030000000  0.4917410000000  0.4727270000000 1.0
C      1  0.5024560000000  0.4880860000000  0.5258960000000 1.0
END
