TITL C-81873-6629-1 -0.074983068082453 125000 -115.999665397889 0 0 18 (D3h) n - 1
REM
REM in /rds/project/t2_vol4/rds-t2-cs072/BORA/CARBON/from-Arr/AIRSS/Generating-Clusters/GAP-ML-2020/Higher-Symm/SD-CG/HFTN-CG
REM
REM
REM
REM
REM
REM ./C.cell (b20cbc046b6831c77cfcea5457e17084)
REM AIRSS Version 0.9.1 bugfix July 2018 build 013d7b7c2542+ Fri, 06 Jul 2018 19:26:36 +0100
REM compiler GCC version 9.3.0
REM options -cpp -mtune=generic -march=x86-64 -g -O0
REM seed -935836928 828719091 -761955160 -847905338 974425889 484865845 590462720 1931027860 -1269368 -1039669244 1606961585 -493597640 1049494018 1644380935 1525051428 370667817 1356675515 1204504048 1390300412 -1942247718 -1864898695 -48368045 -1786142906 -783259295 1581007114 191264747 -1310230521 -682137792 105855900 -265432696 -245969607 -1104245068 1786158663
REM
CELL 1.54180   50.00000   50.00000   50.00000   90.00000   90.00000   90.00000
LATT -1
SFAC C  
C      1  0.4658260000000  0.4742050000000  0.4859970000000 1.0
C      1  0.4903610000000  0.4586050000000  0.4850700000000 1.0
C      1  0.5191820000000  0.4624370000000  0.4841760000000 1.0
C      1  0.5388050000000  0.4839060000000  0.4837350000000 1.0
C      1  0.5400460000000  0.5129670000000  0.4839530000000 1.0
C      1  0.5223260000000  0.5360230000000  0.4847270000000 1.0
C      1  0.4939360000000  0.5422850000000  0.4856960000000 1.0
C      1  0.4681590000000  0.5288220000000  0.4864060000000 1.0
C      1  0.4570580000000  0.5019360000000  0.4865250000000 1.0
C      1  0.4913170000000  0.4583420000000  0.5147840000000 1.0
C      1  0.5201380000000  0.4621730000000  0.5138900000000 1.0
C      1  0.5397600000000  0.4836420000000  0.5134490000000 1.0
C      1  0.5410020000000  0.5127040000000  0.5136670000000 1.0
C      1  0.5232820000000  0.5357590000000  0.5144410000000 1.0
C      1  0.4948920000000  0.5420210000000  0.5154100000000 1.0
C      1  0.4691150000000  0.5285590000000  0.5161200000000 1.0
C      1  0.4580140000000  0.5016720000000  0.5162390000000 1.0
C      1  0.4667820000000  0.4739410000000  0.5157110000000 1.0
END
