TITL C-81872-6535-7 -0.104350932756673 125000 -408.412909959448 0 0 56 (O) n - 1
REM
REM in /rds/project/t2_vol4/rds-t2-cs072/BORA/CARBON/from-Arr/AIRSS/Generating-Clusters/GAP-ML-2020/Higher-Symm/SD-CG/HFTN-CG
REM
REM
REM
REM
REM
REM ./C.cell (b20cbc046b6831c77cfcea5457e17084)
REM AIRSS Version 0.9.1 bugfix July 2018 build 013d7b7c2542+ Fri, 06 Jul 2018 19:26:36 +0100
REM compiler GCC version 9.3.0
REM options -cpp -mtune=generic -march=x86-64 -g -O0
REM seed 1358712843 1549138790 849269419 -662224515 1077124138 1360281888 2146554925 -610105206 1034581035 -2138233302 792285019 337242101 279214304 -1189064611 1825278124 -2105991465 -1864385172 -1024367836 1537305959 -169526802 -440619975 -1951649715 -1662192595 631462086 -1199638601 1231246437 1768880760 -775405203 -993126581 1879386622 339867854 339114378 286236816
REM
CELL 1.54180   50.00000   50.00000   50.00000   90.00000   90.00000   90.00000
LATT -1
SFAC C  
C      1  0.5134620000000  0.5538820000000  0.5378960000000 1.0
C      1  0.5528230000000  0.5396270000000  0.5106610000000 1.0
C      1  0.5402190000000  0.5140140000000  0.5516420000000 1.0
C      1  0.4893620000000  0.5510230000000  0.4589540000000 1.0
C      1  0.4872380000000  0.4512480000000  0.5424590000000 1.0
C      1  0.5106690000000  0.4472510000000  0.4633650000000 1.0
C      1  0.4494230000000  0.5410710000000  0.4872420000000 1.0
C      1  0.4476420000000  0.4631050000000  0.5144260000000 1.0
C      1  0.5508410000000  0.4596000000000  0.4903460000000 1.0
C      1  0.4607110000000  0.5114310000000  0.4486630000000 1.0
C      1  0.4605830000000  0.4921660000000  0.5529270000000 1.0
C      1  0.5392160000000  0.4857930000000  0.4494420000000 1.0
C      1  0.5385390000000  0.4488170000000  0.5146600000000 1.0
C      1  0.5517170000000  0.4894560000000  0.5405290000000 1.0
C      1  0.5113430000000  0.4633070000000  0.5539640000000 1.0
C      1  0.4593680000000  0.4496810000000  0.4911640000000 1.0
C      1  0.4619270000000  0.5539150000000  0.5104260000000 1.0
C      1  0.5408960000000  0.5509900000000  0.4864240000000 1.0
C      1  0.4480820000000  0.4885030000000  0.4618410000000 1.0
C      1  0.4489830000000  0.5156740000000  0.5398270000000 1.0
C      1  0.5519480000000  0.5097710000000  0.4604780000000 1.0
C      1  0.4871400000000  0.4593980000000  0.4508080000000 1.0
C      1  0.4894590000000  0.5428730000000  0.5506050000000 1.0
C      1  0.5127870000000  0.5378250000000  0.4472970000000 1.0
C      1  0.4788830000000  0.4311160000000  0.4976300000000 1.0
C      1  0.4299500000000  0.4955380000000  0.4815650000000 1.0
C      1  0.4932740000000  0.4783740000000  0.4315830000000 1.0
C      1  0.5181500000000  0.4307100000000  0.5097880000000 1.0
C      1  0.5214300000000  0.5700530000000  0.4914230000000 1.0
C      1  0.4822670000000  0.5715250000000  0.5038320000000 1.0
C      1  0.5701230000000  0.4938840000000  0.5203060000000 1.0
C      1  0.5702490000000  0.5044640000000  0.4805830000000 1.0
C      1  0.4304080000000  0.5095180000000  0.5202200000000 1.0
C      1  0.5061580000000  0.4841490000000  0.5714580000000 1.0
C      1  0.5064980000000  0.5172580000000  0.4298400000000 1.0
C      1  0.4948000000000  0.5236220000000  0.5697940000000 1.0
C      1  0.4956200000000  0.5700860000000  0.4780530000000 1.0
C      1  0.4306200000000  0.5218510000000  0.4938990000000 1.0
C      1  0.4804250000000  0.5044260000000  0.4305070000000 1.0
C      1  0.5080770000000  0.5714920000000  0.5172030000000 1.0
C      1  0.5045790000000  0.4299160000000  0.4840950000000 1.0
C      1  0.4924540000000  0.4319100000000  0.5233240000000 1.0
C      1  0.5706780000000  0.5190300000000  0.5057340000000 1.0
C      1  0.5696930000000  0.4793180000000  0.4951550000000 1.0
C      1  0.4297390000000  0.4832050000000  0.5078860000000 1.0
C      1  0.5202330000000  0.5095560000000  0.5702960000000 1.0
C      1  0.5193470000000  0.4912070000000  0.4309150000000 1.0
C      1  0.4807250000000  0.4982150000000  0.5709550000000 1.0
C      1  0.5379860000000  0.5383030000000  0.5357020000000 1.0
C      1  0.4641290000000  0.5368760000000  0.4624400000000 1.0
C      1  0.4626900000000  0.4665880000000  0.5391320000000 1.0
C      1  0.5359250000000  0.4616370000000  0.4653990000000 1.0
C      1  0.5362360000000  0.4648260000000  0.5388970000000 1.0
C      1  0.4644400000000  0.5400640000000  0.5359370000000 1.0
C      1  0.5376750000000  0.5351140000000  0.4622050000000 1.0
C      1  0.4623790000000  0.4633990000000  0.4656350000000 1.0
END
