TITL C-81869-6540-9 399.05014041995 125000 -597.69355230466 0 0 85 (C1) n - 1
REM
REM in /rds/project/t2_vol4/rds-t2-cs072/BORA/CARBON/from-Arr/AIRSS/Generating-Clusters/GAP-ML-2020/Higher-Symm/SD-CG/HFTN-CG
REM
REM
REM
REM
REM
REM ./C.cell (b20cbc046b6831c77cfcea5457e17084)
REM AIRSS Version 0.9.1 bugfix July 2018 build 013d7b7c2542+ Fri, 06 Jul 2018 19:26:36 +0100
REM compiler GCC version 9.3.0
REM options -cpp -mtune=generic -march=x86-64 -g -O0
REM seed -1327302175 -1797672697 -1219357801 252622015 -298016043 907635765 60263998 -1451845086 1084261738 2130954690 -1341430310 -1267721232 425566342 -1543384806 12174217 -405067695 867118880 -1863863396 -391351389 1427093866 -1149509423 2014453705 -147781184 -717462553 -467888206 -298875772 -1122130428 824327525 -1150144576 -1931571703 -1538939908 1863267421 1943621503
REM
CELL 1.54180   50.00000   50.00000   50.00000   90.00000   90.00000   90.00000
LATT -1
SFAC C  
C      1  0.5473570000000  0.4235380000000  0.4883060000000 1.0
C      1  0.4443460000000  0.5418960000000  0.4739380000000 1.0
C      1  0.4739910000000  0.5719500000000  0.4575810000000 1.0
C      1  0.4687160000000  0.5340460000000  0.5532690000000 1.0
C      1  0.5206420000000  0.4798670000000  0.4833840000000 1.0
C      1  0.4697310000000  0.5014990000000  0.4856150000000 1.0
C      1  0.5386240000000  0.5641370000000  0.5073510000000 1.0
C      1  0.4896820000000  0.4688990000000  0.4205990000000 1.0
C      1  0.5575230000000  0.4386540000000  0.5096400000000 1.0
C      1  0.5349620000000  0.5273210000000  0.4341980000000 1.0
C      1  0.5816860000000  0.4952400000000  0.4751240000000 1.0
C      1  0.4763230000000  0.4707600000000  0.5666530000000 1.0
C      1  0.4475860000000  0.4525840000000  0.4522220000000 1.0
C      1  0.5029670000000  0.4892620000000  0.4613840000000 1.0
C      1  0.5040740000000  0.5104820000000  0.5798400000000 1.0
C      1  0.4373870000000  0.5537720000000  0.5207250000000 1.0
C      1  0.5419240000000  0.4801860000000  0.4361320000000 1.0
C      1  0.4636610000000  0.4598710000000  0.4293830000000 1.0
C      1  0.5414070000000  0.5485470000000  0.4526850000000 1.0
C      1  0.4890240000000  0.5337510000000  0.4443120000000 1.0
C      1  0.5530270000000  0.5058370000000  0.4387930000000 1.0
C      1  0.5630820000000  0.5150090000000  0.5407070000000 1.0
C      1  0.4947490000000  0.4785060000000  0.5221490000000 1.0
C      1  0.4683460000000  0.5235010000000  0.5257880000000 1.0
C      1  0.4964690000000  0.5332220000000  0.5645680000000 1.0
C      1  0.4613830000000  0.5466820000000  0.4513050000000 1.0
C      1  0.4862290000000  0.4430050000000  0.4305560000000 1.0
C      1  0.4090500000000  0.5493930000000  0.5263680000000 1.0
C      1  0.5729950000000  0.5260470000000  0.5153490000000 1.0
C      1  0.5212560000000  0.5441400000000  0.5533490000000 1.0
C      1  0.5662040000000  0.4859670000000  0.5404330000000 1.0
C      1  0.5735050000000  0.4676910000000  0.4727070000000 1.0
C      1  0.4618370000000  0.4321720000000  0.4671280000000 1.0
C      1  0.5609210000000  0.5396820000000  0.4708700000000 1.0
C      1  0.4269100000000  0.5090310000000  0.5389530000000 1.0
C      1  0.4567180000000  0.5598230000000  0.5439900000000 1.0
C      1  0.4957260000000  0.5812900000000  0.4989590000000 1.0
C      1  0.4859830000000  0.4577820000000  0.5435390000000 1.0
C      1  0.5063080000000  0.5192910000000  0.4967340000000 1.0
C      1  0.5104830000000  0.4876810000000  0.4317460000000 1.0
C      1  0.5213280000000  0.5755550000000  0.4875820000000 1.0
C      1  0.4246290000000  0.4943310000000  0.4737120000000 1.0
C      1  0.5203870000000  0.4161100000000  0.4946150000000 1.0
C      1  0.5429000000000  0.5248910000000  0.5584810000000 1.0
C      1  0.4873270000000  0.4321670000000  0.5323290000000 1.0
C      1  0.5750370000000  0.4583180000000  0.5000940000000 1.0
C      1  0.5328910000000  0.5057270000000  0.5761200000000 1.0
C      1  0.5225870000000  0.5677190000000  0.4602910000000 1.0
C      1  0.4983670000000  0.5625890000000  0.4475640000000 1.0
C      1  0.5271370000000  0.5003500000000  0.5013450000000 1.0
C      1  0.4838400000000  0.5050620000000  0.5118840000000 1.0
C      1  0.5850630000000  0.5035770000000  0.5021800000000 1.0
C      1  0.4978930000000  0.4662010000000  0.4958110000000 1.0
C      1  0.4933330000000  0.5155390000000  0.4704080000000 1.0
C      1  0.4609990000000  0.4367420000000  0.5215810000000 1.0
C      1  0.5284970000000  0.4782550000000  0.5707790000000 1.0
C      1  0.4516370000000  0.4324430000000  0.4939220000000 1.0
C      1  0.4395000000000  0.4585050000000  0.5246770000000 1.0
C      1  0.4298660000000  0.4680570000000  0.4707430000000 1.0
C      1  0.5607410000000  0.5470390000000  0.4989270000000 1.0
C      1  0.5091480000000  0.5184390000000  0.4274850000000 1.0
C      1  0.5225650000000  0.5638050000000  0.5322790000000 1.0
C      1  0.5215170000000  0.4881960000000  0.5274190000000 1.0
C      1  0.4481830000000  0.5617940000000  0.4936220000000 1.0
C      1  0.4996160000000  0.4822060000000  0.5764100000000 1.0
C      1  0.5701700000000  0.5148160000000  0.4595430000000 1.0
C      1  0.5139560000000  0.4272050000000  0.5213940000000 1.0
C      1  0.4527210000000  0.4861710000000  0.5635870000000 1.0
C      1  0.4329240000000  0.4541850000000  0.4960670000000 1.0
C      1  0.5807430000000  0.4799630000000  0.5173910000000 1.0
C      1  0.4875340000000  0.4267100000000  0.4544010000000 1.0
C      1  0.5404320000000  0.4694840000000  0.5449160000000 1.0
C      1  0.4706490000000  0.5782320000000  0.4851880000000 1.0
C      1  0.5534910000000  0.4588740000000  0.4532550000000 1.0
C      1  0.4793630000000  0.4755150000000  0.4757770000000 1.0
C      1  0.5406840000000  0.4337120000000  0.4622750000000 1.0
C      1  0.4977250000000  0.5775440000000  0.5271180000000 1.0
C      1  0.5129550000000  0.4217050000000  0.4661460000000 1.0
C      1  0.5379930000000  0.4424690000000  0.5303320000000 1.0
C      1  0.4486010000000  0.5143230000000  0.5616160000000 1.0
C      1  0.4749630000000  0.5795440000000  0.5423480000000 1.0
C      1  0.4340600000000  0.4798830000000  0.5427440000000 1.0
C      1  0.4405560000000  0.5236140000000  0.5167710000000 1.0
C      1  0.4026750000000  0.5254280000000  0.5362220000000 1.0
C      1  0.4400180000000  0.5149910000000  0.4863190000000 1.0
END
