TITL C-81150-2873-7 -93.4084676286204 125000 -572.507832675224 0 0 85 (C1) n - 1
REM
REM in /rds/project/t2_vol4/rds-t2-cs072/BORA/CARBON/from-Arr/AIRSS/Generating-Clusters/GAP-ML-2020/Higher-Symm/SD-CG/HFTN-CG
REM
REM
REM
REM
REM
REM ./C.cell (b20cbc046b6831c77cfcea5457e17084)
REM AIRSS Version 0.9.1 bugfix July 2018 build 013d7b7c2542+ Fri, 06 Jul 2018 19:26:36 +0100
REM compiler GCC version 9.3.0
REM options -cpp -mtune=generic -march=x86-64 -g -O0
REM seed -1073927161 1778850763 800342887 -255404928 1306481250 -1683577839 -632848483 -1441323308 -685941641 990527047 1309635094 -1118241668 830259328 1104926939 642546335 -1890747809 1567218872 776020218 -2084861876 -1442601098 -39830041 -2064417709 -766968888 -1529158521 468199137 -689235273 835924611 -799745684 -793494207 -370360950 -1230049359 -1394508390 -1427033245
REM
CELL 1.54180   50.00000   50.00000   50.00000   90.00000   90.00000   90.00000
LATT -1
SFAC C  
C      1  0.5473420000000  0.5580150000000  0.5230610000000 1.0
C      1  0.5242000000000  0.5354780000000  0.5629310000000 1.0
C      1  0.5630380000000  0.5141590000000  0.5388310000000 1.0
C      1  0.4529820000000  0.5609280000000  0.4683670000000 1.0
C      1  0.5441880000000  0.4427020000000  0.4761020000000 1.0
C      1  0.4504070000000  0.4405540000000  0.5313960000000 1.0
C      1  0.4787120000000  0.5345450000000  0.4345450000000 1.0
C      1  0.5190540000000  0.4649130000000  0.4384760000000 1.0
C      1  0.4779210000000  0.4652970000000  0.5658670000000 1.0
C      1  0.4379800000000  0.5145740000000  0.4572210000000 1.0
C      1  0.5594060000000  0.4863180000000  0.4601010000000 1.0
C      1  0.4406140000000  0.4876780000000  0.5419540000000 1.0
C      1  0.5269210000000  0.5569510000000  0.5427910000000 1.0
C      1  0.5646700000000  0.5349890000000  0.5193200000000 1.0
C      1  0.5429280000000  0.5143210000000  0.5611590000000 1.0
C      1  0.4747010000000  0.5588200000000  0.4498800000000 1.0
C      1  0.4714850000000  0.4407010000000  0.5505120000000 1.0
C      1  0.5222710000000  0.4446020000000  0.4584780000000 1.0
C      1  0.4349260000000  0.5374220000000  0.4737730000000 1.0
C      1  0.4353220000000  0.4651570000000  0.5258830000000 1.0
C      1  0.5622060000000  0.4651960000000  0.4792970000000 1.0
C      1  0.4596980000000  0.5135010000000  0.4375800000000 1.0
C      1  0.4608340000000  0.4880960000000  0.5634490000000 1.0
C      1  0.5384660000000  0.4860840000000  0.4395750000000 1.0
C      1  0.4295560000000  0.4637360000000  0.4535020000000 1.0
C      1  0.4527190000000  0.4287560000000  0.4797760000000 1.0
C      1  0.4720600000000  0.4440410000000  0.4363250000000 1.0
C      1  0.5696640000000  0.4619500000000  0.5487580000000 1.0
C      1  0.4335620000000  0.5362240000000  0.5461740000000 1.0
C      1  0.5692930000000  0.5343610000000  0.4482460000000 1.0
C      1  0.5429460000000  0.4264050000000  0.5247400000000 1.0
C      1  0.4555820000000  0.5725940000000  0.5208960000000 1.0
C      1  0.5468070000000  0.5733060000000  0.4717500000000 1.0
C      1  0.5268160000000  0.4446260000000  0.5682510000000 1.0
C      1  0.4744050000000  0.5547880000000  0.5635800000000 1.0
C      1  0.5280460000000  0.5532320000000  0.4304090000000 1.0
C      1  0.4491090000000  0.4622230000000  0.4327690000000 1.0
C      1  0.4742540000000  0.4301150000000  0.4608980000000 1.0
C      1  0.4296560000000  0.4462670000000  0.4765470000000 1.0
C      1  0.5498110000000  0.4622740000000  0.5692600000000 1.0
C      1  0.5498290000000  0.5340830000000  0.4285050000000 1.0
C      1  0.4521290000000  0.5371560000000  0.5677120000000 1.0
C      1  0.5227870000000  0.4267000000000  0.5454140000000 1.0
C      1  0.5262420000000  0.5730540000000  0.4511450000000 1.0
C      1  0.4766390000000  0.5709630000000  0.5400520000000 1.0
C      1  0.5655440000000  0.4443400000000  0.5254280000000 1.0
C      1  0.5674400000000  0.5535630000000  0.4700930000000 1.0
C      1  0.4329480000000  0.5545350000000  0.5241220000000 1.0
C      1  0.5395590000000  0.4273320000000  0.4982360000000 1.0
C      1  0.5086870000000  0.5296120000000  0.4357850000000 1.0
C      1  0.4407260000000  0.5134250000000  0.5285320000000 1.0
C      1  0.4612160000000  0.4322760000000  0.5063340000000 1.0
C      1  0.5363030000000  0.5658020000000  0.4976840000000 1.0
C      1  0.4646270000000  0.5656580000000  0.4946940000000 1.0
C      1  0.4939190000000  0.5304220000000  0.5637440000000 1.0
C      1  0.5075250000000  0.4680380000000  0.5647450000000 1.0
C      1  0.4917090000000  0.4660860000000  0.4308920000000 1.0
C      1  0.5697990000000  0.5116970000000  0.4667100000000 1.0
C      1  0.4381420000000  0.4873450000000  0.4706120000000 1.0
C      1  0.5670920000000  0.4859110000000  0.5300310000000 1.0
C      1  0.4962610000000  0.4328290000000  0.5372790000000 1.0
C      1  0.4334170000000  0.5335910000000  0.5030270000000 1.0
C      1  0.5313730000000  0.5111710000000  0.4288160000000 1.0
C      1  0.4976330000000  0.4413600000000  0.4723450000000 1.0
C      1  0.5009810000000  0.5596330000000  0.5298880000000 1.0
C      1  0.5002930000000  0.5654540000000  0.4618320000000 1.0
C      1  0.5626740000000  0.5301210000000  0.4895150000000 1.0
C      1  0.5695580000000  0.4665890000000  0.5065800000000 1.0
C      1  0.4361350000000  0.4691980000000  0.4958800000000 1.0
C      1  0.4696560000000  0.5136600000000  0.5713220000000 1.0
C      1  0.4686390000000  0.4854810000000  0.4344590000000 1.0
C      1  0.5326800000000  0.4864300000000  0.5638500000000 1.0
C      1  0.5314920000000  0.5352840000000  0.4887900000000 1.0
C      1  0.4925880000000  0.5303810000000  0.5336490000000 1.0
C      1  0.5368350000000  0.4871640000000  0.5335390000000 1.0
C      1  0.4638940000000  0.5351080000000  0.4982590000000 1.0
C      1  0.5148080000000  0.4802210000000  0.5172170000000 1.0
C      1  0.4652190000000  0.4612900000000  0.4996440000000 1.0
C      1  0.5094810000000  0.5357580000000  0.4665550000000 1.0
C      1  0.5028260000000  0.4621120000000  0.5348680000000 1.0
C      1  0.4671790000000  0.4847380000000  0.4645070000000 1.0
C      1  0.5090380000000  0.5169310000000  0.4886200000000 1.0
C      1  0.4701840000000  0.5197640000000  0.5210660000000 1.0
C      1  0.4863810000000  0.4708400000000  0.4821210000000 1.0
C      1  0.5071510000000  0.4886350000000  0.4923900000000 1.0
END
