TITL C-81962-6709-2 0.0583245949821765 125000 -256.991590796109 0 0 40 (Cs) n - 1
REM
REM in /rds/project/t2_vol4/rds-t2-cs072/BORA/CARBON/from-Arr/AIRSS/Generating-Clusters/GAP-ML-2020/Higher-Symm/SD-CG/HFTN-CG
REM
REM
REM
REM
REM
REM ./C.cell (b20cbc046b6831c77cfcea5457e17084)
REM AIRSS Version 0.9.1 bugfix July 2018 build 013d7b7c2542+ Fri, 06 Jul 2018 19:26:36 +0100
REM compiler GCC version 9.3.0
REM options -cpp -mtune=generic -march=x86-64 -g -O0
REM seed 219773377 2092201685 620376160 -220852019 928208100 212023737 1922142809 954046276 -738391439 -1907269725 115283447 2026060178 -46123590 -167915893 -677893503 1499794684 2050465126 1171727775 -1535396351 881196587 1511377984 1565269340 1849306077 391826906 -489114131 958766948 1821907833 -244818889 -533539703 -391922809 -1254752367 -484993773 957734941
REM
CELL 1.54180   50.00000   50.00000   50.00000   90.00000   90.00000   90.00000
LATT -1
SFAC C  
C      1  0.4609190000000  0.5143920000000  0.4615040000000 1.0
C      1  0.4601250000000  0.4602210000000  0.5065220000000 1.0
C      1  0.4603060000000  0.5253540000000  0.5319270000000 1.0
C      1  0.5378980000000  0.5141570000000  0.4648700000000 1.0
C      1  0.5363690000000  0.4581850000000  0.5074610000000 1.0
C      1  0.5369640000000  0.5253300000000  0.5306890000000 1.0
C      1  0.4609280000000  0.4853390000000  0.4615260000000 1.0
C      1  0.4601000000000  0.5395790000000  0.5064620000000 1.0
C      1  0.4603220000000  0.4744850000000  0.5319660000000 1.0
C      1  0.5379070000000  0.4856280000000  0.4648910000000 1.0
C      1  0.5363430000000  0.5416640000000  0.5073970000000 1.0
C      1  0.5369800000000  0.4745550000000  0.5307270000000 1.0
C      1  0.5187500000000  0.5331410000000  0.4549750000000 1.0
C      1  0.5172190000000  0.4417460000000  0.4948240000000 1.0
C      1  0.5189090000000  0.5230830000000  0.5517760000000 1.0
C      1  0.4859640000000  0.5304510000000  0.4576110000000 1.0
C      1  0.4852800000000  0.4481610000000  0.4946070000000 1.0
C      1  0.4861150000000  0.5210450000000  0.5475250000000 1.0
C      1  0.5187700000000  0.4666170000000  0.4550260000000 1.0
C      1  0.5171820000000  0.5580720000000  0.4947360000000 1.0
C      1  0.5189240000000  0.4768220000000  0.5518110000000 1.0
C      1  0.4859840000000  0.4692910000000  0.4576580000000 1.0
C      1  0.4852480000000  0.5516360000000  0.4945290000000 1.0
C      1  0.4861290000000  0.4788340000000  0.5475570000000 1.0
C      1  0.5480750000000  0.4790350000000  0.4912830000000 1.0
C      1  0.4491180000000  0.4743820000000  0.4848780000000 1.0
C      1  0.5480620000000  0.5207970000000  0.4912510000000 1.0
C      1  0.4491020000000  0.5253780000000  0.4848390000000 1.0
C      1  0.5477310000000  0.4999340000000  0.5150610000000 1.0
C      1  0.4486510000000  0.4999160000000  0.5317280000000 1.0
C      1  0.5170590000000  0.5586070000000  0.4665500000000 1.0
C      1  0.5170960000000  0.4411680000000  0.4666390000000 1.0
C      1  0.4864040000000  0.5588030000000  0.4658040000000 1.0
C      1  0.4864410000000  0.4409510000000  0.4658940000000 1.0
C      1  0.4875570000000  0.4999550000000  0.5680840000000 1.0
C      1  0.5181330000000  0.4999640000000  0.5671040000000 1.0
C      1  0.4948850000000  0.4999250000000  0.5250650000000 1.0
C      1  0.4953350000000  0.4780360000000  0.4874390000000 1.0
C      1  0.4953210000000  0.5217570000000  0.4874050000000 1.0
C      1  0.4848160000000  0.4999030000000  0.4997560000000 1.0
END
