TITL C-81848-6527-3 -0.110536708672559 125000 -506.557536981261 0 0 73 (C1) n - 1
REM
REM in /rds/project/t2_vol4/rds-t2-cs072/BORA/CARBON/from-Arr/AIRSS/Generating-Clusters/GAP-ML-2020/Higher-Symm/SD-CG/HFTN-CG
REM
REM
REM
REM
REM
REM ./C.cell (b20cbc046b6831c77cfcea5457e17084)
REM AIRSS Version 0.9.1 bugfix July 2018 build 013d7b7c2542+ Fri, 06 Jul 2018 19:26:36 +0100
REM compiler GCC version 9.3.0
REM options -cpp -mtune=generic -march=x86-64 -g -O0
REM seed -415533660 1057224347 1446662314 -1428894663 152795807 -92757986 -693908691 279755197 1808037174 720193415 -1719046616 -1710852920 44072063 817437873 141029782 -1168259027 1813733974 -1814319184 300266193 1119021899 -1070773555 -354393957 698890241 1823932699 1263405115 218633401 869200347 -1390882941 1441365309 -1112418369 -26154766 -385038880 -1002868171
REM
CELL 1.54180   50.00000   50.00000   50.00000   90.00000   90.00000   90.00000
LATT -1
SFAC C  
C      1  0.4744060000000  0.5038540000000  0.5703400000000 1.0
C      1  0.4759590000000  0.4403370000000  0.5072140000000 1.0
C      1  0.4633950000000  0.4940480000000  0.4282970000000 1.0
C      1  0.4800750000000  0.5642080000000  0.4991690000000 1.0
C      1  0.5231790000000  0.4944740000000  0.5654600000000 1.0
C      1  0.5309700000000  0.5623330000000  0.5032340000000 1.0
C      1  0.5169080000000  0.5037260000000  0.4311190000000 1.0
C      1  0.5215960000000  0.4318860000000  0.4938530000000 1.0
C      1  0.5311950000000  0.5211550000000  0.5273800000000 1.0
C      1  0.5398710000000  0.4689100000000  0.5226270000000 1.0
C      1  0.5356150000000  0.4745390000000  0.4677730000000 1.0
C      1  0.5317090000000  0.5271390000000  0.4747920000000 1.0
C      1  0.4511620000000  0.4772290000000  0.5412280000000 1.0
C      1  0.4667840000000  0.5289350000000  0.5258740000000 1.0
C      1  0.4783350000000  0.5193010000000  0.4788830000000 1.0
C      1  0.4807740000000  0.4805370000000  0.4827930000000 1.0
C      1  0.5173410000000  0.5333780000000  0.5027890000000 1.0
C      1  0.5237550000000  0.4930300000000  0.5352790000000 1.0
C      1  0.5255460000000  0.4618580000000  0.4953100000000 1.0
C      1  0.5221020000000  0.5020680000000  0.4617710000000 1.0
C      1  0.4940430000000  0.4687560000000  0.5043780000000 1.0
C      1  0.4713040000000  0.5010240000000  0.5397920000000 1.0
C      1  0.4861180000000  0.5345230000000  0.5016190000000 1.0
C      1  0.4944090000000  0.4995030000000  0.4696050000000 1.0
C      1  0.4787260000000  0.4482330000000  0.4393480000000 1.0
C      1  0.4823080000000  0.5596030000000  0.4506570000000 1.0
C      1  0.4775460000000  0.5520610000000  0.5698750000000 1.0
C      1  0.4852500000000  0.4398660000000  0.5523200000000 1.0
C      1  0.5062710000000  0.5495520000000  0.4381300000000 1.0
C      1  0.5055470000000  0.4382690000000  0.4479960000000 1.0
C      1  0.5119700000000  0.4489700000000  0.5598110000000 1.0
C      1  0.5278200000000  0.5642610000000  0.5503600000000 1.0
C      1  0.4333750000000  0.4751580000000  0.4935960000000 1.0
C      1  0.4482120000000  0.4939820000000  0.4516420000000 1.0
C      1  0.4328680000000  0.5253370000000  0.4875830000000 1.0
C      1  0.4277860000000  0.5019980000000  0.5045860000000 1.0
C      1  0.5591890000000  0.5486650000000  0.5034990000000 1.0
C      1  0.5757470000000  0.5059810000000  0.4775160000000 1.0
C      1  0.5790210000000  0.4832350000000  0.4943210000000 1.0
C      1  0.5754550000000  0.5048130000000  0.5272630000000 1.0
C      1  0.4320030000000  0.4765160000000  0.5210050000000 1.0
C      1  0.4521470000000  0.4721150000000  0.4716970000000 1.0
C      1  0.4508140000000  0.5212430000000  0.4653170000000 1.0
C      1  0.4395700000000  0.5272600000000  0.5137140000000 1.0
C      1  0.5592320000000  0.5263450000000  0.5207400000000 1.0
C      1  0.5596580000000  0.5288680000000  0.4834230000000 1.0
C      1  0.5649600000000  0.4808630000000  0.4704910000000 1.0
C      1  0.5684090000000  0.4793200000000  0.5207350000000 1.0
C      1  0.5231390000000  0.4597560000000  0.4438800000000 1.0
C      1  0.5261670000000  0.5514910000000  0.4580850000000 1.0
C      1  0.5281490000000  0.5374350000000  0.5524260000000 1.0
C      1  0.5301280000000  0.4447800000000  0.5381870000000 1.0
C      1  0.4622800000000  0.5393410000000  0.4446860000000 1.0
C      1  0.4615660000000  0.4457740000000  0.4614320000000 1.0
C      1  0.4660470000000  0.4600440000000  0.5591180000000 1.0
C      1  0.4744000000000  0.5540340000000  0.5430450000000 1.0
C      1  0.5174220000000  0.5737960000000  0.5269680000000 1.0
C      1  0.5088240000000  0.4724610000000  0.5753430000000 1.0
C      1  0.5029190000000  0.4261820000000  0.4734910000000 1.0
C      1  0.5011020000000  0.5254600000000  0.4236250000000 1.0
C      1  0.4886450000000  0.4259830000000  0.5277930000000 1.0
C      1  0.4885320000000  0.5273390000000  0.5781640000000 1.0
C      1  0.4908680000000  0.5733890000000  0.4747010000000 1.0
C      1  0.4816410000000  0.4718940000000  0.4241160000000 1.0
C      1  0.4758560000000  0.4302270000000  0.4809360000000 1.0
C      1  0.4730700000000  0.5212120000000  0.4245560000000 1.0
C      1  0.4887200000000  0.5719000000000  0.5249730000000 1.0
C      1  0.4808580000000  0.4776560000000  0.5774980000000 1.0
C      1  0.5194480000000  0.5715800000000  0.4772350000000 1.0
C      1  0.5096600000000  0.4774780000000  0.4250650000000 1.0
C      1  0.5168610000000  0.4255180000000  0.5210730000000 1.0
C      1  0.5162050000000  0.5211020000000  0.5724150000000 1.0
C      1  0.4955690000000  0.4854700000000  0.5282020000000 1.0
END
