TITL C-81865-6595-5 -544.333420250646 125000 -811.06819635127 0 0 117 (C1) n - 1
REM
REM in /rds/project/t2_vol4/rds-t2-cs072/BORA/CARBON/from-Arr/AIRSS/Generating-Clusters/GAP-ML-2020/Higher-Symm/SD-CG/HFTN-CG
REM
REM
REM
REM
REM
REM ./C.cell (b20cbc046b6831c77cfcea5457e17084)
REM AIRSS Version 0.9.1 bugfix July 2018 build 013d7b7c2542+ Fri, 06 Jul 2018 19:26:36 +0100
REM compiler GCC version 9.3.0
REM options -cpp -mtune=generic -march=x86-64 -g -O0
REM seed 245048304 909996322 1134858804 -1629877806 599956948 -1216675037 1451392878 1617855279 -1853827340 -1041310940 -899141994 216997308 -764017634 -1788513382 1634928853 -1287960658 346683180 1582406795 -1043650482 -1151776941 -1090173119 326244298 1428895198 368126932 -1275794438 1593774939 1926213828 -1054789861 -637571874 -625924263 327151223 -1588962926 -1881235334
REM
CELL 1.54180   50.00000   50.00000   50.00000   90.00000   90.00000   90.00000
LATT -1
SFAC C  
C      1  0.4186370000000  0.5395950000000  0.4905260000000 1.0
C      1  0.5845660000000  0.5369300000000  0.5100220000000 1.0
C      1  0.4182420000000  0.4598720000000  0.4914330000000 1.0
C      1  0.5846360000000  0.4654160000000  0.5085290000000 1.0
C      1  0.4779430000000  0.5121920000000  0.4602850000000 1.0
C      1  0.5181710000000  0.5182190000000  0.5403500000000 1.0
C      1  0.4784720000000  0.4820110000000  0.4576190000000 1.0
C      1  0.5201270000000  0.4879510000000  0.5401170000000 1.0
C      1  0.4420390000000  0.5154240000000  0.5760930000000 1.0
C      1  0.5555590000000  0.5155850000000  0.4277700000000 1.0
C      1  0.4423620000000  0.4865200000000  0.5760530000000 1.0
C      1  0.5560140000000  0.4868940000000  0.4262630000000 1.0
C      1  0.5240500000000  0.5125120000000  0.4542260000000 1.0
C      1  0.4679760000000  0.5129310000000  0.5278050000000 1.0
C      1  0.5258910000000  0.4841120000000  0.4523830000000 1.0
C      1  0.4726160000000  0.4854500000000  0.5249840000000 1.0
C      1  0.5039860000000  0.4861680000000  0.4170870000000 1.0
C      1  0.4920000000000  0.4881920000000  0.5837360000000 1.0
C      1  0.5036310000000  0.5143420000000  0.4194420000000 1.0
C      1  0.4915480000000  0.5161840000000  0.5841710000000 1.0
C      1  0.5719830000000  0.4683070000000  0.4415720000000 1.0
C      1  0.4287840000000  0.4666400000000  0.5585590000000 1.0
C      1  0.5713490000000  0.5344330000000  0.4430000000000 1.0
C      1  0.4278610000000  0.5340880000000  0.5582020000000 1.0
C      1  0.5044880000000  0.5183480000000  0.4754710000000 1.0
C      1  0.4918470000000  0.5261310000000  0.5280970000000 1.0
C      1  0.5053010000000  0.4737980000000  0.4706840000000 1.0
C      1  0.4991820000000  0.4796070000000  0.5198170000000 1.0
C      1  0.4864910000000  0.3949810000000  0.4916200000000 1.0
C      1  0.5245900000000  0.4179540000000  0.5055400000000 1.0
C      1  0.4876360000000  0.6122780000000  0.4919020000000 1.0
C      1  0.5209500000000  0.5821720000000  0.5072690000000 1.0
C      1  0.5158480000000  0.4768670000000  0.5704050000000 1.0
C      1  0.4798070000000  0.4758220000000  0.4287120000000 1.0
C      1  0.5153810000000  0.5284940000000  0.5719610000000 1.0
C      1  0.4803440000000  0.5246470000000  0.4330490000000 1.0
C      1  0.5408700000000  0.4876850000000  0.5832070000000 1.0
C      1  0.4533670000000  0.4802670000000  0.4170940000000 1.0
C      1  0.5407250000000  0.5169710000000  0.5838130000000 1.0
C      1  0.4501480000000  0.5080810000000  0.4140060000000 1.0
C      1  0.4883600000000  0.5677840000000  0.5580570000000 1.0
C      1  0.5132130000000  0.5742760000000  0.4524350000000 1.0
C      1  0.4903240000000  0.4362320000000  0.5578740000000 1.0
C      1  0.5156790000000  0.4257660000000  0.4466940000000 1.0
C      1  0.5383670000000  0.5657180000000  0.5532410000000 1.0
C      1  0.4654190000000  0.5668170000000  0.4561200000000 1.0
C      1  0.5382720000000  0.4399220000000  0.5505710000000 1.0
C      1  0.4651040000000  0.4299030000000  0.4517930000000 1.0
C      1  0.5025390000000  0.4469750000000  0.4834730000000 1.0
C      1  0.5014790000000  0.4508120000000  0.5140590000000 1.0
C      1  0.5007030000000  0.5464180000000  0.4861360000000 1.0
C      1  0.4896080000000  0.5493030000000  0.5133250000000 1.0
C      1  0.5427670000000  0.4749700000000  0.5230890000000 1.0
C      1  0.4601000000000  0.4675530000000  0.4759660000000 1.0
C      1  0.5394120000000  0.5330800000000  0.5225030000000 1.0
C      1  0.4572850000000  0.5256610000000  0.4768830000000 1.0
C      1  0.4885700000000  0.4145430000000  0.4450760000000 1.0
C      1  0.5153690000000  0.4472190000000  0.5649860000000 1.0
C      1  0.4861690000000  0.5862370000000  0.4516500000000 1.0
C      1  0.5139700000000  0.5581350000000  0.5652950000000 1.0
C      1  0.4976790000000  0.4083320000000  0.5125990000000 1.0
C      1  0.4853540000000  0.3948990000000  0.4661490000000 1.0
C      1  0.4941020000000  0.5937160000000  0.5117730000000 1.0
C      1  0.4844360000000  0.6110360000000  0.4662290000000 1.0
C      1  0.4539550000000  0.5326080000000  0.4240180000000 1.0
C      1  0.5623990000000  0.5331640000000  0.5802050000000 1.0
C      1  0.4365650000000  0.4579130000000  0.4210470000000 1.0
C      1  0.5620470000000  0.4710840000000  0.5791310000000 1.0
C      1  0.5428120000000  0.5180280000000  0.4979870000000 1.0
C      1  0.4494970000000  0.5104200000000  0.5015070000000 1.0
C      1  0.5389410000000  0.4912290000000  0.4985720000000 1.0
C      1  0.4575240000000  0.4823220000000  0.5005740000000 1.0
C      1  0.5240530000000  0.5692030000000  0.4805550000000 1.0
C      1  0.4776370000000  0.5739220000000  0.5282440000000 1.0
C      1  0.5270430000000  0.4273020000000  0.4769500000000 1.0
C      1  0.4825390000000  0.4300870000000  0.5287820000000 1.0
C      1  0.4185370000000  0.5128310000000  0.5081390000000 1.0
C      1  0.5945470000000  0.5156780000000  0.4908050000000 1.0
C      1  0.4095670000000  0.4834140000000  0.5088910000000 1.0
C      1  0.5943320000000  0.4872940000000  0.4900290000000 1.0
C      1  0.4435060000000  0.5512890000000  0.4438230000000 1.0
C      1  0.5615720000000  0.5479960000000  0.5577460000000 1.0
C      1  0.4401910000000  0.4437140000000  0.4440400000000 1.0
C      1  0.5619570000000  0.4560860000000  0.5565770000000 1.0
C      1  0.5320060000000  0.4430510000000  0.4309410000000 1.0
C      1  0.4689400000000  0.4473670000000  0.5720250000000 1.0
C      1  0.5290850000000  0.5574610000000  0.4349880000000 1.0
C      1  0.4670480000000  0.5557830000000  0.5720410000000 1.0
C      1  0.5678350000000  0.5354410000000  0.5325590000000 1.0
C      1  0.4320440000000  0.5373530000000  0.4662440000000 1.0
C      1  0.5699590000000  0.4690390000000  0.5322070000000 1.0
C      1  0.4333690000000  0.4591710000000  0.4681050000000 1.0
C      1  0.5551030000000  0.5579530000000  0.4465960000000 1.0
C      1  0.4428460000000  0.5583730000000  0.5572760000000 1.0
C      1  0.5573640000000  0.4436210000000  0.4438150000000 1.0
C      1  0.4455210000000  0.4434080000000  0.5568840000000 1.0
C      1  0.4267330000000  0.5541340000000  0.5157300000000 1.0
C      1  0.5755240000000  0.5526290000000  0.4863080000000 1.0
C      1  0.4286490000000  0.4451700000000  0.5159870000000 1.0
C      1  0.5755570000000  0.4501050000000  0.4845790000000 1.0
C      1  0.4731220000000  0.4411460000000  0.4763470000000 1.0
C      1  0.5305760000000  0.4429300000000  0.5222700000000 1.0
C      1  0.4726700000000  0.5512930000000  0.4784210000000 1.0
C      1  0.5351370000000  0.5651580000000  0.5253140000000 1.0
C      1  0.5551460000000  0.4353730000000  0.4709000000000 1.0
C      1  0.4511330000000  0.4338460000000  0.5306100000000 1.0
C      1  0.5531730000000  0.5649720000000  0.4738460000000 1.0
C      1  0.4466970000000  0.5691610000000  0.5312320000000 1.0
C      1  0.5858160000000  0.5324530000000  0.4680530000000 1.0
C      1  0.4167020000000  0.5318560000000  0.5320030000000 1.0
C      1  0.5857140000000  0.4708810000000  0.4668300000000 1.0
C      1  0.4161670000000  0.4667830000000  0.5325380000000 1.0
C      1  0.5287350000000  0.4728490000000  0.4242820000000 1.0
C      1  0.4677600000000  0.4740210000000  0.5829080000000 1.0
C      1  0.5274550000000  0.5278990000000  0.4283210000000 1.0
C      1  0.4667850000000  0.5291930000000  0.5832710000000 1.0
C      1  0.5103300000000  0.4925090000000  0.4928530000000 1.0
END
