TITL C-81865-6595-4 0.00708463064335665 125000 -28.2972592965571 0 0 5 (D2h) n - 1
REM
REM in /rds/project/t2_vol4/rds-t2-cs072/BORA/CARBON/from-Arr/AIRSS/Generating-Clusters/GAP-ML-2020/Higher-Symm/SD-CG/HFTN-CG
REM
REM
REM
REM
REM
REM ./C.cell (b20cbc046b6831c77cfcea5457e17084)
REM AIRSS Version 0.9.1 bugfix July 2018 build 013d7b7c2542+ Fri, 06 Jul 2018 19:26:36 +0100
REM compiler GCC version 9.3.0
REM options -cpp -mtune=generic -march=x86-64 -g -O0
REM seed -296682416 455781473 -254817175 -1959264082 916100017 -130724243 -1132696896 -1817311355 -1262508500 1313666517 1290651564 843732279 1290764807 -1962881901 -1385471609 650856518 98251678 1611395482 465358351 281448570 -844409498 -1257567870 -1471273553 1830841063 1243677992 -811337368 1413523549 137139658 1587834440 597841955 1040051706 1460847709 -1893204936
REM
CELL 1.54180   50.00000   50.00000   50.00000   90.00000   90.00000   90.00000
LATT -1
SFAC C  
C      1  0.4875210000000  0.5258630000000  0.5013270000000 1.0
C      1  0.5132930000000  0.5259680000000  0.5007290000000 1.0
C      1  0.5134930000000  0.4745660000000  0.5002990000000 1.0
C      1  0.4877220000000  0.4744600000000  0.5008970000000 1.0
C      1  0.5005070000000  0.5002140000000  0.5008130000000 1.0
END
