TITL C-81848-6527-7 244.191108411726 125000 -1001.448640173 0 0 142 (C1) n - 1
REM
REM in /rds/project/t2_vol4/rds-t2-cs072/BORA/CARBON/from-Arr/AIRSS/Generating-Clusters/GAP-ML-2020/Higher-Symm/SD-CG/HFTN-CG
REM
REM
REM
REM
REM
REM ./C.cell (b20cbc046b6831c77cfcea5457e17084)
REM AIRSS Version 0.9.1 bugfix July 2018 build 013d7b7c2542+ Fri, 06 Jul 2018 19:26:36 +0100
REM compiler GCC version 9.3.0
REM options -cpp -mtune=generic -march=x86-64 -g -O0
REM seed -1328647245 475506045 1728471723 109880738 1804503273 1769546043 -448977874 -112067712 -1041090206 -1978910438 -479704593 1234105369 2069807028 -604533348 1007258648 569201666 -433830761 -170267951 1693624939 -1473028262 946571185 1739111394 1376712472 983306685 -1536710385 1962640572 939653109 983481882 1082855660 -1337542122 -895673073 -324682678 1174343808
REM
CELL 1.54180   50.00000   50.00000   50.00000   90.00000   90.00000   90.00000
LATT -1
SFAC C  
C      1  0.4316970000000  0.5039410000000  0.5825700000000 1.0
C      1  0.4009170000000  0.5036360000000  0.4601810000000 1.0
C      1  0.5074120000000  0.5039280000000  0.3934030000000 1.0
C      1  0.6023520000000  0.5045340000000  0.4776010000000 1.0
C      1  0.5582550000000  0.5031400000000  0.5896350000000 1.0
C      1  0.5733130000000  0.4374240000000  0.5076650000000 1.0
C      1  0.5140300000000  0.4395720000000  0.5724910000000 1.0
C      1  0.4383240000000  0.4388940000000  0.5350670000000 1.0
C      1  0.4460980000000  0.4380280000000  0.4515080000000 1.0
C      1  0.5322560000000  0.4396730000000  0.4332350000000 1.0
C      1  0.4016140000000  0.5161560000000  0.4854350000000 1.0
C      1  0.4836630000000  0.5160450000000  0.4016350000000 1.0
C      1  0.5880000000000  0.5159630000000  0.4564860000000 1.0
C      1  0.5716630000000  0.5153490000000  0.5681040000000 1.0
C      1  0.4557510000000  0.5165140000000  0.5898440000000 1.0
C      1  0.4200360000000  0.5262080000000  0.5688280000000 1.0
C      1  0.4102340000000  0.5259110000000  0.4448210000000 1.0
C      1  0.5248630000000  0.5261380000000  0.3977420000000 1.0
C      1  0.6028390000000  0.5264560000000  0.4962460000000 1.0
C      1  0.5418310000000  0.5256310000000  0.5969870000000 1.0
C      1  0.4265620000000  0.4780320000000  0.5698400000000 1.0
C      1  0.4112900000000  0.4776930000000  0.4511230000000 1.0
C      1  0.5193030000000  0.4778810000000  0.3995910000000 1.0
C      1  0.6015810000000  0.4777300000000  0.4890620000000 1.0
C      1  0.5446330000000  0.4772310000000  0.5929590000000 1.0
C      1  0.5624560000000  0.5118810000000  0.5395140000000 1.0
C      1  0.4805950000000  0.5127730000000  0.5729620000000 1.0
C      1  0.4255430000000  0.5124720000000  0.5036760000000 1.0
C      1  0.4738820000000  0.5119970000000  0.4296190000000 1.0
C      1  0.5583490000000  0.5115920000000  0.4533690000000 1.0
C      1  0.4250130000000  0.4547120000000  0.4682070000000 1.0
C      1  0.5100740000000  0.4553640000000  0.4171550000000 1.0
C      1  0.5823460000000  0.4539380000000  0.4820620000000 1.0
C      1  0.5413000000000  0.4545710000000  0.5730700000000 1.0
C      1  0.4468610000000  0.4551990000000  0.5618360000000 1.0
C      1  0.5459570000000  0.5807410000000  0.4920420000000 1.0
C      1  0.5222500000000  0.5805050000000  0.5418160000000 1.0
C      1  0.4675030000000  0.5810040000000  0.5346140000000 1.0
C      1  0.4575290000000  0.5805300000000  0.4799860000000 1.0
C      1  0.5062750000000  0.5801160000000  0.4537620000000 1.0
C      1  0.4293320000000  0.5708270000000  0.5204430000000 1.0
C      1  0.4590930000000  0.5704260000000  0.4393010000000 1.0
C      1  0.5456010000000  0.5704320000000  0.4428600000000 1.0
C      1  0.5690330000000  0.5715120000000  0.5257060000000 1.0
C      1  0.4976870000000  0.5705880000000  0.5741170000000 1.0
C      1  0.4423420000000  0.5692670000000  0.5465970000000 1.0
C      1  0.4382500000000  0.5689220000000  0.4597250000000 1.0
C      1  0.5197210000000  0.5685990000000  0.4292750000000 1.0
C      1  0.5734500000000  0.5699180000000  0.4970040000000 1.0
C      1  0.5265330000000  0.5685430000000  0.5691770000000 1.0
C      1  0.5699060000000  0.5448720000000  0.5677700000000 1.0
C      1  0.4558630000000  0.5461290000000  0.5878510000000 1.0
C      1  0.4034150000000  0.5458210000000  0.4849120000000 1.0
C      1  0.4847820000000  0.5456480000000  0.4038080000000 1.0
C      1  0.5868070000000  0.5451490000000  0.4576090000000 1.0
C      1  0.5811410000000  0.5528690000000  0.5428410000000 1.0
C      1  0.4833800000000  0.5535260000000  0.5913720000000 1.0
C      1  0.4088530000000  0.5533870000000  0.5120200000000 1.0
C      1  0.4606170000000  0.5531020000000  0.4171820000000 1.0
C      1  0.5670630000000  0.5528820000000  0.4382030000000 1.0
C      1  0.5354900000000  0.4408190000000  0.5336680000000 1.0
C      1  0.4864070000000  0.4501000000000  0.5322560000000 1.0
C      1  0.4668400000000  0.4502120000000  0.4932110000000 1.0
C      1  0.4917360000000  0.4398650000000  0.4514880000000 1.0
C      1  0.5337890000000  0.4481350000000  0.4820550000000 1.0
C      1  0.5491530000000  0.5138730000000  0.4058240000000 1.0
C      1  0.6068870000000  0.5119750000000  0.5203410000000 1.0
C      1  0.5172290000000  0.5136860000000  0.6050930000000 1.0
C      1  0.4052300000000  0.5135940000000  0.5480020000000 1.0
C      1  0.4252640000000  0.5132690000000  0.4241520000000 1.0
C      1  0.4964820000000  0.4717570000000  0.5910430000000 1.0
C      1  0.4130510000000  0.4716150000000  0.5243850000000 1.0
C      1  0.4500520000000  0.4710520000000  0.4233370000000 1.0
C      1  0.5567140000000  0.4711750000000  0.4291700000000 1.0
C      1  0.5848040000000  0.4703640000000  0.5326470000000 1.0
C      1  0.4630080000000  0.4324210000000  0.5204340000000 1.0
C      1  0.4694030000000  0.4314540000000  0.4694800000000 1.0
C      1  0.5194880000000  0.4314790000000  0.4594000000000 1.0
C      1  0.5436710000000  0.4314820000000  0.5057330000000 1.0
C      1  0.5090200000000  0.4321130000000  0.5436380000000 1.0
C      1  0.5615950000000  0.4435640000000  0.4352190000000 1.0
C      1  0.5795400000000  0.4430940000000  0.5353660000000 1.0
C      1  0.4895140000000  0.4440730000000  0.5878960000000 1.0
C      1  0.4150870000000  0.4439580000000  0.5174510000000 1.0
C      1  0.4565200000000  0.4437880000000  0.4249720000000 1.0
C      1  0.4594640000000  0.4906510000000  0.5282800000000 1.0
C      1  0.4605900000000  0.4904570000000  0.4686870000000 1.0
C      1  0.5153810000000  0.4853900000000  0.4618300000000 1.0
C      1  0.5442630000000  0.4866800000000  0.5016310000000 1.0
C      1  0.5136200000000  0.4900870000000  0.5472450000000 1.0
C      1  0.5114790000000  0.5149430000000  0.4624790000000 1.0
C      1  0.5402180000000  0.5156330000000  0.4991810000000 1.0
C      1  0.5132040000000  0.5166700000000  0.5379730000000 1.0
C      1  0.4685680000000  0.5169960000000  0.5240150000000 1.0
C      1  0.4669080000000  0.5168150000000  0.4761660000000 1.0
C      1  0.5244330000000  0.4078700000000  0.5031700000000 1.0
C      1  0.5049320000000  0.4072240000000  0.5241630000000 1.0
C      1  0.4791300000000  0.4070730000000  0.5121240000000 1.0
C      1  0.4831150000000  0.4069990000000  0.4836260000000 1.0
C      1  0.5109890000000  0.4076300000000  0.4780630000000 1.0
C      1  0.4865300000000  0.5254830000000  0.4568470000000 1.0
C      1  0.5357570000000  0.5250550000000  0.4735740000000 1.0
C      1  0.5367580000000  0.5254920000000  0.5257420000000 1.0
C      1  0.4866600000000  0.5268160000000  0.5428090000000 1.0
C      1  0.4557410000000  0.5265080000000  0.4998360000000 1.0
C      1  0.4084710000000  0.4844070000000  0.5490910000000 1.0
C      1  0.4251020000000  0.4840270000000  0.4273410000000 1.0
C      1  0.5459420000000  0.4848320000000  0.4067920000000 1.0
C      1  0.6038480000000  0.4831670000000  0.5164740000000 1.0
C      1  0.5188740000000  0.4845860000000  0.6030070000000 1.0
C      1  0.5787640000000  0.4398000000000  0.4562430000000 1.0
C      1  0.5578260000000  0.4376720000000  0.5536650000000 1.0
C      1  0.4634530000000  0.4398650000000  0.5803540000000 1.0
C      1  0.4131140000000  0.4397090000000  0.4903670000000 1.0
C      1  0.4851140000000  0.4382010000000  0.4221280000000 1.0
C      1  0.4540570000000  0.5820740000000  0.5078380000000 1.0
C      1  0.4787430000000  0.5814480000000  0.4589360000000 1.0
C      1  0.5327150000000  0.5814910000000  0.4674510000000 1.0
C      1  0.5413270000000  0.5819420000000  0.5214830000000 1.0
C      1  0.4928370000000  0.5820300000000  0.5467800000000 1.0
C      1  0.4711660000000  0.4713750000000  0.5476390000000 1.0
C      1  0.4467970000000  0.4713600000000  0.4860870000000 1.0
C      1  0.4962630000000  0.4705260000000  0.4442680000000 1.0
C      1  0.5561060000000  0.4688300000000  0.4779130000000 1.0
C      1  0.5356160000000  0.4715830000000  0.5440660000000 1.0
C      1  0.5913450000000  0.5514170000000  0.4844570000000 1.0
C      1  0.5461780000000  0.5510100000000  0.5814110000000 1.0
C      1  0.4360000000000  0.5517930000000  0.5688440000000 1.0
C      1  0.4151790000000  0.5514580000000  0.4601230000000 1.0
C      1  0.5119190000000  0.5514860000000  0.4074350000000 1.0
C      1  0.5575860000000  0.4843470000000  0.5297550000000 1.0
C      1  0.4898720000000  0.4856620000000  0.5657350000000 1.0
C      1  0.4355600000000  0.4853310000000  0.5103560000000 1.0
C      1  0.4705240000000  0.4847450000000  0.4407550000000 1.0
C      1  0.5479600000000  0.4839040000000  0.4541250000000 1.0
C      1  0.4104370000000  0.5268440000000  0.5245700000000 1.0
C      1  0.4491350000000  0.5265210000000  0.4220800000000 1.0
C      1  0.5590100000000  0.5267640000000  0.4279550000000 1.0
C      1  0.5868500000000  0.5266960000000  0.5310750000000 1.0
C      1  0.4958390000000  0.5270300000000  0.5940070000000 1.0
C      1  0.5160560000000  0.4716950000000  0.4908800000000 1.0
C      1  0.4923640000000  0.4618740000000  0.5047690000000 1.0
END
