TITL C-81858-6524-8 -224.370540389109 125000 -783.727326560201 0 0 114 (C3) n - 1
REM
REM in /rds/project/t2_vol4/rds-t2-cs072/BORA/CARBON/from-Arr/AIRSS/Generating-Clusters/GAP-ML-2020/Higher-Symm/SD-CG/HFTN-CG
REM
REM
REM
REM
REM
REM ./C.cell (b20cbc046b6831c77cfcea5457e17084)
REM AIRSS Version 0.9.1 bugfix July 2018 build 013d7b7c2542+ Fri, 06 Jul 2018 19:26:36 +0100
REM compiler GCC version 9.3.0
REM options -cpp -mtune=generic -march=x86-64 -g -O0
REM seed -2021339788 1507189008 1041951006 -1693132240 612431063 2099801105 -1448170156 -1401093263 329529220 238583910 349689416 508861687 -696112571 -480380279 -2058344936 424307284 -525973298 180826197 -1865883861 468654249 102821963 1081344449 1989151872 1591044904 564425426 -778902648 -1627808725 -1707126794 1422526968 -1302665998 -302562628 -1671615571 83913573
REM
CELL 1.54180   50.00000   50.00000   50.00000   90.00000   90.00000   90.00000
LATT -1
SFAC C  
C      1  0.4248530000000  0.5563910000000  0.4750340000000 1.0
C      1  0.4887360000000  0.4067240000000  0.4750360000000 1.0
C      1  0.5864100000000  0.5368820000000  0.4750320000000 1.0
C      1  0.4686560000000  0.4224290000000  0.4892210000000 1.0
C      1  0.5828500000000  0.5116400000000  0.4892170000000 1.0
C      1  0.4484930000000  0.5659300000000  0.4892170000000 1.0
C      1  0.4942500000000  0.4724630000000  0.5759060000000 1.0
C      1  0.5267260000000  0.5087900000000  0.5759040000000 1.0
C      1  0.4790280000000  0.5187520000000  0.5759040000000 1.0
C      1  0.4226170000000  0.4956630000000  0.5645310000000 1.0
C      1  0.5424500000000  0.4351540000000  0.5645310000000 1.0
C      1  0.5349360000000  0.5691870000000  0.5645280000000 1.0
C      1  0.5847380000000  0.4991350000000  0.5146150000000 1.0
C      1  0.4583810000000  0.5738190000000  0.5146150000000 1.0
C      1  0.4568820000000  0.4270470000000  0.5146190000000 1.0
C      1  0.5638700000000  0.5007790000000  0.4706870000000 1.0
C      1  0.4673890000000  0.5549230000000  0.4706870000000 1.0
C      1  0.4687400000000  0.4442960000000  0.4706900000000 1.0
C      1  0.4238890000000  0.4781520000000  0.4782510000000 1.0
C      1  0.5569760000000  0.4450090000000  0.4782500000000 1.0
C      1  0.5191340000000  0.5768370000000  0.4782480000000 1.0
C      1  0.5064940000000  0.5543110000000  0.4180560000000 1.0
C      1  0.4497150000000  0.4784670000000  0.4180580000000 1.0
C      1  0.5437870000000  0.4672170000000  0.4180570000000 1.0
C      1  0.5355620000000  0.5214700000000  0.5213160000000 1.0
C      1  0.4636260000000  0.5200630000000  0.5213170000000 1.0
C      1  0.5008130000000  0.4584690000000  0.5213180000000 1.0
C      1  0.4431720000000  0.4548170000000  0.5519270000000 1.0
C      1  0.5675460000000  0.4733780000000  0.5519250000000 1.0
C      1  0.4892850000000  0.5718080000000  0.5519240000000 1.0
C      1  0.5495750000000  0.5504440000000  0.4484440000000 1.0
C      1  0.4315250000000  0.5177100000000  0.4484460000000 1.0
C      1  0.5188980000000  0.4318430000000  0.4484470000000 1.0
C      1  0.4092670000000  0.5182430000000  0.4950410000000 1.0
C      1  0.5295670000000  0.4123010000000  0.4950410000000 1.0
C      1  0.5611660000000  0.5694550000000  0.4950370000000 1.0
C      1  0.5376080000000  0.4906690000000  0.5182530000000 1.0
C      1  0.4892780000000  0.5372350000000  0.5182530000000 1.0
C      1  0.4731160000000  0.4720970000000  0.5182550000000 1.0
C      1  0.4461100000000  0.5631680000000  0.5379220000000 1.0
C      1  0.4722410000000  0.4217470000000  0.5379260000000 1.0
C      1  0.5816500000000  0.5150870000000  0.5379220000000 1.0
C      1  0.4888470000000  0.4451880000000  0.5680930000000 1.0
C      1  0.5530480000000  0.5177490000000  0.5680900000000 1.0
C      1  0.4581080000000  0.5370680000000  0.5680910000000 1.0
C      1  0.4802450000000  0.5157180000000  0.4200270000000 1.0
C      1  0.4962610000000  0.4750310000000  0.4200280000000 1.0
C      1  0.5234890000000  0.5092450000000  0.4200270000000 1.0
C      1  0.4430830000000  0.4546530000000  0.5216980000000 1.0
C      1  0.5677320000000  0.4733820000000  0.5216950000000 1.0
C      1  0.4891870000000  0.5719670000000  0.5216940000000 1.0
C      1  0.5151450000000  0.5801040000000  0.5067410000000 1.0
C      1  0.4230560000000  0.4730650000000  0.5067450000000 1.0
C      1  0.5617990000000  0.4468320000000  0.5067430000000 1.0
C      1  0.4608960000000  0.5606500000000  0.4434020000000 1.0
C      1  0.4670250000000  0.4358090000000  0.4434050000000 1.0
C      1  0.5720760000000  0.5035370000000  0.4434020000000 1.0
C      1  0.4425770000000  0.5326500000000  0.5416480000000 1.0
C      1  0.5004380000000  0.4339470000000  0.5416500000000 1.0
C      1  0.5569870000000  0.5334070000000  0.5416460000000 1.0
C      1  0.5431570000000  0.5758620000000  0.5173340000000 1.0
C      1  0.4127240000000  0.4994450000000  0.5173380000000 1.0
C      1  0.5441200000000  0.4246940000000  0.5173370000000 1.0
C      1  0.4479870000000  0.4543340000000  0.4351740000000 1.0
C      1  0.5655510000000  0.4777870000000  0.4351720000000 1.0
C      1  0.4864580000000  0.5678740000000  0.4351710000000 1.0
C      1  0.4883370000000  0.5110190000000  0.6046150000000 1.0
C      1  0.4962930000000  0.4843930000000  0.6046150000000 1.0
C      1  0.5153740000000  0.5045970000000  0.6046140000000 1.0
C      1  0.4877060000000  0.5123120000000  0.4493540000000 1.0
C      1  0.4954820000000  0.4831960000000  0.4493550000000 1.0
C      1  0.5168090000000  0.5044880000000  0.4493540000000 1.0
C      1  0.5039100000000  0.5280210000000  0.4102680000000 1.0
C      1  0.4737740000000  0.4893740000000  0.4102690000000 1.0
C      1  0.5223110000000  0.4825990000000  0.4102690000000 1.0
C      1  0.4723310000000  0.4914620000000  0.5643770000000 1.0
C      1  0.5212310000000  0.4803080000000  0.5643760000000 1.0
C      1  0.5064410000000  0.5282340000000  0.5643750000000 1.0
C      1  0.4919930000000  0.4218770000000  0.4478830000000 1.0
C      1  0.5716580000000  0.5321260000000  0.4478790000000 1.0
C      1  0.4363470000000  0.5459930000000  0.4478800000000 1.0
C      1  0.4305820000000  0.5072630000000  0.4771110000000 1.0
C      1  0.5284180000000  0.4362510000000  0.4771110000000 1.0
C      1  0.5409990000000  0.5564850000000  0.4771080000000 1.0
C      1  0.5183470000000  0.4778830000000  0.5349980000000 1.0
C      1  0.5099820000000  0.5269480000000  0.5349970000000 1.0
C      1  0.4716730000000  0.4951710000000  0.5349980000000 1.0
C      1  0.4594760000000  0.5101730000000  0.4909930000000 1.0
C      1  0.5114520000000  0.4598190000000  0.4909940000000 1.0
C      1  0.5290720000000  0.5300080000000  0.4909920000000 1.0
C      1  0.4623330000000  0.4364220000000  0.5603150000000 1.0
C      1  0.5738960000000  0.4991700000000  0.5603110000000 1.0
C      1  0.4637730000000  0.5644130000000  0.5603110000000 1.0
C      1  0.5502820000000  0.5635880000000  0.5425550000000 1.0
C      1  0.4197930000000  0.5117520000000  0.5425580000000 1.0
C      1  0.5299280000000  0.4246630000000  0.5425580000000 1.0
C      1  0.4281930000000  0.4694650000000  0.4518830000000 1.0
C      1  0.5623450000000  0.4530800000000  0.4518820000000 1.0
C      1  0.5094590000000  0.5774520000000  0.4518800000000 1.0
C      1  0.4786220000000  0.5263640000000  0.4736810000000 1.0
C      1  0.4878560000000  0.4683040000000  0.4736820000000 1.0
C      1  0.5335200000000  0.5053310000000  0.4736810000000 1.0
C      1  0.5400890000000  0.4435700000000  0.4341240000000 1.0
C      1  0.5288230000000  0.5629320000000  0.4341220000000 1.0
C      1  0.4310850000000  0.4934930000000  0.4341250000000 1.0
C      1  0.5862920000000  0.5630470000000  0.4858880000000 1.0
C      1  0.4022530000000  0.5432080000000  0.4858910000000 1.0
C      1  0.5114540000000  0.3937450000000  0.4858930000000 1.0
C      1  0.5101460000000  0.5588460000000  0.5669170000000 1.0
C      1  0.4439680000000  0.4793650000000  0.5669200000000 1.0
C      1  0.5458900000000  0.4617930000000  0.5669180000000 1.0
C      1  0.5282450000000  0.4837260000000  0.4917210000000 1.0
C      1  0.4999710000000  0.5325980000000  0.4917200000000 1.0
C      1  0.4717840000000  0.4836760000000  0.4917220000000 1.0
END
