TITL C-81953-4092-5 19.8701955849741 125000 -364.195719336745 0 0 52 (C1) n - 1
REM
REM in /rds/project/t2_vol4/rds-t2-cs072/BORA/CARBON/from-Arr/AIRSS/Generating-Clusters/GAP-ML-2020/Higher-Symm/SD-CG/HFTN-CG
REM
REM
REM
REM
REM
REM ./C.cell (b20cbc046b6831c77cfcea5457e17084)
REM AIRSS Version 0.9.1 bugfix July 2018 build 013d7b7c2542+ Fri, 06 Jul 2018 19:26:36 +0100
REM compiler GCC version 9.3.0
REM options -cpp -mtune=generic -march=x86-64 -g -O0
REM seed -455736096 1789346020 -1740718245 659889110 1668175721 -223378235 1762718074 150169714 -1840828231 597371647 -631214558 1298636685 1322705331 891268975 -1320693661 100126629 -382041356 -1966942469 -1571586692 690903848 -230369033 12757794 847399843 -1190117075 -1508428591 481108052 1885870832 -1086757281 -176698529 1126028725 952699778 -939221555 1184785917
REM
CELL 1.54180   50.00000   50.00000   50.00000   90.00000   90.00000   90.00000
LATT -1
SFAC C  
C      1  0.4453100000000  0.4897150000000  0.5411500000000 1.0
C      1  0.4442110000000  0.4770720000000  0.4683470000000 1.0
C      1  0.4449630000000  0.5354620000000  0.4993420000000 1.0
C      1  0.4855570000000  0.4993290000000  0.4406080000000 1.0
C      1  0.4872710000000  0.5550460000000  0.5308300000000 1.0
C      1  0.4831620000000  0.4501900000000  0.5342250000000 1.0
C      1  0.4642120000000  0.5165280000000  0.4490630000000 1.0
C      1  0.4671090000000  0.5397610000000  0.5431590000000 1.0
C      1  0.4622060000000  0.4521770000000  0.5146180000000 1.0
C      1  0.5321620000000  0.5510250000000  0.5199830000000 1.0
C      1  0.5295640000000  0.4628410000000  0.5299620000000 1.0
C      1  0.5370950000000  0.4797870000000  0.4438740000000 1.0
C      1  0.5626610000000  0.4361670000000  0.5033660000000 1.0
C      1  0.5534050000000  0.5199320000000  0.4499100000000 1.0
C      1  0.5600720000000  0.5237070000000  0.5446000000000 1.0
C      1  0.5021640000000  0.5417100000000  0.4533070000000 1.0
C      1  0.5077840000000  0.5237570000000  0.5593240000000 1.0
C      1  0.5011850000000  0.4389890000000  0.4928210000000 1.0
C      1  0.5125040000000  0.5462190000000  0.5408590000000 1.0
C      1  0.5063760000000  0.4426750000000  0.5208620000000 1.0
C      1  0.5074770000000  0.5159180000000  0.4431220000000 1.0
C      1  0.5571090000000  0.4961100000000  0.4344060000000 1.0
C      1  0.5579780000000  0.5408670000000  0.5251550000000 1.0
C      1  0.5542620000000  0.4500500000000  0.5236150000000 1.0
C      1  0.5172580000000  0.5596580000000  0.4952110000000 1.0
C      1  0.5166580000000  0.4753930000000  0.5560080000000 1.0
C      1  0.5161420000000  0.4608790000000  0.4498430000000 1.0
C      1  0.4889560000000  0.5605490000000  0.5027190000000 1.0
C      1  0.4887490000000  0.4705200000000  0.5544620000000 1.0
C      1  0.4890330000000  0.4716380000000  0.4481670000000 1.0
C      1  0.4737720000000  0.4459830000000  0.4885280000000 1.0
C      1  0.4750370000000  0.5411570000000  0.4608000000000 1.0
C      1  0.4796050000000  0.5187880000000  0.5590470000000 1.0
C      1  0.5280240000000  0.4856990000000  0.5108210000000 1.0
C      1  0.5290560000000  0.5035760000000  0.4606670000000 1.0
C      1  0.5061830000000  0.5001840000000  0.5026910000000 1.0
C      1  0.5222850000000  0.4430460000000  0.4726790000000 1.0
C      1  0.5245390000000  0.5530260000000  0.4679140000000 1.0
C      1  0.5260010000000  0.5015150000000  0.5639750000000 1.0
C      1  0.4431250000000  0.4726630000000  0.5178950000000 1.0
C      1  0.4423090000000  0.5047690000000  0.4598780000000 1.0
C      1  0.4441640000000  0.5329070000000  0.5280610000000 1.0
C      1  0.5536880000000  0.5079730000000  0.5638620000000 1.0
C      1  0.5472660000000  0.4369500000000  0.4821880000000 1.0
C      1  0.5499350000000  0.5457970000000  0.4550570000000 1.0
C      1  0.4334590000000  0.4845640000000  0.4944450000000 1.0
C      1  0.4333090000000  0.5131260000000  0.4863680000000 1.0
C      1  0.4300780000000  0.5123750000000  0.5397190000000 1.0
C      1  0.4669830000000  0.5499130000000  0.4866270000000 1.0
C      1  0.4695750000000  0.4918550000000  0.5570660000000 1.0
C      1  0.4671900000000  0.4613960000000  0.4650280000000 1.0
C      1  0.5289670000000  0.4999080000000  0.4885680000000 1.0
END
