TITL C-81878-6631-1 -84.3521436070753 125000 -612.993186182491 0 0 91 (C1) n - 1
REM
REM in /rds/project/t2_vol4/rds-t2-cs072/BORA/CARBON/from-Arr/AIRSS/Generating-Clusters/GAP-ML-2020/Higher-Symm/SD-CG/HFTN-CG
REM
REM
REM
REM
REM
REM ./C.cell (b20cbc046b6831c77cfcea5457e17084)
REM AIRSS Version 0.9.1 bugfix July 2018 build 013d7b7c2542+ Fri, 06 Jul 2018 19:26:36 +0100
REM compiler GCC version 9.3.0
REM options -cpp -mtune=generic -march=x86-64 -g -O0
REM seed 1019835302 -91136550 -766074658 1587699957 -1394850573 1816758378 1000962046 633152920 -587009569 1559969435 1368816739 -2000510225 482100867 -439618564 973370837 1726578774 -726556706 609683434 -1973446835 864654092 -1405137029 1554209658 -1761768519 -693582603 1081114064 -423511926 1338347011 1377034238 -1125911179 -715289291 -508302666 -1829948950 927503847
REM
CELL 1.54180   50.00000   50.00000   50.00000   90.00000   90.00000   90.00000
LATT -1
SFAC C  
C      1  0.5575330000000  0.5563630000000  0.5027710000000 1.0
C      1  0.5375490000000  0.5612850000000  0.4506900000000 1.0
C      1  0.4747890000000  0.5605480000000  0.4498490000000 1.0
C      1  0.4385620000000  0.5607030000000  0.4918590000000 1.0
C      1  0.4704670000000  0.5609170000000  0.5469460000000 1.0
C      1  0.5267000000000  0.5599590000000  0.5552280000000 1.0
C      1  0.5580850000000  0.4376820000000  0.5076690000000 1.0
C      1  0.5331690000000  0.4402800000000  0.4548350000000 1.0
C      1  0.4743320000000  0.4420170000000  0.4560340000000 1.0
C      1  0.4465520000000  0.4423120000000  0.4928940000000 1.0
C      1  0.4740570000000  0.4423880000000  0.5458590000000 1.0
C      1  0.5196630000000  0.4424210000000  0.5522990000000 1.0
C      1  0.4798570000000  0.4863830000000  0.4251980000000 1.0
C      1  0.4285350000000  0.4853240000000  0.4838510000000 1.0
C      1  0.4439570000000  0.4865230000000  0.5533110000000 1.0
C      1  0.5203410000000  0.4861480000000  0.5692260000000 1.0
C      1  0.5690890000000  0.4832510000000  0.5158710000000 1.0
C      1  0.5465160000000  0.4837720000000  0.4476280000000 1.0
C      1  0.4893480000000  0.5117860000000  0.4321440000000 1.0
C      1  0.4169640000000  0.5141590000000  0.4871000000000 1.0
C      1  0.4460320000000  0.5122700000000  0.5425540000000 1.0
C      1  0.5303700000000  0.5141240000000  0.5772680000000 1.0
C      1  0.5637020000000  0.5118300000000  0.5146600000000 1.0
C      1  0.5519380000000  0.5130430000000  0.4400360000000 1.0
C      1  0.4327850000000  0.4639270000000  0.5352650000000 1.0
C      1  0.4939060000000  0.4722070000000  0.5781680000000 1.0
C      1  0.5611910000000  0.4656790000000  0.5393670000000 1.0
C      1  0.5661000000000  0.4641000000000  0.4627510000000 1.0
C      1  0.5004400000000  0.4639350000000  0.4238740000000 1.0
C      1  0.4344240000000  0.4707350000000  0.4569100000000 1.0
C      1  0.4313120000000  0.5360170000000  0.5368280000000 1.0
C      1  0.5197810000000  0.5327950000000  0.5940700000000 1.0
C      1  0.5660130000000  0.5318960000000  0.5359480000000 1.0
C      1  0.5699240000000  0.5291150000000  0.4579580000000 1.0
C      1  0.5034980000000  0.5345540000000  0.4217660000000 1.0
C      1  0.4080160000000  0.5320330000000  0.4684180000000 1.0
C      1  0.5312740000000  0.4270010000000  0.5037380000000 1.0
C      1  0.5181820000000  0.4287630000000  0.4776680000000 1.0
C      1  0.4895280000000  0.4282670000000  0.4769000000000 1.0
C      1  0.4725800000000  0.4289860000000  0.4993940000000 1.0
C      1  0.4859910000000  0.4272390000000  0.5241850000000 1.0
C      1  0.5141330000000  0.4285630000000  0.5267890000000 1.0
C      1  0.5308780000000  0.5672340000000  0.5014210000000 1.0
C      1  0.5173120000000  0.5635660000000  0.4750750000000 1.0
C      1  0.4880480000000  0.5692720000000  0.4740660000000 1.0
C      1  0.4715780000000  0.5636250000000  0.4976500000000 1.0
C      1  0.4850970000000  0.5689020000000  0.5234470000000 1.0
C      1  0.5141830000000  0.5627370000000  0.5259090000000 1.0
C      1  0.5621410000000  0.5294790000000  0.4871090000000 1.0
C      1  0.5288830000000  0.5343750000000  0.4383310000000 1.0
C      1  0.4532960000000  0.5422090000000  0.4566540000000 1.0
C      1  0.4321390000000  0.5357380000000  0.5065440000000 1.0
C      1  0.4861990000000  0.5418130000000  0.5617230000000 1.0
C      1  0.5404650000000  0.5331430000000  0.5530650000000 1.0
C      1  0.5658490000000  0.4638260000000  0.4933920000000 1.0
C      1  0.5265550000000  0.4629220000000  0.4368260000000 1.0
C      1  0.4569500000000  0.4814900000000  0.4404580000000 1.0
C      1  0.4307450000000  0.4630640000000  0.5061810000000 1.0
C      1  0.4678770000000  0.4819080000000  0.5667160000000 1.0
C      1  0.5383430000000  0.4640840000000  0.5574280000000 1.0
C      1  0.4628280000000  0.5341530000000  0.5012340000000 1.0
C      1  0.4943220000000  0.5199670000000  0.5420780000000 1.0
C      1  0.5185880000000  0.5324400000000  0.5309940000000 1.0
C      1  0.5345580000000  0.5185210000000  0.4831030000000 1.0
C      1  0.5158680000000  0.5337090000000  0.4667710000000 1.0
C      1  0.4651060000000  0.5204650000000  0.4749120000000 1.0
C      1  0.4726570000000  0.4896220000000  0.5114940000000 1.0
C      1  0.4786000000000  0.4747630000000  0.5387900000000 1.0
C      1  0.5196500000000  0.4877230000000  0.5162930000000 1.0
C      1  0.5386160000000  0.4740020000000  0.4956700000000 1.0
C      1  0.5008740000000  0.4896800000000  0.4719480000000 1.0
C      1  0.4755860000000  0.4747960000000  0.4637750000000 1.0
C      1  0.4291820000000  0.5516780000000  0.4667980000000 1.0
C      1  0.4432130000000  0.5586550000000  0.5464760000000 1.0
C      1  0.5086460000000  0.5513270000000  0.5756530000000 1.0
C      1  0.5725720000000  0.5567820000000  0.5265270000000 1.0
C      1  0.5635900000000  0.5557250000000  0.4539220000000 1.0
C      1  0.4892050000000  0.5574870000000  0.4268090000000 1.0
C      1  0.4455190000000  0.4456060000000  0.4648660000000 1.0
C      1  0.4456240000000  0.4424040000000  0.5469610000000 1.0
C      1  0.4954820000000  0.4463980000000  0.5666150000000 1.0
C      1  0.5683320000000  0.4397240000000  0.5330120000000 1.0
C      1  0.5618690000000  0.4390780000000  0.4529860000000 1.0
C      1  0.4841720000000  0.4420530000000  0.4294600000000 1.0
C      1  0.4916450000000  0.5161410000000  0.4622930000000 1.0
C      1  0.5043040000000  0.4913290000000  0.5440580000000 1.0
C      1  0.5310790000000  0.5142580000000  0.5118350000000 1.0
C      1  0.5321480000000  0.4905900000000  0.4725180000000 1.0
C      1  0.4577850000000  0.4920540000000  0.4836300000000 1.0
C      1  0.4705980000000  0.5161950000000  0.5246340000000 1.0
C      1  0.4974720000000  0.4845520000000  0.4998370000000 1.0
END
