TITL C-81170-3609-4 -17.2592653047083 125000 -369.105398782848 0 0 56 (C1) n - 1
REM
REM in /rds/project/t2_vol4/rds-t2-cs072/BORA/CARBON/from-Arr/AIRSS/Generating-Clusters/GAP-ML-2020/Higher-Symm/SD-CG/HFTN-CG
REM
REM
REM
REM
REM
REM ./C.cell (b20cbc046b6831c77cfcea5457e17084)
REM AIRSS Version 0.9.1 bugfix July 2018 build 013d7b7c2542+ Fri, 06 Jul 2018 19:26:36 +0100
REM compiler GCC version 9.3.0
REM options -cpp -mtune=generic -march=x86-64 -g -O0
REM seed -387023007 -235317963 -1257805804 11785214 -1831572195 -333310989 -266850386 -237189639 -752493464 -2009531643 1961359371 -244531809 743511469 -1287936979 1707175181 -687626559 320326869 791091388 2036713355 1149600726 2034516520 -2095912481 633286300 -1191990645 -753984750 770242451 -2127129322 2011888101 752790879 -1487267356 -337185253 -1549667436 121236479
REM
CELL 1.54180   50.00000   50.00000   50.00000   90.00000   90.00000   90.00000
LATT -1
SFAC C  
C      1  0.5459970000000  0.4775650000000  0.4808910000000 1.0
C      1  0.4735990000000  0.4690590000000  0.5660230000000 1.0
C      1  0.4589140000000  0.5573440000000  0.4661810000000 1.0
C      1  0.5620300000000  0.5250030000000  0.5271050000000 1.0
C      1  0.4575810000000  0.4786210000000  0.5249100000000 1.0
C      1  0.4419990000000  0.5327820000000  0.4626780000000 1.0
C      1  0.4719750000000  0.5347100000000  0.4342850000000 1.0
C      1  0.5322420000000  0.4693880000000  0.4375200000000 1.0
C      1  0.5210340000000  0.5213310000000  0.5482060000000 1.0
C      1  0.4726120000000  0.4351760000000  0.5322070000000 1.0
C      1  0.5344450000000  0.5627060000000  0.5332720000000 1.0
C      1  0.5287200000000  0.4348340000000  0.4697180000000 1.0
C      1  0.4554410000000  0.4786800000000  0.4751190000000 1.0
C      1  0.5309630000000  0.4674250000000  0.5646450000000 1.0
C      1  0.5305440000000  0.5664650000000  0.4712770000000 1.0
C      1  0.4379790000000  0.5304350000000  0.5357580000000 1.0
C      1  0.5607740000000  0.4654610000000  0.5298860000000 1.0
C      1  0.5630810000000  0.5322490000000  0.4676180000000 1.0
C      1  0.5206730000000  0.5245070000000  0.4528000000000 1.0
C      1  0.4720840000000  0.4666270000000  0.4329280000000 1.0
C      1  0.4679630000000  0.5391150000000  0.5636910000000 1.0
C      1  0.5282700000000  0.4331270000000  0.5330820000000 1.0
C      1  0.4766250000000  0.5497170000000  0.5213890000000 1.0
C      1  0.4719460000000  0.4348890000000  0.4685740000000 1.0
C      1  0.5507270000000  0.5515570000000  0.4851750000000 1.0
C      1  0.5496610000000  0.4818590000000  0.5491540000000 1.0
C      1  0.4855970000000  0.5524690000000  0.5482450000000 1.0
C      1  0.5466810000000  0.4449510000000  0.5163120000000 1.0
C      1  0.4489170000000  0.5442400000000  0.5145260000000 1.0
C      1  0.4582080000000  0.4511780000000  0.4854130000000 1.0
C      1  0.5480580000000  0.5156340000000  0.4522500000000 1.0
C      1  0.4591350000000  0.4861950000000  0.4476150000000 1.0
C      1  0.4527430000000  0.5163430000000  0.5553050000000 1.0
C      1  0.4863750000000  0.4467630000000  0.4463580000000 1.0
C      1  0.5117430000000  0.5527790000000  0.4567940000000 1.0
C      1  0.5158690000000  0.4462620000000  0.5543830000000 1.0
C      1  0.4428500000000  0.5464220000000  0.4867630000000 1.0
C      1  0.4577240000000  0.4874010000000  0.5531420000000 1.0
C      1  0.5158050000000  0.5498020000000  0.5482960000000 1.0
C      1  0.4580570000000  0.4512650000000  0.5150270000000 1.0
C      1  0.5518110000000  0.5483750000000  0.5146870000000 1.0
C      1  0.5442810000000  0.4484670000000  0.4874550000000 1.0
C      1  0.4558090000000  0.5151800000000  0.4447020000000 1.0
C      1  0.5476530000000  0.4858600000000  0.4528190000000 1.0
C      1  0.5481570000000  0.5105470000000  0.5457320000000 1.0
C      1  0.5162570000000  0.4477930000000  0.4478560000000 1.0
C      1  0.4833060000000  0.5542540000000  0.4507420000000 1.0
C      1  0.4861670000000  0.4476430000000  0.5539920000000 1.0
C      1  0.4933520000000  0.5315310000000  0.5090760000000 1.0
C      1  0.5230050000000  0.4918070000000  0.4892400000000 1.0
C      1  0.5101250000000  0.4881420000000  0.5144560000000 1.0
C      1  0.5087670000000  0.5089720000000  0.4725100000000 1.0
C      1  0.4684970000000  0.4959220000000  0.4920190000000 1.0
C      1  0.4825670000000  0.4833410000000  0.5119730000000 1.0
C      1  0.4846870000000  0.5187400000000  0.4844340000000 1.0
C      1  0.5046160000000  0.5128410000000  0.5267330000000 1.0
END
