TITL C-81169-3522-8 -0.172599543926387 125000 -471.195097224313 0 0 68 (C1) n - 1
REM
REM in /rds/project/t2_vol4/rds-t2-cs072/BORA/CARBON/from-Arr/AIRSS/Generating-Clusters/GAP-ML-2020/Higher-Symm/SD-CG/HFTN-CG
REM
REM
REM
REM
REM
REM ./C.cell (b20cbc046b6831c77cfcea5457e17084)
REM AIRSS Version 0.9.1 bugfix July 2018 build 013d7b7c2542+ Fri, 06 Jul 2018 19:26:36 +0100
REM compiler GCC version 9.3.0
REM options -cpp -mtune=generic -march=x86-64 -g -O0
REM seed -1335871448 1846772787 1289241985 -1104393417 1300978772 406698647 1465127872 2076085973 -854669591 449902799 2090081417 -1470206743 196595909 -1453826671 -218774984 832171778 422717024 -1861570270 -1548297208 -1285852923 1920557141 -2134658777 656475002 -2091420483 1701536490 1198360001 -468902138 1644060077 -1095336410 -713851427 394704978 -584044058 -294877745
REM
CELL 1.54180   50.00000   50.00000   50.00000   90.00000   90.00000   90.00000
LATT -1
SFAC C  
C      1  0.4798670000000  0.4734310000000  0.4766780000000 1.0
C      1  0.5281830000000  0.4728990000000  0.4955560000000 1.0
C      1  0.4887790000000  0.4734110000000  0.5290990000000 1.0
C      1  0.5134660000000  0.4704970000000  0.4449310000000 1.0
C      1  0.5399790000000  0.4708080000000  0.5406190000000 1.0
C      1  0.4450060000000  0.4705030000000  0.5153580000000 1.0
C      1  0.4638390000000  0.5331120000000  0.4544060000000 1.0
C      1  0.5567520000000  0.5315100000000  0.4924700000000 1.0
C      1  0.4777510000000  0.5331420000000  0.5541280000000 1.0
C      1  0.4857620000000  0.5225180000000  0.4806340000000 1.0
C      1  0.5238460000000  0.5222530000000  0.4979740000000 1.0
C      1  0.4893550000000  0.5226870000000  0.5222300000000 1.0
C      1  0.5087600000000  0.4810400000000  0.4744820000000 1.0
C      1  0.5165840000000  0.4816380000000  0.5217460000000 1.0
C      1  0.4724140000000  0.4813360000000  0.5048210000000 1.0
C      1  0.5616880000000  0.5051680000000  0.4802910000000 1.0
C      1  0.4855000000000  0.5071840000000  0.5649150000000 1.0
C      1  0.4504710000000  0.5072050000000  0.4558690000000 1.0
C      1  0.5320770000000  0.4426140000000  0.5364600000000 1.0
C      1  0.4528990000000  0.4420470000000  0.5096460000000 1.0
C      1  0.5152060000000  0.4421160000000  0.4539020000000 1.0
C      1  0.4871030000000  0.5378450000000  0.4380890000000 1.0
C      1  0.5598120000000  0.5370220000000  0.5205800000000 1.0
C      1  0.4519870000000  0.5380090000000  0.5421280000000 1.0
C      1  0.5432510000000  0.4487560000000  0.4898810000000 1.0
C      1  0.4878900000000  0.4467520000000  0.5410040000000 1.0
C      1  0.4705140000000  0.4468780000000  0.4693870000000 1.0
C      1  0.5288190000000  0.5488580000000  0.4561070000000 1.0
C      1  0.5234020000000  0.5490720000000  0.5475650000000 1.0
C      1  0.4469580000000  0.5493320000000  0.4970560000000 1.0
C      1  0.4331480000000  0.4738320000000  0.4886360000000 1.0
C      1  0.5425930000000  0.4739260000000  0.4476930000000 1.0
C      1  0.5226560000000  0.4739320000000  0.5642060000000 1.0
C      1  0.5417020000000  0.5538650000000  0.4805320000000 1.0
C      1  0.4959200000000  0.5549830000000  0.5467280000000 1.0
C      1  0.4614410000000  0.5550160000000  0.4737290000000 1.0
C      1  0.5561230000000  0.4849610000000  0.4991700000000 1.0
C      1  0.4719010000000  0.4874310000000  0.5503300000000 1.0
C      1  0.4697250000000  0.4873260000000  0.4512780000000 1.0
C      1  0.4838450000000  0.5684660000000  0.5240330000000 1.0
C      1  0.4872430000000  0.5683760000000  0.4745530000000 1.0
C      1  0.5285040000000  0.5678930000000  0.5022120000000 1.0
C      1  0.4950910000000  0.4326080000000  0.4718460000000 1.0
C      1  0.5277540000000  0.4347820000000  0.5092350000000 1.0
C      1  0.4785560000000  0.4322690000000  0.5185530000000 1.0
C      1  0.5398090000000  0.5571630000000  0.5262540000000 1.0
C      1  0.4571930000000  0.5578310000000  0.5217850000000 1.0
C      1  0.5023380000000  0.5575920000000  0.4526580000000 1.0
C      1  0.4412690000000  0.5201230000000  0.5014230000000 1.0
C      1  0.5275800000000  0.5198310000000  0.4490820000000 1.0
C      1  0.5298100000000  0.5199510000000  0.5503140000000 1.0
C      1  0.5591990000000  0.4887650000000  0.5275240000000 1.0
C      1  0.4459790000000  0.4895280000000  0.5385150000000 1.0
C      1  0.4928490000000  0.4894330000000  0.4345220000000 1.0
C      1  0.4346080000000  0.5003990000000  0.4794570000000 1.0
C      1  0.5497090000000  0.4999570000000  0.4544610000000 1.0
C      1  0.5138170000000  0.5004150000000  0.5670800000000 1.0
C      1  0.5565660000000  0.5148640000000  0.5378910000000 1.0
C      1  0.4385770000000  0.5155440000000  0.5307840000000 1.0
C      1  0.5034810000000  0.5153610000000  0.4320870000000 1.0
C      1  0.4721330000000  0.5110080000000  0.5028830000000 1.0
C      1  0.5110220000000  0.5106600000000  0.4752640000000 1.0
C      1  0.5154070000000  0.5111430000000  0.5227580000000 1.0
C      1  0.4456280000000  0.4463380000000  0.4822740000000 1.0
C      1  0.5426170000000  0.4472170000000  0.4617770000000 1.0
C      1  0.5113880000000  0.4464720000000  0.5561870000000 1.0
C      1  0.5009050000000  0.4273800000000  0.4998530000000 1.0
C      1  0.4999130000000  0.5734700000000  0.5002660000000 1.0
END
