TITL C-81847-6571-3 -0.0750424499975564 125000 -706.023512283285 0 0 106 (D2d) n - 1
REM
REM in /rds/project/t2_vol4/rds-t2-cs072/BORA/CARBON/from-Arr/AIRSS/Generating-Clusters/GAP-ML-2020/Higher-Symm/SD-CG/HFTN-CG
REM
REM
REM
REM
REM
REM ./C.cell (b20cbc046b6831c77cfcea5457e17084)
REM AIRSS Version 0.9.1 bugfix July 2018 build 013d7b7c2542+ Fri, 06 Jul 2018 19:26:36 +0100
REM compiler GCC version 9.3.0
REM options -cpp -mtune=generic -march=x86-64 -g -O0
REM seed -2000518583 423878522 -793711713 -612692799 879322932 -2104504792 -1458482546 -560886050 705516398 728172099 1554128562 -560921471 -628666231 1558226752 -1074321455 1775149178 938464323 -397404785 834472941 -1313427311 893442712 1329895858 -242130168 20924493 -1738738320 -1505642844 642345671 519650298 -897800428 1067446362 -980749064 -640414378 -127017069
REM
CELL 1.54180   50.00000   50.00000   50.00000   90.00000   90.00000   90.00000
LATT -1
SFAC C  
C      1  0.4479670000000  0.4282970000000  0.5070960000000 1.0
C      1  0.5520330000000  0.5717040000000  0.5070930000000 1.0
C      1  0.5520310000000  0.4282940000000  0.4939290000000 1.0
C      1  0.4479690000000  0.5717050000000  0.4939280000000 1.0
C      1  0.4282950000000  0.4479690000000  0.5070960000000 1.0
C      1  0.5717060000000  0.5520310000000  0.5070930000000 1.0
C      1  0.4282960000000  0.5520330000000  0.4939290000000 1.0
C      1  0.5717030000000  0.4479670000000  0.4939280000000 1.0
C      1  0.5001550000000  0.4796490000000  0.4221850000000 1.0
C      1  0.4998440000000  0.5203490000000  0.4221840000000 1.0
C      1  0.4998450000000  0.4796510000000  0.5788390000000 1.0
C      1  0.5001570000000  0.5203510000000  0.5788380000000 1.0
C      1  0.4796490000000  0.5001550000000  0.4221850000000 1.0
C      1  0.5203490000000  0.4998430000000  0.4221840000000 1.0
C      1  0.4796510000000  0.4998460000000  0.5788390000000 1.0
C      1  0.5203510000000  0.5001570000000  0.5788390000000 1.0
C      1  0.4758390000000  0.5456830000000  0.5149910000000 1.0
C      1  0.5241610000000  0.4543170000000  0.5149920000000 1.0
C      1  0.5241630000000  0.5456820000000  0.4860310000000 1.0
C      1  0.4758370000000  0.4543170000000  0.4860320000000 1.0
C      1  0.5456820000000  0.4758370000000  0.5149910000000 1.0
C      1  0.4543180000000  0.5241630000000  0.5149920000000 1.0
C      1  0.5456830000000  0.5241610000000  0.4860310000000 1.0
C      1  0.4543170000000  0.4758390000000  0.4860320000000 1.0
C      1  0.4668760000000  0.5008200000000  0.5275390000000 1.0
C      1  0.5331250000000  0.4991810000000  0.5275380000000 1.0
C      1  0.5331240000000  0.5008180000000  0.4734840000000 1.0
C      1  0.4668750000000  0.4991820000000  0.4734850000000 1.0
C      1  0.5008180000000  0.4668760000000  0.5275390000000 1.0
C      1  0.4991820000000  0.5331250000000  0.5275380000000 1.0
C      1  0.5008190000000  0.5331240000000  0.4734840000000 1.0
C      1  0.4991810000000  0.4668750000000  0.4734850000000 1.0
C      1  0.5693900000000  0.4683360000000  0.4699270000000 1.0
C      1  0.4306090000000  0.5316630000000  0.4699280000000 1.0
C      1  0.4306090000000  0.4683400000000  0.5310970000000 1.0
C      1  0.5693920000000  0.5316610000000  0.5310940000000 1.0
C      1  0.4683390000000  0.5693910000000  0.4699270000000 1.0
C      1  0.5316600000000  0.4306080000000  0.4699280000000 1.0
C      1  0.4683370000000  0.4306100000000  0.5310970000000 1.0
C      1  0.5316630000000  0.5693910000000  0.5310940000000 1.0
C      1  0.4267090000000  0.4647440000000  0.4789520000000 1.0
C      1  0.5732900000000  0.5352550000000  0.4789490000000 1.0
C      1  0.5732890000000  0.4647420000000  0.5220730000000 1.0
C      1  0.4267110000000  0.5352580000000  0.5220730000000 1.0
C      1  0.4647420000000  0.4267100000000  0.4789520000000 1.0
C      1  0.5352580000000  0.5732890000000  0.4789490000000 1.0
C      1  0.4647450000000  0.5732910000000  0.5220720000000 1.0
C      1  0.5352560000000  0.4267100000000  0.5220740000000 1.0
C      1  0.4717310000000  0.5485140000000  0.5644380000000 1.0
C      1  0.5282710000000  0.4514870000000  0.5644380000000 1.0
C      1  0.5282710000000  0.5485120000000  0.4365840000000 1.0
C      1  0.4717280000000  0.4514870000000  0.4365860000000 1.0
C      1  0.5485130000000  0.4717290000000  0.5644380000000 1.0
C      1  0.4514880000000  0.5282730000000  0.5644380000000 1.0
C      1  0.5485130000000  0.5282690000000  0.4365840000000 1.0
C      1  0.4514860000000  0.4717290000000  0.4365860000000 1.0
C      1  0.4769010000000  0.4555420000000  0.5160370000000 1.0
C      1  0.5230990000000  0.5444590000000  0.5160350000000 1.0
C      1  0.5230970000000  0.4555400000000  0.4849870000000 1.0
C      1  0.4769020000000  0.5444590000000  0.4849860000000 1.0
C      1  0.4555410000000  0.4769030000000  0.5160370000000 1.0
C      1  0.5444600000000  0.5230980000000  0.5160350000000 1.0
C      1  0.4555410000000  0.5230990000000  0.4849870000000 1.0
C      1  0.5444580000000  0.4769010000000  0.4849870000000 1.0
C      1  0.5012240000000  0.4594140000000  0.4432370000000 1.0
C      1  0.4987740000000  0.5405840000000  0.4432360000000 1.0
C      1  0.4987740000000  0.4594160000000  0.5577870000000 1.0
C      1  0.5012270000000  0.5405860000000  0.5577860000000 1.0
C      1  0.4594140000000  0.5012260000000  0.4432370000000 1.0
C      1  0.5405840000000  0.4987730000000  0.4432360000000 1.0
C      1  0.4594160000000  0.4987760000000  0.5577870000000 1.0
C      1  0.5405860000000  0.5012260000000  0.5577860000000 1.0
C      1  0.5319950000000  0.5515180000000  0.5557420000000 1.0
C      1  0.4680060000000  0.4484830000000  0.5557440000000 1.0
C      1  0.4680070000000  0.5515180000000  0.4452800000000 1.0
C      1  0.5319920000000  0.4484800000000  0.4452810000000 1.0
C      1  0.5515190000000  0.5319930000000  0.5557420000000 1.0
C      1  0.4484820000000  0.4680080000000  0.5557440000000 1.0
C      1  0.5515170000000  0.4680050000000  0.4452800000000 1.0
C      1  0.4484820000000  0.5319940000000  0.4452800000000 1.0
C      1  0.5100900000000  0.5880310000000  0.5379160000000 1.0
C      1  0.4899110000000  0.4119700000000  0.5379180000000 1.0
C      1  0.4899130000000  0.5880300000000  0.4631050000000 1.0
C      1  0.5100860000000  0.4119690000000  0.4631070000000 1.0
C      1  0.5880310000000  0.5100870000000  0.5379160000000 1.0
C      1  0.4119700000000  0.4899140000000  0.5379180000000 1.0
C      1  0.5880300000000  0.4899100000000  0.4631050000000 1.0
C      1  0.4119690000000  0.5100890000000  0.4631070000000 1.0
C      1  0.4084460000000  0.4850860000000  0.4665880000000 1.0
C      1  0.5915530000000  0.5149130000000  0.4665860000000 1.0
C      1  0.5915530000000  0.4850840000000  0.5344350000000 1.0
C      1  0.4084480000000  0.5149170000000  0.5344370000000 1.0
C      1  0.4850830000000  0.4084470000000  0.4665890000000 1.0
C      1  0.5149160000000  0.5915520000000  0.4665850000000 1.0
C      1  0.4850870000000  0.5915540000000  0.5344350000000 1.0
C      1  0.5149140000000  0.4084470000000  0.5344370000000 1.0
C      1  0.4541870000000  0.4339440000000  0.4530970000000 1.0
C      1  0.5458120000000  0.5660540000000  0.4530940000000 1.0
C      1  0.5458110000000  0.4339440000000  0.5479280000000 1.0
C      1  0.4541910000000  0.5660570000000  0.5479270000000 1.0
C      1  0.4339430000000  0.4541890000000  0.4530970000000 1.0
C      1  0.5660560000000  0.5458090000000  0.4530940000000 1.0
C      1  0.4339460000000  0.5458130000000  0.5479280000000 1.0
C      1  0.5660550000000  0.4541880000000  0.5479280000000 1.0
C      1  0.5000000000000  0.5000000000000  0.4830540000000 1.0
C      1  0.5000000000000  0.5000000000000  0.5179690000000 1.0
END
