TITL C-81166-3292-3 0.269460245570397 125000 -792.616041932728 0 0 110 (C1) n - 1
REM
REM in /rds/project/t2_vol4/rds-t2-cs072/BORA/CARBON/from-Arr/AIRSS/Generating-Clusters/GAP-ML-2020/Higher-Symm/SD-CG/HFTN-CG
REM
REM
REM
REM
REM
REM ./C.cell (b20cbc046b6831c77cfcea5457e17084)
REM AIRSS Version 0.9.1 bugfix July 2018 build 013d7b7c2542+ Fri, 06 Jul 2018 19:26:36 +0100
REM compiler GCC version 9.3.0
REM options -cpp -mtune=generic -march=x86-64 -g -O0
REM seed -737536775 1093564881 14260234 980151958 -1296531 -959533141 649247050 531925035 576960092 -681434288 21948962 -679745020 567063210 -483401695 1675305557 -671170046 454615226 14544083 825651343 -991946686 1519092218 1422172663 -590180297 -1470748924 -787554031 -969173455 1960732176 256658664 750640604 -824342260 694138955 1174496029 1953945298
REM
CELL 1.54180   50.00000   50.00000   50.00000   90.00000   90.00000   90.00000
LATT -1
SFAC C  
C      1  0.5603560000000  0.5521290000000  0.4613900000000 1.0
C      1  0.5779830000000  0.5104320000000  0.4627060000000 1.0
C      1  0.5710730000000  0.4674010000000  0.4658690000000 1.0
C      1  0.5421700000000  0.4344740000000  0.4641590000000 1.0
C      1  0.4998220000000  0.4211770000000  0.4647480000000 1.0
C      1  0.4567130000000  0.4327430000000  0.4628970000000 1.0
C      1  0.4278310000000  0.4666400000000  0.4642480000000 1.0
C      1  0.4210200000000  0.5105720000000  0.4630540000000 1.0
C      1  0.4402460000000  0.5509070000000  0.4634940000000 1.0
C      1  0.4777780000000  0.5751260000000  0.4619810000000 1.0
C      1  0.5224520000000  0.5751130000000  0.4625330000000 1.0
C      1  0.5506040000000  0.4211220000000  0.5161920000000 1.0
C      1  0.5002250000000  0.4064920000000  0.5155140000000 1.0
C      1  0.4495030000000  0.4210420000000  0.5155470000000 1.0
C      1  0.4145160000000  0.4604060000000  0.5153530000000 1.0
C      1  0.4070720000000  0.5126670000000  0.5153920000000 1.0
C      1  0.4295020000000  0.5601810000000  0.5146800000000 1.0
C      1  0.4740500000000  0.5882990000000  0.5143770000000 1.0
C      1  0.5265180000000  0.5878150000000  0.5144330000000 1.0
C      1  0.5710670000000  0.5604420000000  0.5151780000000 1.0
C      1  0.5923420000000  0.5129730000000  0.5157050000000 1.0
C      1  0.5849380000000  0.4610110000000  0.5161620000000 1.0
C      1  0.4853850000000  0.5429820000000  0.4209940000000 1.0
C      1  0.5102180000000  0.5482280000000  0.4098330000000 1.0
C      1  0.5337090000000  0.5366870000000  0.4165850000000 1.0
C      1  0.5434440000000  0.5131260000000  0.4042730000000 1.0
C      1  0.5438470000000  0.4928870000000  0.4228520000000 1.0
C      1  0.5259700000000  0.4698810000000  0.4262190000000 1.0
C      1  0.5024460000000  0.4650140000000  0.4139540000000 1.0
C      1  0.4764880000000  0.4634860000000  0.4233210000000 1.0
C      1  0.4558560000000  0.4793790000000  0.4140070000000 1.0
C      1  0.4531690000000  0.5054620000000  0.4224510000000 1.0
C      1  0.4637790000000  0.5285710000000  0.4119010000000 1.0
C      1  0.5265360000000  0.4594020000000  0.4545150000000 1.0
C      1  0.4991880000000  0.4517010000000  0.4654560000000 1.0
C      1  0.4724420000000  0.4571460000000  0.4524960000000 1.0
C      1  0.4555130000000  0.4793790000000  0.4644420000000 1.0
C      1  0.4492270000000  0.5064600000000  0.4521300000000 1.0
C      1  0.4634450000000  0.5309530000000  0.4635110000000 1.0
C      1  0.4855260000000  0.5474970000000  0.4506260000000 1.0
C      1  0.5143420000000  0.5450100000000  0.4612330000000 1.0
C      1  0.5396490000000  0.5346620000000  0.4473190000000 1.0
C      1  0.5504610000000  0.5057370000000  0.4504870000000 1.0
C      1  0.5421320000000  0.4820620000000  0.4679870000000 1.0
C      1  0.4412360000000  0.4486220000000  0.5552180000000 1.0
C      1  0.4231150000000  0.4883480000000  0.5548020000000 1.0
C      1  0.4295300000000  0.5313930000000  0.5548050000000 1.0
C      1  0.4590900000000  0.5633640000000  0.5536610000000 1.0
C      1  0.5007280000000  0.5754140000000  0.5537370000000 1.0
C      1  0.5428540000000  0.5644230000000  0.5549660000000 1.0
C      1  0.5721980000000  0.5324660000000  0.5561730000000 1.0
C      1  0.5777360000000  0.4890910000000  0.5562880000000 1.0
C      1  0.5583800000000  0.4497860000000  0.5555700000000 1.0
C      1  0.5218630000000  0.4264670000000  0.5552540000000 1.0
C      1  0.4784060000000  0.4258130000000  0.5550520000000 1.0
C      1  0.5003220000000  0.4138390000000  0.5429120000000 1.0
C      1  0.4530460000000  0.4264150000000  0.5432310000000 1.0
C      1  0.4211210000000  0.4633610000000  0.5427670000000 1.0
C      1  0.4133720000000  0.5117900000000  0.5431500000000 1.0
C      1  0.4350830000000  0.5554130000000  0.5420170000000 1.0
C      1  0.4762990000000  0.5817520000000  0.5418760000000 1.0
C      1  0.5251070000000  0.5814590000000  0.5419730000000 1.0
C      1  0.5668870000000  0.5566660000000  0.5431720000000 1.0
C      1  0.5870050000000  0.5123170000000  0.5437050000000 1.0
C      1  0.5789460000000  0.4643190000000  0.5436500000000 1.0
C      1  0.5472770000000  0.4268450000000  0.5439660000000 1.0
C      1  0.4106780000000  0.4868040000000  0.4745540000000 1.0
C      1  0.4182020000000  0.5363740000000  0.4741570000000 1.0
C      1  0.4519090000000  0.5747330000000  0.4734930000000 1.0
C      1  0.4998870000000  0.5885030000000  0.4733580000000 1.0
C      1  0.5487520000000  0.5747080000000  0.4736520000000 1.0
C      1  0.5799420000000  0.5362040000000  0.4740290000000 1.0
C      1  0.5884480000000  0.4871060000000  0.4750640000000 1.0
C      1  0.5669770000000  0.4415680000000  0.4756250000000 1.0
C      1  0.5253260000000  0.4144830000000  0.4747520000000 1.0
C      1  0.4743010000000  0.4137390000000  0.4744460000000 1.0
C      1  0.4320430000000  0.4404670000000  0.4744330000000 1.0
C      1  0.4057840000000  0.4858990000000  0.5024180000000 1.0
C      1  0.4136490000000  0.5384250000000  0.5020240000000 1.0
C      1  0.4491020000000  0.5785200000000  0.5015190000000 1.0
C      1  0.5002890000000  0.5927550000000  0.5013940000000 1.0
C      1  0.5512160000000  0.5781190000000  0.5016540000000 1.0
C      1  0.5850020000000  0.5381910000000  0.5021910000000 1.0
C      1  0.5934250000000  0.4863430000000  0.5029220000000 1.0
C      1  0.5713190000000  0.4378740000000  0.5033680000000 1.0
C      1  0.5269220000000  0.4091280000000  0.5027010000000 1.0
C      1  0.4733410000000  0.4089880000000  0.5025140000000 1.0
C      1  0.4284050000000  0.4373070000000  0.5023850000000 1.0
C      1  0.5349250000000  0.5033960000000  0.5162660000000 1.0
C      1  0.5357060000000  0.4835160000000  0.4983510000000 1.0
C      1  0.5223480000000  0.4627290000000  0.5085250000000 1.0
C      1  0.4991540000000  0.4594080000000  0.4961560000000 1.0
C      1  0.4788530000000  0.4688310000000  0.5105050000000 1.0
C      1  0.4620330000000  0.4836020000000  0.4959930000000 1.0
C      1  0.4586880000000  0.5069280000000  0.5086530000000 1.0
C      1  0.4704830000000  0.5259740000000  0.4941140000000 1.0
C      1  0.4922480000000  0.5364450000000  0.5049440000000 1.0
C      1  0.5139770000000  0.5347200000000  0.4892610000000 1.0
C      1  0.5305620000000  0.5278410000000  0.5095060000000 1.0
C      1  0.5289740000000  0.5426900000000  0.5700700000000 1.0
C      1  0.5485200000000  0.5215410000000  0.5716280000000 1.0
C      1  0.5522210000000  0.4929100000000  0.5713190000000 1.0
C      1  0.5389190000000  0.4671740000000  0.5699660000000 1.0
C      1  0.5143200000000  0.4517430000000  0.5692900000000 1.0
C      1  0.4855040000000  0.4510400000000  0.5693200000000 1.0
C      1  0.4609270000000  0.4659540000000  0.5694670000000 1.0
C      1  0.4489690000000  0.4919850000000  0.5691130000000 1.0
C      1  0.4536200000000  0.5202950000000  0.5687210000000 1.0
C      1  0.4731410000000  0.5413480000000  0.5678080000000 1.0
C      1  0.5008380000000  0.5494500000000  0.5682260000000 1.0
END
