TITL C-81877-6615-3 -78.4494707210951 125000 -1182.00196498751 0 0 170 (C1) n - 1
REM
REM in /rds/project/t2_vol4/rds-t2-cs072/BORA/CARBON/from-Arr/AIRSS/Generating-Clusters/GAP-ML-2020/Higher-Symm/SD-CG/HFTN-CG
REM
REM
REM
REM
REM
REM ./C.cell (b20cbc046b6831c77cfcea5457e17084)
REM AIRSS Version 0.9.1 bugfix July 2018 build 013d7b7c2542+ Fri, 06 Jul 2018 19:26:36 +0100
REM compiler GCC version 9.3.0
REM options -cpp -mtune=generic -march=x86-64 -g -O0
REM seed -136221933 1920852307 -1392363944 1040458439 440504344 -442180175 1160096058 -1289855901 -1413866837 1399316530 -1770438178 1334160668 -792413047 -1756948229 -1379583862 -1549415469 -425387207 -1374991744 -1817561586 -989902453 -1266524405 2138011186 741723850 1441773260 -1624821403 -421104871 -1614365626 2089777641 -1750075068 2068050010 -1139292795 -1012878300 -2054674922
REM
CELL 1.54180   50.00000   50.00000   50.00000   90.00000   90.00000   90.00000
LATT -1
SFAC C  
C      1  0.4441770000000  0.4066650000000  0.4655430000000 1.0
C      1  0.5385550000000  0.3981330000000  0.4660470000000 1.0
C      1  0.6028640000000  0.4673670000000  0.4662470000000 1.0
C      1  0.5904270000000  0.5604680000000  0.4650980000000 1.0
C      1  0.5094890000000  0.6087180000000  0.4643950000000 1.0
C      1  0.4221430000000  0.5747390000000  0.4660470000000 1.0
C      1  0.3921100000000  0.4854690000000  0.4666880000000 1.0
C      1  0.4203950000000  0.4457170000000  0.5201850000000 1.0
C      1  0.4926600000000  0.4032790000000  0.5185210000000 1.0
C      1  0.5716530000000  0.4357380000000  0.5207180000000 1.0
C      1  0.5949940000000  0.5179840000000  0.5190010000000 1.0
C      1  0.5469020000000  0.5854430000000  0.5177250000000 1.0
C      1  0.4628940000000  0.5903760000000  0.5166220000000 1.0
C      1  0.4079220000000  0.5276820000000  0.5192050000000 1.0
C      1  0.4544160000000  0.5095960000000  0.5932760000000 1.0
C      1  0.4630570000000  0.4856210000000  0.5773510000000 1.0
C      1  0.5044490000000  0.4524970000000  0.5917410000000 1.0
C      1  0.5264890000000  0.4546950000000  0.5699630000000 1.0
C      1  0.5458250000000  0.5074990000000  0.5989200000000 1.0
C      1  0.5107760000000  0.5412850000000  0.5800400000000 1.0
C      1  0.4849120000000  0.5481320000000  0.5922310000000 1.0
C      1  0.4528540000000  0.5459190000000  0.4192070000000 1.0
C      1  0.4335190000000  0.4918720000000  0.4208170000000 1.0
C      1  0.4652930000000  0.4440600000000  0.4190360000000 1.0
C      1  0.5229680000000  0.4369400000000  0.4203180000000 1.0
C      1  0.5624170000000  0.4787830000000  0.4191830000000 1.0
C      1  0.5567220000000  0.5361970000000  0.4190020000000 1.0
C      1  0.5065900000000  0.5670790000000  0.4186470000000 1.0
C      1  0.5432090000000  0.4795140000000  0.6043900000000 1.0
C      1  0.5209760000000  0.5210440000000  0.5994080000000 1.0
C      1  0.4994060000000  0.5120650000000  0.6146960000000 1.0
C      1  0.4752990000000  0.5246520000000  0.6044650000000 1.0
C      1  0.4741490000000  0.4747360000000  0.6231410000000 1.0
C      1  0.4786080000000  0.4688550000000  0.5956800000000 1.0
C      1  0.5186760000000  0.4683140000000  0.6135060000000 1.0
C      1  0.6090710000000  0.5030510000000  0.4974550000000 1.0
C      1  0.5666800000000  0.5880130000000  0.4958740000000 1.0
C      1  0.4734160000000  0.6074360000000  0.4951390000000 1.0
C      1  0.4010180000000  0.5461520000000  0.4973490000000 1.0
C      1  0.4019920000000  0.4511320000000  0.4975790000000 1.0
C      1  0.4768090000000  0.3925590000000  0.4961970000000 1.0
C      1  0.5696200000000  0.4162470000000  0.4979770000000 1.0
C      1  0.4453990000000  0.4380670000000  0.5636790000000 1.0
C      1  0.5134620000000  0.4141100000000  0.5610710000000 1.0
C      1  0.5723730000000  0.4648550000000  0.5641050000000 1.0
C      1  0.5725430000000  0.5371860000000  0.5635800000000 1.0
C      1  0.5176530000000  0.5847220000000  0.5601310000000 1.0
C      1  0.4475280000000  0.5683670000000  0.5618760000000 1.0
C      1  0.4163000000000  0.5037100000000  0.5629240000000 1.0
C      1  0.4666950000000  0.5578710000000  0.4795820000000 1.0
C      1  0.4337750000000  0.5094310000000  0.4810250000000 1.0
C      1  0.4507420000000  0.4535830000000  0.4811720000000 1.0
C      1  0.5056470000000  0.4316420000000  0.4800230000000 1.0
C      1  0.5562400000000  0.4619190000000  0.4789780000000 1.0
C      1  0.5644570000000  0.5204980000000  0.4786890000000 1.0
C      1  0.5246280000000  0.5635470000000  0.4786640000000 1.0
C      1  0.4998700000000  0.5544840000000  0.5195700000000 1.0
C      1  0.4587790000000  0.5328760000000  0.5210400000000 1.0
C      1  0.4487930000000  0.4867980000000  0.5216340000000 1.0
C      1  0.4782240000000  0.4504940000000  0.5215130000000 1.0
C      1  0.5258740000000  0.4513220000000  0.5185230000000 1.0
C      1  0.5536470000000  0.4894660000000  0.5182000000000 1.0
C      1  0.5416360000000  0.5351260000000  0.5181320000000 1.0
C      1  0.4773150000000  0.5154020000000  0.4573050000000 1.0
C      1  0.4658290000000  0.4891790000000  0.4490060000000 1.0
C      1  0.4884050000000  0.4707400000000  0.4563750000000 1.0
C      1  0.5167560000000  0.4684320000000  0.4480480000000 1.0
C      1  0.5268880000000  0.4954780000000  0.4569710000000 1.0
C      1  0.5254930000000  0.5230980000000  0.4490000000000 1.0
C      1  0.4979060000000  0.5344690000000  0.4488570000000 1.0
C      1  0.6109630000000  0.4765170000000  0.4923060000000 1.0
C      1  0.5889260000000  0.5731930000000  0.4907050000000 1.0
C      1  0.4986810000000  0.6165340000000  0.4897110000000 1.0
C      1  0.4100450000000  0.5712880000000  0.4917860000000 1.0
C      1  0.3867530000000  0.4732930000000  0.4919580000000 1.0
C      1  0.4500770000000  0.3947690000000  0.4909030000000 1.0
C      1  0.5513030000000  0.3969020000000  0.4916510000000 1.0
C      1  0.4588510000000  0.5281650000000  0.4761750000000 1.0
C      1  0.4499080000000  0.4842740000000  0.4750720000000 1.0
C      1  0.4811620000000  0.4518010000000  0.4768720000000 1.0
C      1  0.5262500000000  0.4536940000000  0.4734150000000 1.0
C      1  0.5499860000000  0.4921760000000  0.4745540000000 1.0
C      1  0.5385530000000  0.5357990000000  0.4732400000000 1.0
C      1  0.4965880000000  0.5521950000000  0.4734280000000 1.0
C      1  0.5665260000000  0.4534730000000  0.4320350000000 1.0
C      1  0.5786090000000  0.5233810000000  0.4314850000000 1.0
C      1  0.5306140000000  0.5756960000000  0.4312450000000 1.0
C      1  0.4604630000000  0.5704160000000  0.4317840000000 1.0
C      1  0.4195610000000  0.5129590000000  0.4332770000000 1.0
C      1  0.4401210000000  0.4459510000000  0.4328320000000 1.0
C      1  0.5051750000000  0.4185590000000  0.4322200000000 1.0
C      1  0.4723440000000  0.5254130000000  0.4109150000000 1.0
C      1  0.4641080000000  0.4940780000000  0.4175740000000 1.0
C      1  0.4812860000000  0.4680480000000  0.4108910000000 1.0
C      1  0.5139840000000  0.4665240000000  0.4171280000000 1.0
C      1  0.5358530000000  0.4889380000000  0.4109740000000 1.0
C      1  0.5305900000000  0.5202820000000  0.4176610000000 1.0
C      1  0.5006530000000  0.5369120000000  0.4168620000000 1.0
C      1  0.4741130000000  0.5192110000000  0.5006340000000 1.0
C      1  0.4680390000000  0.4905220000000  0.4992910000000 1.0
C      1  0.4876610000000  0.4690250000000  0.5012170000000 1.0
C      1  0.5164880000000  0.4697760000000  0.4975990000000 1.0
C      1  0.5326350000000  0.4940170000000  0.4983710000000 1.0
C      1  0.5251750000000  0.5224070000000  0.4977870000000 1.0
C      1  0.4990520000000  0.5338780000000  0.4979790000000 1.0
C      1  0.5293250000000  0.5635550000000  0.5765340000000 1.0
C      1  0.4719630000000  0.5683250000000  0.5788000000000 1.0
C      1  0.4330230000000  0.5217470000000  0.5797990000000 1.0
C      1  0.4427430000000  0.4641250000000  0.5775550000000 1.0
C      1  0.4942820000000  0.4261640000000  0.5809990000000 1.0
C      1  0.5518380000000  0.4639670000000  0.5832570000000 1.0
C      1  0.5668670000000  0.5141220000000  0.5811850000000 1.0
C      1  0.5728020000000  0.5755700000000  0.4486970000000 1.0
C      1  0.4865350000000  0.6042200000000  0.4481910000000 1.0
C      1  0.4112080000000  0.5540370000000  0.4501840000000 1.0
C      1  0.4019220000000  0.4641310000000  0.4504580000000 1.0
C      1  0.4669160000000  0.4013070000000  0.4492200000000 1.0
C      1  0.5572630000000  0.4123810000000  0.4501700000000 1.0
C      1  0.6038310000000  0.4902920000000  0.4497910000000 1.0
C      1  0.4685350000000  0.5626750000000  0.5101460000000 1.0
C      1  0.4316510000000  0.5128270000000  0.5114580000000 1.0
C      1  0.4466120000000  0.4546010000000  0.5117710000000 1.0
C      1  0.5041710000000  0.4283360000000  0.5098150000000 1.0
C      1  0.5576170000000  0.4584700000000  0.5095880000000 1.0
C      1  0.5680040000000  0.5195890000000  0.5089000000000 1.0
C      1  0.5284420000000  0.5649380000000  0.5091650000000 1.0
C      1  0.5788750000000  0.4511090000000  0.4605360000000 1.0
C      1  0.5879390000000  0.5314000000000  0.4601960000000 1.0
C      1  0.5304410000000  0.5882420000000  0.4598100000000 1.0
C      1  0.4510890000000  0.5779880000000  0.4606200000000 1.0
C      1  0.4079090000000  0.5102020000000  0.4621520000000 1.0
C      1  0.4349680000000  0.4345590000000  0.4616000000000 1.0
C      1  0.5106030000000  0.4070060000000  0.4607250000000 1.0
C      1  0.4864750000000  0.3927890000000  0.4679620000000 1.0
C      1  0.5751450000000  0.4236600000000  0.4692310000000 1.0
C      1  0.6074660000000  0.5115170000000  0.4684270000000 1.0
C      1  0.5583550000000  0.5914080000000  0.4673760000000 1.0
C      1  0.4654060000000  0.6023870000000  0.4670940000000 1.0
C      1  0.3988490000000  0.5369080000000  0.4691720000000 1.0
C      1  0.4085930000000  0.4441080000000  0.4692960000000 1.0
C      1  0.5555860000000  0.5638620000000  0.4278520000000 1.0
C      1  0.4847080000000  0.5835270000000  0.4275550000000 1.0
C      1  0.4260670000000  0.5395980000000  0.4293840000000 1.0
C      1  0.4222490000000  0.4669440000000  0.4295380000000 1.0
C      1  0.4776560000000  0.4192700000000  0.4286060000000 1.0
C      1  0.5499020000000  0.4313960000000  0.4289470000000 1.0
C      1  0.5839770000000  0.4963140000000  0.4287200000000 1.0
C      1  0.5017250000000  0.5345510000000  0.5455850000000 1.0
C      1  0.4761510000000  0.5204390000000  0.5412490000000 1.0
C      1  0.4694610000000  0.4918910000000  0.5464020000000 1.0
C      1  0.4886240000000  0.4701330000000  0.5397810000000 1.0
C      1  0.5178910000000  0.4687300000000  0.5435090000000 1.0
C      1  0.5332480000000  0.4933820000000  0.5383930000000 1.0
C      1  0.5263400000000  0.5208920000000  0.5384270000000 1.0
C      1  0.5886650000000  0.5177880000000  0.5466450000000 1.0
C      1  0.5438110000000  0.5831300000000  0.5454880000000 1.0
C      1  0.4634220000000  0.5871270000000  0.5442140000000 1.0
C      1  0.4109920000000  0.5279180000000  0.5470250000000 1.0
C      1  0.4220750000000  0.4486370000000  0.5482960000000 1.0
C      1  0.4895380000000  0.4061800000000  0.5463850000000 1.0
C      1  0.5646680000000  0.4398660000000  0.5482140000000 1.0
C      1  0.4286020000000  0.5461890000000  0.5640620000000 1.0
C      1  0.4188000000000  0.4744640000000  0.5640260000000 1.0
C      1  0.4699030000000  0.4208740000000  0.5649580000000 1.0
C      1  0.5381380000000  0.4288500000000  0.5606200000000 1.0
C      1  0.5808900000000  0.4943910000000  0.5642540000000 1.0
C      1  0.5555610000000  0.5615210000000  0.5634340000000 1.0
C      1  0.4882590000000  0.5855340000000  0.5611080000000 1.0
C      1  0.4993170000000  0.4859750000000  0.6255920000000 1.0
C      1  0.4988930000000  0.4973360000000  0.4665120000000 1.0
END
