TITL C-81852-6537-11 742.276375220001 125000 -731.264265609242 0 0 102 (C1) n - 1
REM
REM in /rds/project/t2_vol4/rds-t2-cs072/BORA/CARBON/from-Arr/AIRSS/Generating-Clusters/GAP-ML-2020/Higher-Symm/SD-CG/HFTN-CG
REM
REM
REM
REM
REM
REM ./C.cell (b20cbc046b6831c77cfcea5457e17084)
REM AIRSS Version 0.9.1 bugfix July 2018 build 013d7b7c2542+ Fri, 06 Jul 2018 19:26:36 +0100
REM compiler GCC version 9.3.0
REM options -cpp -mtune=generic -march=x86-64 -g -O0
REM seed 2130056116 -2141834869 -1786624177 1174360748 732252940 -1921910290 1072055259 662333504 -1488871527 -1780318878 513334379 -1190879301 306124380 2076679911 349078998 1608865210 124258542 1613528132 -403286987 -310788545 231660784 1439495449 -1086205244 -586476456 612957645 -620977002 584220678 -979619874 -513920853 37646932 1170951310 -787372926 92957153
REM
CELL 1.54180   50.00000   50.00000   50.00000   90.00000   90.00000   90.00000
LATT -1
SFAC C  
C      1  0.4961280000000  0.4168870000000  0.5143820000000 1.0
C      1  0.4962770000000  0.5131600000000  0.5828260000000 1.0
C      1  0.4957320000000  0.5833510000000  0.4863430000000 1.0
C      1  0.4960650000000  0.4864280000000  0.4179860000000 1.0
C      1  0.5009580000000  0.4180730000000  0.4861670000000 1.0
C      1  0.5017100000000  0.5146300000000  0.4188680000000 1.0
C      1  0.5013390000000  0.5817350000000  0.5145000000000 1.0
C      1  0.5014690000000  0.4850470000000  0.5817260000000 1.0
C      1  0.4396520000000  0.4514400000000  0.4573050000000 1.0
C      1  0.4396740000000  0.4565260000000  0.5489950000000 1.0
C      1  0.4399400000000  0.5483080000000  0.5432590000000 1.0
C      1  0.4395090000000  0.5434520000000  0.4514670000000 1.0
C      1  0.5588560000000  0.4498590000000  0.5433040000000 1.0
C      1  0.5586740000000  0.4582040000000  0.4524560000000 1.0
C      1  0.5596640000000  0.5497010000000  0.4579340000000 1.0
C      1  0.5584680000000  0.5413900000000  0.5501840000000 1.0
C      1  0.5246160000000  0.4856540000000  0.4716590000000 1.0
C      1  0.5229610000000  0.4768470000000  0.5225540000000 1.0
C      1  0.5236420000000  0.5041620000000  0.5165480000000 1.0
C      1  0.5224530000000  0.5327680000000  0.4788220000000 1.0
C      1  0.4814450000000  0.4927380000000  0.5285900000000 1.0
C      1  0.4844710000000  0.4723530000000  0.4931550000000 1.0
C      1  0.4825750000000  0.5082000000000  0.4729230000000 1.0
C      1  0.4842390000000  0.5281680000000  0.5081560000000 1.0
C      1  0.4856040000000  0.5592650000000  0.4342790000000 1.0
C      1  0.4854470000000  0.4345800000000  0.4420270000000 1.0
C      1  0.4858530000000  0.4409490000000  0.5654980000000 1.0
C      1  0.4860280000000  0.5646250000000  0.5586970000000 1.0
C      1  0.5116070000000  0.5569910000000  0.5660390000000 1.0
C      1  0.5115950000000  0.4335050000000  0.5586160000000 1.0
C      1  0.5111420000000  0.4422700000000  0.4351710000000 1.0
C      1  0.5112840000000  0.5664960000000  0.4419230000000 1.0
C      1  0.5327500000000  0.4305030000000  0.4498340000000 1.0
C      1  0.5330140000000  0.4486280000000  0.5704870000000 1.0
C      1  0.5327390000000  0.5690420000000  0.5512230000000 1.0
C      1  0.5333760000000  0.5517120000000  0.4306250000000 1.0
C      1  0.4642260000000  0.4291580000000  0.5502340000000 1.0
C      1  0.4642910000000  0.4502300000000  0.4301060000000 1.0
C      1  0.4641240000000  0.5709470000000  0.4500950000000 1.0
C      1  0.4645770000000  0.5493010000000  0.5703510000000 1.0
C      1  0.4488710000000  0.5642850000000  0.4948720000000 1.0
C      1  0.4488330000000  0.4947470000000  0.4361530000000 1.0
C      1  0.4490010000000  0.4357320000000  0.5057630000000 1.0
C      1  0.4491460000000  0.5050210000000  0.5642080000000 1.0
C      1  0.5481450000000  0.5616970000000  0.5073900000000 1.0
C      1  0.5488850000000  0.4932850000000  0.5641430000000 1.0
C      1  0.5481140000000  0.4367490000000  0.4949800000000 1.0
C      1  0.5494330000000  0.5073930000000  0.4374000000000 1.0
C      1  0.5667370000000  0.5209550000000  0.4573310000000 1.0
C      1  0.5644870000000  0.4572480000000  0.4815310000000 1.0
C      1  0.5654390000000  0.4792190000000  0.5432620000000 1.0
C      1  0.5650710000000  0.5418960000000  0.5212690000000 1.0
C      1  0.4337900000000  0.5192910000000  0.5431740000000 1.0
C      1  0.4335480000000  0.4568520000000  0.5198310000000 1.0
C      1  0.4335430000000  0.4805810000000  0.4573520000000 1.0
C      1  0.4334670000000  0.5431660000000  0.4807970000000 1.0
C      1  0.4792820000000  0.5325940000000  0.4244510000000 1.0
C      1  0.4788230000000  0.4238590000000  0.4681160000000 1.0
C      1  0.4793150000000  0.4671760000000  0.5757790000000 1.0
C      1  0.4792480000000  0.5758360000000  0.5326550000000 1.0
C      1  0.5183610000000  0.5308100000000  0.5765380000000 1.0
C      1  0.5182890000000  0.4231760000000  0.5323030000000 1.0
C      1  0.5171430000000  0.4689040000000  0.4260260000000 1.0
C      1  0.5170810000000  0.5767090000000  0.4684690000000 1.0
C      1  0.5590870000000  0.5614760000000  0.4333910000000 1.0
C      1  0.5585110000000  0.4340940000000  0.4400330000000 1.0
C      1  0.5589840000000  0.4395530000000  0.5686990000000 1.0
C      1  0.5584690000000  0.5670960000000  0.5605050000000 1.0
C      1  0.4384260000000  0.5587520000000  0.5691260000000 1.0
C      1  0.4381280000000  0.4307030000000  0.5596000000000 1.0
C      1  0.4382030000000  0.4407830000000  0.4315670000000 1.0
C      1  0.4379480000000  0.5691890000000  0.4407660000000 1.0
C      1  0.5401450000000  0.4805400000000  0.4432510000000 1.0
C      1  0.5439800000000  0.4337610000000  0.5227270000000 1.0
C      1  0.5443090000000  0.5209870000000  0.5667740000000 1.0
C      1  0.5400180000000  0.5587670000000  0.4796170000000 1.0
C      1  0.4534710000000  0.4768420000000  0.5660900000000 1.0
C      1  0.4531320000000  0.4338950000000  0.4776580000000 1.0
C      1  0.4532560000000  0.5229560000000  0.4341830000000 1.0
C      1  0.4534350000000  0.5658740000000  0.5230060000000 1.0
C      1  0.5288900000000  0.5237860000000  0.4246760000000 1.0
C      1  0.5277870000000  0.4248290000000  0.4777020000000 1.0
C      1  0.5282450000000  0.4764310000000  0.5758010000000 1.0
C      1  0.5279570000000  0.5744370000000  0.5234800000000 1.0
C      1  0.4693810000000  0.5217090000000  0.5767940000000 1.0
C      1  0.4690770000000  0.4230050000000  0.5226210000000 1.0
C      1  0.4689430000000  0.4778770000000  0.4235860000000 1.0
C      1  0.4685800000000  0.5774280000000  0.4778820000000 1.0
C      1  0.4219840000000  0.5194500000000  0.4918910000000 1.0
C      1  0.4218970000000  0.4915400000000  0.4809670000000 1.0
C      1  0.4219490000000  0.4804880000000  0.5087820000000 1.0
C      1  0.4219220000000  0.5083930000000  0.5197030000000 1.0
C      1  0.5775810000000  0.5188410000000  0.5096530000000 1.0
C      1  0.5773310000000  0.4908670000000  0.5198980000000 1.0
C      1  0.5765500000000  0.4807040000000  0.4922120000000 1.0
C      1  0.5774270000000  0.5088240000000  0.4813580000000 1.0
C      1  0.4972030000000  0.4832730000000  0.4711650000000 1.0
C      1  0.4953920000000  0.5314850000000  0.4821530000000 1.0
C      1  0.4967160000000  0.4700760000000  0.5186980000000 1.0
C      1  0.4996620000000  0.5160750000000  0.5278230000000 1.0
C      1  0.4723680000000  0.5002000000000  0.5007040000000 1.0
C      1  0.5296100000000  0.5078800000000  0.4891140000000 1.0
END
