TITL C-81869-6540-7 0.083382129574931 125000 -708.0581897397 0 0 100 (Cs) n - 1
REM
REM in /rds/project/t2_vol4/rds-t2-cs072/BORA/CARBON/from-Arr/AIRSS/Generating-Clusters/GAP-ML-2020/Higher-Symm/SD-CG/HFTN-CG
REM
REM
REM
REM
REM
REM ./C.cell (b20cbc046b6831c77cfcea5457e17084)
REM AIRSS Version 0.9.1 bugfix July 2018 build 013d7b7c2542+ Fri, 06 Jul 2018 19:26:36 +0100
REM compiler GCC version 9.3.0
REM options -cpp -mtune=generic -march=x86-64 -g -O0
REM seed -30052105 -417100261 -1140617890 -1427087743 752845063 -690682392 1373030441 1638832462 -1179442962 -2136577198 2038768315 617783592 1028089256 -839802751 -932945190 1386244109 1465572926 -592404222 788318073 -781269919 -1861390045 -1571472682 -134123596 -1491922922 -203900335 -1654633504 769269141 -510881236 1678838301 1067020987 166181142 -880510881 -1068963128
REM
CELL 1.54180   50.00000   50.00000   50.00000   90.00000   90.00000   90.00000
LATT -1
SFAC C  
C      1  0.4660480000000  0.4290460000000  0.4574610000000 1.0
C      1  0.4660610000000  0.4675270000000  0.4256430000000 1.0
C      1  0.4669940000000  0.5170170000000  0.4203520000000 1.0
C      1  0.4682840000000  0.5613130000000  0.4434000000000 1.0
C      1  0.4683850000000  0.5847480000000  0.4904020000000 1.0
C      1  0.4667850000000  0.5718390000000  0.5412870000000 1.0
C      1  0.4646530000000  0.5334510000000  0.5731740000000 1.0
C      1  0.4637200000000  0.4839640000000  0.5784980000000 1.0
C      1  0.4645450000000  0.4396000000000  0.5556010000000 1.0
C      1  0.4652050000000  0.4158160000000  0.5085200000000 1.0
C      1  0.5373780000000  0.4255260000000  0.5337280000000 1.0
C      1  0.5381400000000  0.4201800000000  0.4840210000000 1.0
C      1  0.5370730000000  0.4461310000000  0.4420830000000 1.0
C      1  0.5371000000000  0.4911570000000  0.4231960000000 1.0
C      1  0.5384020000000  0.5393090000000  0.4327280000000 1.0
C      1  0.5408740000000  0.5737930000000  0.4676650000000 1.0
C      1  0.5401170000000  0.5791130000000  0.5171330000000 1.0
C      1  0.5364760000000  0.5528350000000  0.5585100000000 1.0
C      1  0.5347280000000  0.5078050000000  0.5780160000000 1.0
C      1  0.5351270000000  0.4597940000000  0.5691390000000 1.0
C      1  0.5672680000000  0.5184180000000  0.5435420000000 1.0
C      1  0.5660710000000  0.4896210000000  0.5464070000000 1.0
C      1  0.5663490000000  0.4642630000000  0.5324330000000 1.0
C      1  0.5671330000000  0.4524170000000  0.5061450000000 1.0
C      1  0.5671840000000  0.4584020000000  0.4779280000000 1.0
C      1  0.5674110000000  0.4802090000000  0.4588820000000 1.0
C      1  0.5686150000000  0.5089610000000  0.4555950000000 1.0
C      1  0.5700600000000  0.5348340000000  0.4693540000000 1.0
C      1  0.5702780000000  0.5469860000000  0.4960240000000 1.0
C      1  0.5692130000000  0.5407800000000  0.5246470000000 1.0
C      1  0.4330990000000  0.5493370000000  0.5076190000000 1.0
C      1  0.4385620000000  0.5315550000000  0.5323830000000 1.0
C      1  0.4320120000000  0.5061470000000  0.5472260000000 1.0
C      1  0.4375160000000  0.4778390000000  0.5382540000000 1.0
C      1  0.4315840000000  0.4553530000000  0.5177460000000 1.0
C      1  0.4320070000000  0.4523790000000  0.4900870000000 1.0
C      1  0.4386310000000  0.4700110000000  0.4654570000000 1.0
C      1  0.4334940000000  0.4957470000000  0.4505110000000 1.0
C      1  0.4396730000000  0.5237500000000  0.4598040000000 1.0
C      1  0.4335220000000  0.5463720000000  0.4800460000000 1.0
C      1  0.4930450000000  0.4366330000000  0.5590640000000 1.0
C      1  0.4937100000000  0.4125520000000  0.5093070000000 1.0
C      1  0.4946300000000  0.4255040000000  0.4555720000000 1.0
C      1  0.4951450000000  0.4661370000000  0.4237960000000 1.0
C      1  0.4960410000000  0.5172070000000  0.4183730000000 1.0
C      1  0.4969990000000  0.5634520000000  0.4411370000000 1.0
C      1  0.4968450000000  0.5875270000000  0.4905390000000 1.0
C      1  0.4954250000000  0.5745030000000  0.5439120000000 1.0
C      1  0.4936280000000  0.5341510000000  0.5759460000000 1.0
C      1  0.4927300000000  0.4830930000000  0.5814780000000 1.0
C      1  0.5500280000000  0.4704200000000  0.4367580000000 1.0
C      1  0.5506450000000  0.5140990000000  0.4324520000000 1.0
C      1  0.5527600000000  0.5529740000000  0.4529750000000 1.0
C      1  0.5529340000000  0.5713060000000  0.4931430000000 1.0
C      1  0.5514840000000  0.5619310000000  0.5362650000000 1.0
C      1  0.5486230000000  0.5283000000000  0.5645090000000 1.0
C      1  0.5479940000000  0.4847020000000  0.5695690000000 1.0
C      1  0.5491130000000  0.4459760000000  0.5488700000000 1.0
C      1  0.5500170000000  0.4278170000000  0.5085280000000 1.0
C      1  0.5503930000000  0.4369830000000  0.4652410000000 1.0
C      1  0.5077960000000  0.4260150000000  0.5335120000000 1.0
C      1  0.5085660000000  0.4206080000000  0.4832320000000 1.0
C      1  0.5084980000000  0.4440120000000  0.4381860000000 1.0
C      1  0.5089900000000  0.4910870000000  0.4180070000000 1.0
C      1  0.5100720000000  0.5414210000000  0.4279640000000 1.0
C      1  0.5113180000000  0.5740700000000  0.4667430000000 1.0
C      1  0.5105470000000  0.5794830000000  0.5170800000000 1.0
C      1  0.5080210000000  0.5558190000000  0.5618560000000 1.0
C      1  0.5064740000000  0.5087490000000  0.5822470000000 1.0
C      1  0.5064410000000  0.4584580000000  0.5725300000000 1.0
C      1  0.4532270000000  0.5501080000000  0.5533990000000 1.0
C      1  0.4504740000000  0.5084600000000  0.5714370000000 1.0
C      1  0.4516350000000  0.4637850000000  0.5627740000000 1.0
C      1  0.4549220000000  0.4352190000000  0.5284830000000 1.0
C      1  0.4555940000000  0.4304980000000  0.4845870000000 1.0
C      1  0.4534400000000  0.4511120000000  0.4449240000000 1.0
C      1  0.4526880000000  0.4929210000000  0.4269310000000 1.0
C      1  0.4550290000000  0.5374590000000  0.4357790000000 1.0
C      1  0.4581190000000  0.5657690000000  0.4701810000000 1.0
C      1  0.4574490000000  0.5704680000000  0.5138760000000 1.0
C      1  0.5200230000000  0.5232320000000  0.5121640000000 1.0
C      1  0.5085180000000  0.5019610000000  0.5253860000000 1.0
C      1  0.5197690000000  0.4772900000000  0.5263340000000 1.0
C      1  0.5048010000000  0.4545010000000  0.5200150000000 1.0
C      1  0.5052570000000  0.4513030000000  0.4902690000000 1.0
C      1  0.5204840000000  0.4722760000000  0.4797060000000 1.0
C      1  0.5092890000000  0.4965470000000  0.4750480000000 1.0
C      1  0.5204580000000  0.5201810000000  0.4837880000000 1.0
C      1  0.5061150000000  0.5459410000000  0.4795240000000 1.0
C      1  0.5056420000000  0.5492630000000  0.5104180000000 1.0
C      1  0.4808820000000  0.5030000000000  0.5259420000000 1.0
C      1  0.4655060000000  0.4812580000000  0.5290200000000 1.0
C      1  0.4750360000000  0.4577390000000  0.5190340000000 1.0
C      1  0.4754860000000  0.4545780000000  0.4896370000000 1.0
C      1  0.4663390000000  0.4754060000000  0.4745970000000 1.0
C      1  0.4816860000000  0.4973550000000  0.4734460000000 1.0
C      1  0.4672760000000  0.5195990000000  0.4698990000000 1.0
C      1  0.4770870000000  0.5429200000000  0.4801980000000 1.0
C      1  0.4766380000000  0.5460730000000  0.5095230000000 1.0
C      1  0.4664430000000  0.5254430000000  0.5242420000000 1.0
END
