TITL C-81153-1746-8 -0.00662460341090737 125000 -43.8812878058426 0 0 8 (C3v) n - 1
REM
REM in /rds/project/t2_vol4/rds-t2-cs072/BORA/CARBON/from-Arr/AIRSS/Generating-Clusters/GAP-ML-2020/Higher-Symm/SD-CG/HFTN-CG
REM
REM
REM
REM
REM
REM ./C.cell (b20cbc046b6831c77cfcea5457e17084)
REM AIRSS Version 0.9.1 bugfix July 2018 build 013d7b7c2542+ Fri, 06 Jul 2018 19:26:36 +0100
REM compiler GCC version 9.3.0
REM options -cpp -mtune=generic -march=x86-64 -g -O0
REM seed 710502944 -15846904 720891 2068859613 1193564211 817976713 630309786 -2031650183 -1365502104 1821383050 -827779686 -984879590 -65922279 -1452149927 1233730817 -878016661 917390200 -365610525 2049623881 -627593646 2095812446 1112028794 668687244 -211883916 60291380 -580727916 1112308190 -304000556 -2119365023 -1138042335 -1716453191 841717475 472772500
REM
CELL 1.54180   50.00000   50.00000   50.00000   90.00000   90.00000   90.00000
LATT -1
SFAC C  
C      1  0.5132650000000  0.5276040000000  0.5036720000000 1.0
C      1  0.5132650000000  0.4919950000000  0.5282430000000 1.0
C      1  0.5132650000000  0.4885210000000  0.4851180000000 1.0
C      1  0.5230130000000  0.4740130000000  0.5079890000000 1.0
C      1  0.5230130000000  0.5150510000000  0.4796720000000 1.0
C      1  0.5230130000000  0.5190560000000  0.5293710000000 1.0
C      1  0.4929010000000  0.5027070000000  0.5056780000000 1.0
C      1  0.4667400000000  0.5027070000000  0.5056770000000 1.0
END
