TITL C-81964-7934-9 -0.0440557867559787 125000 -386.426987987569 0 0 57 (C1) n - 1
REM
REM in /rds/project/t2_vol4/rds-t2-cs072/BORA/CARBON/from-Arr/AIRSS/Generating-Clusters/GAP-ML-2020/Higher-Symm/SD-CG/HFTN-CG
REM
REM
REM
REM
REM
REM ./C.cell (b20cbc046b6831c77cfcea5457e17084)
REM AIRSS Version 0.9.1 bugfix July 2018 build 013d7b7c2542+ Fri, 06 Jul 2018 19:26:36 +0100
REM compiler GCC version 9.3.0
REM options -cpp -mtune=generic -march=x86-64 -g -O0
REM seed -847592892 -484845686 1853112110 1157914849 1893580276 44843357 529895279 -959471508 -2112028255 1997161143 530746849 1925617174 129235624 -746997297 609477920 1194641424 -163247685 1726935101 -409884237 -361760971 -845473566 -916350726 1679759008 -1758766529 893134961 -1025661543 1646972419 -1894262417 -627587087 -1176658940 -633828552 1207346678 887816466
REM
CELL 1.54180   50.00000   50.00000   50.00000   90.00000   90.00000   90.00000
LATT -1
SFAC C  
C      1  0.5394790000000  0.4718250000000  0.5313390000000 1.0
C      1  0.5155170000000  0.4345530000000  0.5035120000000 1.0
C      1  0.4357100000000  0.4976130000000  0.4621230000000 1.0
C      1  0.4986920000000  0.4489030000000  0.5466100000000 1.0
C      1  0.4713120000000  0.4795260000000  0.5273130000000 1.0
C      1  0.4931900000000  0.4587260000000  0.4441120000000 1.0
C      1  0.5119520000000  0.5493780000000  0.4505010000000 1.0
C      1  0.5321640000000  0.4606850000000  0.5047050000000 1.0
C      1  0.5028270000000  0.5361320000000  0.5455710000000 1.0
C      1  0.5133660000000  0.5645800000000  0.4750640000000 1.0
C      1  0.5515470000000  0.4976710000000  0.5309250000000 1.0
C      1  0.5633670000000  0.5398950000000  0.5515930000000 1.0
C      1  0.4935170000000  0.4915520000000  0.5106380000000 1.0
C      1  0.5138760000000  0.4241740000000  0.4779160000000 1.0
C      1  0.4619110000000  0.5284230000000  0.5235030000000 1.0
C      1  0.4639290000000  0.5092720000000  0.5612450000000 1.0
C      1  0.4751050000000  0.5080740000000  0.4832520000000 1.0
C      1  0.4881210000000  0.5188530000000  0.5075970000000 1.0
C      1  0.5385910000000  0.5518270000000  0.4809660000000 1.0
C      1  0.5143920000000  0.4432330000000  0.4582610000000 1.0
C      1  0.4745990000000  0.5329910000000  0.5500420000000 1.0
C      1  0.5756410000000  0.4765560000000  0.4835790000000 1.0
C      1  0.5198550000000  0.5173960000000  0.5587890000000 1.0
C      1  0.4647090000000  0.4378760000000  0.5135690000000 1.0
C      1  0.5524890000000  0.4617390000000  0.4827700000000 1.0
C      1  0.4526380000000  0.4616860000000  0.5119640000000 1.0
C      1  0.4654950000000  0.4596450000000  0.4450230000000 1.0
C      1  0.5386690000000  0.5364780000000  0.4569410000000 1.0
C      1  0.4265240000000  0.5004860000000  0.4907660000000 1.0
C      1  0.5039180000000  0.4849500000000  0.4410860000000 1.0
C      1  0.4887710000000  0.5343670000000  0.4486410000000 1.0
C      1  0.4816690000000  0.4889170000000  0.5707690000000 1.0
C      1  0.5471620000000  0.5170230000000  0.5519190000000 1.0
C      1  0.5080710000000  0.5413230000000  0.5154710000000 1.0
C      1  0.5383440000000  0.5394330000000  0.5076250000000 1.0
C      1  0.5201600000000  0.4675570000000  0.5513950000000 1.0
C      1  0.4302110000000  0.5291710000000  0.4889390000000 1.0
C      1  0.5620100000000  0.5004390000000  0.4825670000000 1.0
C      1  0.4775010000000  0.4663930000000  0.5530960000000 1.0
C      1  0.5318730000000  0.4843650000000  0.4459690000000 1.0
C      1  0.4460400000000  0.4758830000000  0.4495100000000 1.0
C      1  0.5119620000000  0.4805930000000  0.4929040000000 1.0
C      1  0.4347730000000  0.4855530000000  0.5128110000000 1.0
C      1  0.4639240000000  0.5445090000000  0.4603430000000 1.0
C      1  0.5173540000000  0.5020470000000  0.4744240000000 1.0
C      1  0.5381040000000  0.4594470000000  0.4576020000000 1.0
C      1  0.4948200000000  0.5610610000000  0.4962300000000 1.0
C      1  0.4508660000000  0.5017720000000  0.5327890000000 1.0
C      1  0.5540040000000  0.5123370000000  0.5067970000000 1.0
C      1  0.4405910000000  0.5271400000000  0.4618480000000 1.0
C      1  0.4928040000000  0.4362530000000  0.5210800000000 1.0
C      1  0.4482770000000  0.5445320000000  0.5041750000000 1.0
C      1  0.4929970000000  0.5073570000000  0.4591360000000 1.0
C      1  0.5095550000000  0.4914260000000  0.5655140000000 1.0
C      1  0.4676570000000  0.5568110000000  0.4862110000000 1.0
C      1  0.5543300000000  0.5514050000000  0.5307090000000 1.0
C      1  0.5430670000000  0.5081870000000  0.4602510000000 1.0
END
