TITL C-81864-6829-13 83.14173286755 125000 -783.850063380824 0 0 115 (C1) n - 1
REM
REM in /rds/project/t2_vol4/rds-t2-cs072/BORA/CARBON/from-Arr/AIRSS/Generating-Clusters/GAP-ML-2020/Higher-Symm/SD-CG/HFTN-CG
REM
REM
REM
REM
REM
REM ./C.cell (b20cbc046b6831c77cfcea5457e17084)
REM AIRSS Version 0.9.1 bugfix July 2018 build 013d7b7c2542+ Fri, 06 Jul 2018 19:26:36 +0100
REM compiler GCC version 9.3.0
REM options -cpp -mtune=generic -march=x86-64 -g -O0
REM seed 998164431 1403034 -522939329 -361944263 2008677383 1601961465 1380416210 -1291374757 1721084634 2066946135 1254141135 -821254878 1493217246 2092592455 1889617655 540513540 -889345390 -266855780 -2122933660 1842908030 -572805775 2147069573 -1376560995 195791572 1281026261 -1235475431 1907873410 1540440310 253408402 950276349 -2090004988 1538999979 1408287422
REM
CELL 1.54180   50.00000   50.00000   50.00000   90.00000   90.00000   90.00000
LATT -1
SFAC C  
C      1  0.5711310000000  0.5476720000000  0.4823250000000 1.0
C      1  0.4377680000000  0.5603960000000  0.4904210000000 1.0
C      1  0.4326470000000  0.4398810000000  0.4808050000000 1.0
C      1  0.5565050000000  0.4248800000000  0.4879180000000 1.0
C      1  0.5760410000000  0.5505080000000  0.5107310000000 1.0
C      1  0.4327680000000  0.5610300000000  0.5188200000000 1.0
C      1  0.4318560000000  0.4400820000000  0.5096620000000 1.0
C      1  0.5559870000000  0.4269310000000  0.5174910000000 1.0
C      1  0.5590980000000  0.5749300000000  0.5113940000000 1.0
C      1  0.4145140000000  0.5386780000000  0.5144200000000 1.0
C      1  0.4548940000000  0.4223020000000  0.5114040000000 1.0
C      1  0.5771840000000  0.4482550000000  0.5159810000000 1.0
C      1  0.5504040000000  0.5681390000000  0.4839780000000 1.0
C      1  0.4183550000000  0.5395480000000  0.4846510000000 1.0
C      1  0.4557720000000  0.4213870000000  0.4819380000000 1.0
C      1  0.5764000000000  0.4464750000000  0.4864210000000 1.0
C      1  0.5327830000000  0.4695830000000  0.5361220000000 1.0
C      1  0.5217810000000  0.5175390000000  0.5285770000000 1.0
C      1  0.4758380000000  0.5251830000000  0.5221490000000 1.0
C      1  0.4838910000000  0.4800880000000  0.5190820000000 1.0
C      1  0.5294840000000  0.4684050000000  0.4667280000000 1.0
C      1  0.5137740000000  0.5124870000000  0.4803180000000 1.0
C      1  0.4796250000000  0.5410520000000  0.4676640000000 1.0
C      1  0.4807000000000  0.4736260000000  0.4723280000000 1.0
C      1  0.4852280000000  0.5252790000000  0.5771750000000 1.0
C      1  0.4583310000000  0.4735740000000  0.5756050000000 1.0
C      1  0.5139930000000  0.4674530000000  0.5798830000000 1.0
C      1  0.5303060000000  0.5415260000000  0.5794680000000 1.0
C      1  0.4684160000000  0.5394270000000  0.4186420000000 1.0
C      1  0.4724050000000  0.4697620000000  0.4254240000000 1.0
C      1  0.5190040000000  0.4607740000000  0.4200990000000 1.0
C      1  0.5198410000000  0.5136480000000  0.4099390000000 1.0
C      1  0.4787760000000  0.5553870000000  0.5148230000000 1.0
C      1  0.4556380000000  0.4825710000000  0.5121820000000 1.0
C      1  0.5213700000000  0.4501420000000  0.5167280000000 1.0
C      1  0.5479620000000  0.5111140000000  0.5151890000000 1.0
C      1  0.4675390000000  0.5610230000000  0.4864780000000 1.0
C      1  0.4544100000000  0.4805500000000  0.4826370000000 1.0
C      1  0.5221580000000  0.4483860000000  0.4861090000000 1.0
C      1  0.5441450000000  0.5091920000000  0.4858790000000 1.0
C      1  0.5056940000000  0.4069340000000  0.4872060000000 1.0
C      1  0.5868530000000  0.4994160000000  0.4822980000000 1.0
C      1  0.5068140000000  0.5980840000000  0.4862310000000 1.0
C      1  0.4100510000000  0.4881040000000  0.4826960000000 1.0
C      1  0.5046840000000  0.4094900000000  0.5145370000000 1.0
C      1  0.5901400000000  0.5009830000000  0.5098600000000 1.0
C      1  0.5175250000000  0.5917930000000  0.5133260000000 1.0
C      1  0.4115740000000  0.4878800000000  0.5098270000000 1.0
C      1  0.4860890000000  0.4630440000000  0.5670450000000 1.0
C      1  0.5250510000000  0.4953110000000  0.5766570000000 1.0
C      1  0.5174900000000  0.5591250000000  0.5607000000000 1.0
C      1  0.4514050000000  0.5019300000000  0.5652430000000 1.0
C      1  0.4926370000000  0.4490370000000  0.4246420000000 1.0
C      1  0.5289150000000  0.4869740000000  0.4156710000000 1.0
C      1  0.5147130000000  0.5448090000000  0.4370590000000 1.0
C      1  0.4504090000000  0.5236640000000  0.4344720000000 1.0
C      1  0.5080520000000  0.5393740000000  0.4671780000000 1.0
C      1  0.4667300000000  0.5169280000000  0.4576710000000 1.0
C      1  0.4827250000000  0.4906620000000  0.4484950000000 1.0
C      1  0.5067130000000  0.4890240000000  0.4646640000000 1.0
C      1  0.5185860000000  0.5467810000000  0.5351050000000 1.0
C      1  0.4754930000000  0.5120440000000  0.5529940000000 1.0
C      1  0.4895170000000  0.4860030000000  0.5470560000000 1.0
C      1  0.5183470000000  0.4935410000000  0.5469580000000 1.0
C      1  0.4228960000000  0.5123510000000  0.5240300000000 1.0
C      1  0.4811830000000  0.4262920000000  0.5259640000000 1.0
C      1  0.5806920000000  0.4759980000000  0.5227960000000 1.0
C      1  0.5439400000000  0.5947540000000  0.5225540000000 1.0
C      1  0.4202990000000  0.5135860000000  0.4706430000000 1.0
C      1  0.4835050000000  0.4213810000000  0.4711490000000 1.0
C      1  0.5766570000000  0.4732470000000  0.4750420000000 1.0
C      1  0.5278510000000  0.5840820000000  0.4726940000000 1.0
C      1  0.4242940000000  0.4724300000000  0.5507490000000 1.0
C      1  0.5176620000000  0.4291720000000  0.5551320000000 1.0
C      1  0.5711020000000  0.5183640000000  0.5541750000000 1.0
C      1  0.4649930000000  0.5687550000000  0.5594730000000 1.0
C      1  0.4305610000000  0.4802060000000  0.4415000000000 1.0
C      1  0.5238580000000  0.4252160000000  0.4481320000000 1.0
C      1  0.5588600000000  0.5164560000000  0.4415600000000 1.0
C      1  0.4845480000000  0.5836380000000  0.4463660000000 1.0
C      1  0.4917290000000  0.4489420000000  0.4831600000000 1.0
C      1  0.5499350000000  0.4797070000000  0.4836380000000 1.0
C      1  0.5202840000000  0.5582730000000  0.4852300000000 1.0
C      1  0.4487810000000  0.5097120000000  0.4803550000000 1.0
C      1  0.4918320000000  0.4525120000000  0.5128730000000 1.0
C      1  0.5528140000000  0.4806510000000  0.5177510000000 1.0
C      1  0.5087470000000  0.5627680000000  0.5133470000000 1.0
C      1  0.4511810000000  0.5123620000000  0.5106310000000 1.0
C      1  0.4273760000000  0.5012110000000  0.5510160000000 1.0
C      1  0.4901070000000  0.4351150000000  0.5537440000000 1.0
C      1  0.5544390000000  0.5021110000000  0.5711850000000 1.0
C      1  0.4922580000000  0.5704760000000  0.5680420000000 1.0
C      1  0.4274200000000  0.5081820000000  0.4419980000000 1.0
C      1  0.4963000000000  0.4267400000000  0.4436000000000 1.0
C      1  0.5512710000000  0.4918850000000  0.4326780000000 1.0
C      1  0.5021690000000  0.5709570000000  0.4293640000000 1.0
C      1  0.4735640000000  0.5669210000000  0.4256480000000 1.0
C      1  0.4457420000000  0.4702550000000  0.4210860000000 1.0
C      1  0.5345630000000  0.4508140000000  0.4415460000000 1.0
C      1  0.5382930000000  0.5299850000000  0.4259100000000 1.0
C      1  0.4753680000000  0.5520130000000  0.5796350000000 1.0
C      1  0.4345970000000  0.4604780000000  0.5738970000000 1.0
C      1  0.5301500000000  0.4525570000000  0.5627950000000 1.0
C      1  0.5555100000000  0.5302830000000  0.5733450000000 1.0
C      1  0.5300040000000  0.4201850000000  0.4760220000000 1.0
C      1  0.5685110000000  0.5208800000000  0.4699250000000 1.0
C      1  0.4822430000000  0.5866250000000  0.4744460000000 1.0
C      1  0.4291790000000  0.4680210000000  0.4696790000000 1.0
C      1  0.5277550000000  0.4225550000000  0.5281690000000 1.0
C      1  0.5745670000000  0.5232560000000  0.5244530000000 1.0
C      1  0.4569980000000  0.5670970000000  0.5327780000000 1.0
C      1  0.4283590000000  0.4666200000000  0.5222050000000 1.0
C      1  0.4963300000000  0.5297680000000  0.4167890000000 1.0
C      1  0.5123760000000  0.5204010000000  0.5851230000000 1.0
C      1  0.4992260000000  0.5102020000000  0.5100870000000 1.0
END
