TITL C-81940-4232-3 -0.0695988014725237 125000 -793.501917616322 0 0 116 (Ci) n - 1
REM
REM in /rds/project/t2_vol4/rds-t2-cs072/BORA/CARBON/from-Arr/AIRSS/Generating-Clusters/GAP-ML-2020/Higher-Symm/SD-CG/HFTN-CG
REM
REM
REM
REM
REM
REM ./C.cell (b20cbc046b6831c77cfcea5457e17084)
REM AIRSS Version 0.9.1 bugfix July 2018 build 013d7b7c2542+ Fri, 06 Jul 2018 19:26:36 +0100
REM compiler GCC version 9.3.0
REM options -cpp -mtune=generic -march=x86-64 -g -O0
REM seed 38784263 -779517343 -225115215 718722195 -992930554 -2143337943 1826409267 2109264230 -387800535 -4703641 1602098986 -2042653942 489208264 -966008538 1829524095 -1807917998 432105101 251506918 -295454374 -1609073340 -176747774 209337807 586799464 1682814307 -1817462282 -2062987791 -369466987 473479913 1929844306 -359387291 2095494643 1878284977 707958835
REM
CELL 1.54180   50.00000   50.00000   50.00000   90.00000   90.00000   90.00000
LATT -1
SFAC C  
C      1  0.5416950000000  0.4196580000000  0.5321950000000 1.0
C      1  0.4583050000000  0.5803420000000  0.4678050000000 1.0
C      1  0.5829020000000  0.4678030000000  0.4866450000000 1.0
C      1  0.4170980000000  0.5321970000000  0.5133550000000 1.0
C      1  0.4708070000000  0.5443930000000  0.5357480000000 1.0
C      1  0.5291930000000  0.4556070000000  0.4642520000000 1.0
C      1  0.5338790000000  0.4972790000000  0.5706410000000 1.0
C      1  0.4661210000000  0.5027210000000  0.4293590000000 1.0
C      1  0.5194170000000  0.4712890000000  0.5818070000000 1.0
C      1  0.4805830000000  0.5287110000000  0.4181930000000 1.0
C      1  0.4813770000000  0.4236310000000  0.4604960000000 1.0
C      1  0.5186230000000  0.5763690000000  0.5395040000000 1.0
C      1  0.4705730000000  0.4774710000000  0.5038450000000 1.0
C      1  0.5294270000000  0.5225290000000  0.4961550000000 1.0
C      1  0.4958040000000  0.4955000000000  0.4697150000000 1.0
C      1  0.5041960000000  0.5045000000000  0.5302850000000 1.0
C      1  0.5431980000000  0.5037840000000  0.4423630000000 1.0
C      1  0.4568020000000  0.4962160000000  0.5576370000000 1.0
C      1  0.4414280000000  0.4374560000000  0.5162730000000 1.0
C      1  0.5585720000000  0.5625440000000  0.4837270000000 1.0
C      1  0.4114370000000  0.4675710000000  0.4552270000000 1.0
C      1  0.5885630000000  0.5324290000000  0.5447730000000 1.0
C      1  0.5120480000000  0.5847750000000  0.4862250000000 1.0
C      1  0.4879520000000  0.4152250000000  0.5137750000000 1.0
C      1  0.5080870000000  0.4545430000000  0.5222790000000 1.0
C      1  0.4919130000000  0.5454570000000  0.4777210000000 1.0
C      1  0.4949570000000  0.4892840000000  0.4372930000000 1.0
C      1  0.5050430000000  0.5107160000000  0.5627070000000 1.0
C      1  0.5227730000000  0.5406930000000  0.4722820000000 1.0
C      1  0.4772270000000  0.4593070000000  0.5277180000000 1.0
C      1  0.4375370000000  0.4374690000000  0.4876880000000 1.0
C      1  0.5624630000000  0.5625310000000  0.5123120000000 1.0
C      1  0.5321810000000  0.4184800000000  0.4881110000000 1.0
C      1  0.4678190000000  0.5815200000000  0.5118890000000 1.0
C      1  0.4731080000000  0.5872590000000  0.5414590000000 1.0
C      1  0.5268920000000  0.4127410000000  0.4585410000000 1.0
C      1  0.5561330000000  0.4838280000000  0.5520540000000 1.0
C      1  0.4438670000000  0.5161720000000  0.4479460000000 1.0
C      1  0.4271960000000  0.5395960000000  0.5576650000000 1.0
C      1  0.5728040000000  0.4604040000000  0.4423350000000 1.0
C      1  0.5711500000000  0.5373270000000  0.5226490000000 1.0
C      1  0.4288500000000  0.4626730000000  0.4773510000000 1.0
C      1  0.5089260000000  0.5833160000000  0.4595560000000 1.0
C      1  0.4910740000000  0.4166840000000  0.5404440000000 1.0
C      1  0.4986620000000  0.5875930000000  0.5556250000000 1.0
C      1  0.5013380000000  0.4124070000000  0.4443750000000 1.0
C      1  0.5584940000000  0.5147120000000  0.5084320000000 1.0
C      1  0.4415060000000  0.4852880000000  0.4915680000000 1.0
C      1  0.4396000000000  0.5585240000000  0.4682280000000 1.0
C      1  0.5604000000000  0.4414760000000  0.5317720000000 1.0
C      1  0.5699550000000  0.4885670000000  0.4453750000000 1.0
C      1  0.4300450000000  0.5114330000000  0.5546250000000 1.0
C      1  0.4225870000000  0.4790120000000  0.4299300000000 1.0
C      1  0.5774130000000  0.5209880000000  0.5700700000000 1.0
C      1  0.4544840000000  0.4693910000000  0.5461900000000 1.0
C      1  0.5455160000000  0.5306090000000  0.4538100000000 1.0
C      1  0.4927890000000  0.5664520000000  0.5004620000000 1.0
C      1  0.5072110000000  0.4335480000000  0.4995380000000 1.0
C      1  0.4851800000000  0.4712380000000  0.4798230000000 1.0
C      1  0.5148200000000  0.5287620000000  0.5201770000000 1.0
C      1  0.5678260000000  0.5390970000000  0.4696960000000 1.0
C      1  0.4321740000000  0.4609030000000  0.5303040000000 1.0
C      1  0.5336050000000  0.4843820000000  0.4642040000000 1.0
C      1  0.4663950000000  0.5156180000000  0.5357960000000 1.0
C      1  0.4793240000000  0.5176580000000  0.4833870000000 1.0
C      1  0.5206760000000  0.4823420000000  0.5166130000000 1.0
C      1  0.5622890000000  0.4602040000000  0.5079930000000 1.0
C      1  0.4377110000000  0.5397960000000  0.4920070000000 1.0
C      1  0.4399940000000  0.5590690000000  0.5708810000000 1.0
C      1  0.5600060000000  0.4409310000000  0.4291190000000 1.0
C      1  0.4922220000000  0.4590690000000  0.4269900000000 1.0
C      1  0.5077780000000  0.5409310000000  0.5730100000000 1.0
C      1  0.4163410000000  0.5052330000000  0.4402330000000 1.0
C      1  0.5836590000000  0.4947670000000  0.5597670000000 1.0
C      1  0.4529920000000  0.4236700000000  0.4684290000000 1.0
C      1  0.5470080000000  0.5763300000000  0.5315710000000 1.0
C      1  0.4645410000000  0.4544750000000  0.4269650000000 1.0
C      1  0.5354590000000  0.5455250000000  0.5730350000000 1.0
C      1  0.5501430000000  0.5217610000000  0.5774420000000 1.0
C      1  0.4498570000000  0.4782390000000  0.4225580000000 1.0
C      1  0.4930510000000  0.4754790000000  0.5897980000000 1.0
C      1  0.5069490000000  0.5245210000000  0.4102020000000 1.0
C      1  0.4491410000000  0.5137430000000  0.4788630000000 1.0
C      1  0.5508590000000  0.4862570000000  0.5211370000000 1.0
C      1  0.5748620000000  0.4483490000000  0.4681070000000 1.0
C      1  0.4251380000000  0.5516510000000  0.5318930000000 1.0
C      1  0.5084150000000  0.4359380000000  0.4274200000000 1.0
C      1  0.4915850000000  0.5640620000000  0.5725800000000 1.0
C      1  0.5537440000000  0.4550500000000  0.5553690000000 1.0
C      1  0.4462560000000  0.5449500000000  0.4446310000000 1.0
C      1  0.5770460000000  0.5166590000000  0.4850540000000 1.0
C      1  0.4229540000000  0.4833410000000  0.5149460000000 1.0
C      1  0.5420400000000  0.5674470000000  0.5570190000000 1.0
C      1  0.4579600000000  0.4325530000000  0.4429810000000 1.0
C      1  0.4708390000000  0.5519850000000  0.4323260000000 1.0
C      1  0.5291610000000  0.4480150000000  0.5676740000000 1.0
C      1  0.5989480000000  0.5063860000000  0.5395040000000 1.0
C      1  0.4010520000000  0.4936140000000  0.4604960000000 1.0
C      1  0.5347970000000  0.4359010000000  0.4404870000000 1.0
C      1  0.4652030000000  0.5640990000000  0.5595130000000 1.0
C      1  0.5002430000000  0.4473430000000  0.4746850000000 1.0
C      1  0.4997570000000  0.5526570000000  0.5253150000000 1.0
C      1  0.5159750000000  0.4326520000000  0.5452830000000 1.0
C      1  0.4840250000000  0.5673480000000  0.4547170000000 1.0
C      1  0.4792970000000  0.5051250000000  0.5130730000000 1.0
C      1  0.5207030000000  0.4948750000000  0.4869270000000 1.0
C      1  0.5189690000000  0.5049010000000  0.4242300000000 1.0
C      1  0.4810310000000  0.4950990000000  0.5757700000000 1.0
C      1  0.4604990000000  0.5971400000000  0.4889190000000 1.0
C      1  0.5395010000000  0.4028600000000  0.5110810000000 1.0
C      1  0.4505700000000  0.5559410000000  0.5166260000000 1.0
C      1  0.5494300000000  0.4440590000000  0.4833740000000 1.0
C      1  0.4177310000000  0.5072580000000  0.5281400000000 1.0
C      1  0.5822690000000  0.4927420000000  0.4718600000000 1.0
C      1  0.4678950000000  0.4310460000000  0.5270540000000 1.0
C      1  0.5321050000000  0.5689540000000  0.4729460000000 1.0
END
