TITL C-81943-2548-2 19.8967791537653 125000 -1129.70062274857 0 0 159 (C1) n - 1
REM
REM in /rds/project/t2_vol4/rds-t2-cs072/BORA/CARBON/from-Arr/AIRSS/Generating-Clusters/GAP-ML-2020/Higher-Symm/SD-CG/HFTN-CG
REM
REM
REM
REM
REM
REM ./C.cell (b20cbc046b6831c77cfcea5457e17084)
REM AIRSS Version 0.9.1 bugfix July 2018 build 013d7b7c2542+ Fri, 06 Jul 2018 19:26:36 +0100
REM compiler GCC version 9.3.0
REM options -cpp -mtune=generic -march=x86-64 -g -O0
REM seed -1616125195 -951673044 -221510810 -127761802 1479070326 973299264 -643788162 -654280174 -1969745630 811517667 -7138749 -1699852944 1896179273 -1873450014 -1603948660 2091571399 1837316909 -493427528 1304988978 407141004 645994697 -1447698714 1910896701 161297342 -1306266113 1492391764 -1289760604 1941924405 -1113136395 222230019 1061321711 828079832 -663067249
REM
CELL 1.54180   50.00000   50.00000   50.00000   90.00000   90.00000   90.00000
LATT -1
SFAC C  
C      1  0.4959030000000  0.6006080000000  0.5080010000000 1.0
C      1  0.4969390000000  0.4546200000000  0.4087800000000 1.0
C      1  0.4962360000000  0.4428090000000  0.5834930000000 1.0
C      1  0.4945410000000  0.3976950000000  0.5078650000000 1.0
C      1  0.4969690000000  0.5432990000000  0.4093070000000 1.0
C      1  0.4967360000000  0.5571980000000  0.5844950000000 1.0
C      1  0.5229270000000  0.5118140000000  0.4281990000000 1.0
C      1  0.5171870000000  0.4288380000000  0.5253260000000 1.0
C      1  0.5289280000000  0.5524410000000  0.5488490000000 1.0
C      1  0.5296270000000  0.4826070000000  0.4301110000000 1.0
C      1  0.5287460000000  0.5672310000000  0.5218790000000 1.0
C      1  0.5202420000000  0.4438290000000  0.5485980000000 1.0
C      1  0.5418930000000  0.4873060000000  0.4757120000000 1.0
C      1  0.5501810000000  0.4868040000000  0.5235700000000 1.0
C      1  0.5469220000000  0.5289220000000  0.4998730000000 1.0
C      1  0.5510040000000  0.5154400000000  0.4763660000000 1.0
C      1  0.5393780000000  0.5140530000000  0.5239490000000 1.0
C      1  0.5505540000000  0.4729950000000  0.4996270000000 1.0
C      1  0.4517980000000  0.5133510000000  0.5224040000000 1.0
C      1  0.4647650000000  0.5123980000000  0.4755190000000 1.0
C      1  0.4642490000000  0.4731100000000  0.4981640000000 1.0
C      1  0.4640510000000  0.4878310000000  0.5239000000000 1.0
C      1  0.4522010000000  0.4869250000000  0.4766750000000 1.0
C      1  0.4641710000000  0.5271130000000  0.5007940000000 1.0
C      1  0.5521700000000  0.5583720000000  0.5043570000000 1.0
C      1  0.5530890000000  0.4728480000000  0.4499930000000 1.0
C      1  0.5643550000000  0.4762700000000  0.5491980000000 1.0
C      1  0.5606120000000  0.4450710000000  0.4974750000000 1.0
C      1  0.5645080000000  0.5332790000000  0.4551210000000 1.0
C      1  0.5512090000000  0.5318220000000  0.5482940000000 1.0
C      1  0.5879370000000  0.5001490000000  0.4294310000000 1.0
C      1  0.5699380000000  0.4480610000000  0.5464350000000 1.0
C      1  0.5792740000000  0.5533690000000  0.5150070000000 1.0
C      1  0.5732050000000  0.5213030000000  0.4299820000000 1.0
C      1  0.5788370000000  0.5382310000000  0.5394840000000 1.0
C      1  0.5768500000000  0.4383860000000  0.5224830000000 1.0
C      1  0.5147480000000  0.4288910000000  0.4777210000000 1.0
C      1  0.5149500000000  0.5152890000000  0.5737970000000 1.0
C      1  0.5161200000000  0.5538520000000  0.4516310000000 1.0
C      1  0.5146360000000  0.5698120000000  0.4775850000000 1.0
C      1  0.5162770000000  0.4850620000000  0.5721210000000 1.0
C      1  0.5147950000000  0.4429590000000  0.4508530000000 1.0
C      1  0.5561980000000  0.4286820000000  0.4257610000000 1.0
C      1  0.5560780000000  0.4703250000000  0.5984370000000 1.0
C      1  0.5533860000000  0.6022560000000  0.4780620000000 1.0
C      1  0.5541410000000  0.5719150000000  0.4252730000000 1.0
C      1  0.5560910000000  0.5313250000000  0.5982500000000 1.0
C      1  0.5550280000000  0.3986100000000  0.4791180000000 1.0
C      1  0.6077830000000  0.5140980000000  0.4729450000000 1.0
C      1  0.6044820000000  0.4711890000000  0.4965890000000 1.0
C      1  0.6166700000000  0.5123130000000  0.5218790000000 1.0
C      1  0.6010940000000  0.4865200000000  0.4716350000000 1.0
C      1  0.6167420000000  0.5263640000000  0.4984550000000 1.0
C      1  0.6101620000000  0.4839750000000  0.5222110000000 1.0
C      1  0.4736270000000  0.5959960000000  0.5254560000000 1.0
C      1  0.4753550000000  0.4734570000000  0.4039150000000 1.0
C      1  0.4738560000000  0.4292110000000  0.5708060000000 1.0
C      1  0.4724590000000  0.4024170000000  0.5259100000000 1.0
C      1  0.4745260000000  0.5258520000000  0.4042460000000 1.0
C      1  0.4747360000000  0.5701070000000  0.5708410000000 1.0
C      1  0.4016590000000  0.4836450000000  0.5264710000000 1.0
C      1  0.4014090000000  0.5314230000000  0.4990210000000 1.0
C      1  0.4037170000000  0.4862390000000  0.4752580000000 1.0
C      1  0.4034870000000  0.5143470000000  0.5241020000000 1.0
C      1  0.4017260000000  0.4688830000000  0.5007040000000 1.0
C      1  0.4015380000000  0.5164040000000  0.4728740000000 1.0
C      1  0.5655870000000  0.4876400000000  0.6182120000000 1.0
C      1  0.5611540000000  0.6106790000000  0.4523630000000 1.0
C      1  0.5665270000000  0.4034500000000  0.4327950000000 1.0
C      1  0.5657680000000  0.5132480000000  0.6175260000000 1.0
C      1  0.5656770000000  0.3901220000000  0.4546440000000 1.0
C      1  0.5613500000000  0.5985150000000  0.4297460000000 1.0
C      1  0.5978510000000  0.5477270000000  0.4944820000000 1.0
C      1  0.5832610000000  0.4807850000000  0.4488910000000 1.0
C      1  0.5920570000000  0.4883230000000  0.5455620000000 1.0
C      1  0.5906290000000  0.4469390000000  0.5002620000000 1.0
C      1  0.5914350000000  0.5376310000000  0.4675300000000 1.0
C      1  0.5973110000000  0.5172930000000  0.5432040000000 1.0
C      1  0.3703410000000  0.5279210000000  0.5000770000000 1.0
C      1  0.3730740000000  0.4853890000000  0.4743540000000 1.0
C      1  0.3707540000000  0.4862370000000  0.5241520000000 1.0
C      1  0.3708370000000  0.4720120000000  0.4993540000000 1.0
C      1  0.3704400000000  0.5136290000000  0.4752130000000 1.0
C      1  0.3728200000000  0.5146010000000  0.5250010000000 1.0
C      1  0.4265280000000  0.5681800000000  0.4764370000000 1.0
C      1  0.4289390000000  0.4475300000000  0.4549140000000 1.0
C      1  0.4266470000000  0.4853550000000  0.5703970000000 1.0
C      1  0.4261780000000  0.4315910000000  0.4772410000000 1.0
C      1  0.4267830000000  0.5543170000000  0.4523020000000 1.0
C      1  0.4290810000000  0.5126610000000  0.5677690000000 1.0
C      1  0.4517840000000  0.4679070000000  0.4202970000000 1.0
C      1  0.4501330000000  0.4458990000000  0.5689020000000 1.0
C      1  0.4497360000000  0.5872300000000  0.5114400000000 1.0
C      1  0.4502370000000  0.5336560000000  0.4183660000000 1.0
C      1  0.4512300000000  0.5530650000000  0.5675380000000 1.0
C      1  0.4489030000000  0.4124220000000  0.5122790000000 1.0
C      1  0.5247650000000  0.5342630000000  0.4079210000000 1.0
C      1  0.5220400000000  0.4005030000000  0.5164960000000 1.0
C      1  0.5249180000000  0.5618170000000  0.5780030000000 1.0
C      1  0.5251620000000  0.4606250000000  0.4076310000000 1.0
C      1  0.5238070000000  0.5974120000000  0.5155290000000 1.0
C      1  0.5242250000000  0.4375400000000  0.5775860000000 1.0
C      1  0.5436370000000  0.4413790000000  0.4036350000000 1.0
C      1  0.5446970000000  0.4450690000000  0.5932310000000 1.0
C      1  0.5422110000000  0.6119440000000  0.5018670000000 1.0
C      1  0.5436400000000  0.5536630000000  0.4064000000000 1.0
C      1  0.5445390000000  0.5569490000000  0.5960630000000 1.0
C      1  0.5430720000000  0.3902030000000  0.5031380000000 1.0
C      1  0.4160790000000  0.5281820000000  0.4500720000000 1.0
C      1  0.4156360000000  0.4430900000000  0.5010140000000 1.0
C      1  0.4266920000000  0.5239870000000  0.5406210000000 1.0
C      1  0.4269120000000  0.4767110000000  0.4586960000000 1.0
C      1  0.4157770000000  0.5570390000000  0.5001930000000 1.0
C      1  0.4159020000000  0.4705200000000  0.5486100000000 1.0
C      1  0.5102760000000  0.5240310000000  0.4510380000000 1.0
C      1  0.5067960000000  0.4435050000000  0.5027620000000 1.0
C      1  0.5070280000000  0.5304700000000  0.5486510000000 1.0
C      1  0.5082240000000  0.4723430000000  0.4498910000000 1.0
C      1  0.5071480000000  0.5557490000000  0.5029200000000 1.0
C      1  0.5091970000000  0.4705190000000  0.5469310000000 1.0
C      1  0.4952500000000  0.5294240000000  0.5020470000000 1.0
C      1  0.5085140000000  0.4857350000000  0.4754520000000 1.0
C      1  0.4953080000000  0.4861310000000  0.5264310000000 1.0
C      1  0.4956780000000  0.4701920000000  0.4990170000000 1.0
C      1  0.4960500000000  0.5126370000000  0.4736280000000 1.0
C      1  0.5071700000000  0.5142990000000  0.5247130000000 1.0
C      1  0.4948700000000  0.5910030000000  0.4809960000000 1.0
C      1  0.4949980000000  0.4358730000000  0.4306110000000 1.0
C      1  0.4955050000000  0.4708360000000  0.5880680000000 1.0
C      1  0.4942200000000  0.4078890000000  0.4813670000000 1.0
C      1  0.4961790000000  0.5616260000000  0.4310260000000 1.0
C      1  0.4951240000000  0.5289290000000  0.5902620000000 1.0
C      1  0.4491770000000  0.5276230000000  0.5809340000000 1.0
C      1  0.4489790000000  0.5572430000000  0.4342740000000 1.0
C      1  0.4477390000000  0.4137930000000  0.4837640000000 1.0
C      1  0.4487720000000  0.4711730000000  0.5820320000000 1.0
C      1  0.4492470000000  0.4435500000000  0.4355740000000 1.0
C      1  0.4484880000000  0.5853830000000  0.4829930000000 1.0
C      1  0.4294800000000  0.4312090000000  0.5231940000000 1.0
C      1  0.4332750000000  0.5527690000000  0.5451600000000 1.0
C      1  0.4306370000000  0.5148780000000  0.4289120000000 1.0
C      1  0.4301590000000  0.5687400000000  0.5223420000000 1.0
C      1  0.4299640000000  0.4454920000000  0.5477020000000 1.0
C      1  0.4336930000000  0.4871470000000  0.4314410000000 1.0
C      1  0.5455750000000  0.5170200000000  0.5741290000000 1.0
C      1  0.5470020000000  0.5576870000000  0.4514760000000 1.0
C      1  0.5464260000000  0.4277260000000  0.4774430000000 1.0
C      1  0.5477300000000  0.4858720000000  0.5738110000000 1.0
C      1  0.5454980000000  0.4429470000000  0.4499820000000 1.0
C      1  0.5450830000000  0.5731540000000  0.4784550000000 1.0
C      1  0.4713650000000  0.5862570000000  0.4665700000000 1.0
C      1  0.4710330000000  0.4266910000000  0.4419870000000 1.0
C      1  0.4716420000000  0.4853880000000  0.5913010000000 1.0
C      1  0.4706210000000  0.4126710000000  0.4669610000000 1.0
C      1  0.4720680000000  0.5715730000000  0.4419940000000 1.0
C      1  0.4712850000000  0.5140640000000  0.5923060000000 1.0
C      1  0.4762940000000  0.4087760000000  0.5525350000000 1.0
C      1  0.4772050000000  0.5896610000000  0.5519170000000 1.0
C      1  0.4782960000000  0.4996580000000  0.3964070000000 1.0
END
