TITL C-81161-2569-1 343.1665026881 125000 -524.166947165598 0 0 77 (C1) n - 1
REM
REM in /rds/project/t2_vol4/rds-t2-cs072/BORA/CARBON/from-Arr/AIRSS/Generating-Clusters/GAP-ML-2020/Higher-Symm/SD-CG/HFTN-CG
REM
REM
REM
REM
REM
REM ./C.cell (b20cbc046b6831c77cfcea5457e17084)
REM AIRSS Version 0.9.1 bugfix July 2018 build 013d7b7c2542+ Fri, 06 Jul 2018 19:26:36 +0100
REM compiler GCC version 9.3.0
REM options -cpp -mtune=generic -march=x86-64 -g -O0
REM seed 1887556884 -782977587 520499676 200034359 549759529 1760443828 -1653919856 691031286 664580089 -1237088007 -1163683147 -1013454550 167204631 517538464 443012601 -498465564 1059199984 -270426172 -1040564499 1296882191 -37778085 -2096754213 233487159 489184020 -545299971 -1361075930 1171656422 -292521482 -187388704 1163829846 -221631275 -224401862 1641576528
REM
CELL 1.54180   50.00000   50.00000   50.00000   90.00000   90.00000   90.00000
LATT -1
SFAC C  
C      1  0.5723990000000  0.5380990000000  0.4889960000000 1.0
C      1  0.5688190000000  0.4602000000000  0.4846890000000 1.0
C      1  0.5285450000000  0.4715040000000  0.4562410000000 1.0
C      1  0.5312940000000  0.5281080000000  0.4575340000000 1.0
C      1  0.4946190000000  0.5269250000000  0.5094960000000 1.0
C      1  0.4943140000000  0.4712280000000  0.5055570000000 1.0
C      1  0.5184060000000  0.4638570000000  0.5649260000000 1.0
C      1  0.5163830000000  0.5404740000000  0.5628730000000 1.0
C      1  0.4843480000000  0.5736250000000  0.4920450000000 1.0
C      1  0.4819130000000  0.4261420000000  0.4903950000000 1.0
C      1  0.5794220000000  0.5257260000000  0.5331180000000 1.0
C      1  0.5776800000000  0.4805780000000  0.5282390000000 1.0
C      1  0.4107690000000  0.4828650000000  0.5086120000000 1.0
C      1  0.4045140000000  0.5293380000000  0.4986270000000 1.0
C      1  0.4567790000000  0.4224950000000  0.4997590000000 1.0
C      1  0.4596950000000  0.5785190000000  0.5021260000000 1.0
C      1  0.4857870000000  0.5416840000000  0.4398700000000 1.0
C      1  0.4823720000000  0.4593790000000  0.4379500000000 1.0
C      1  0.4650250000000  0.5297330000000  0.4597150000000 1.0
C      1  0.4627930000000  0.4710020000000  0.4595550000000 1.0
C      1  0.4986600000000  0.5245640000000  0.4215870000000 1.0
C      1  0.4965970000000  0.4768700000000  0.4204800000000 1.0
C      1  0.4432270000000  0.4451330000000  0.5094920000000 1.0
C      1  0.4433670000000  0.5565110000000  0.5089090000000 1.0
C      1  0.5488330000000  0.5462960000000  0.4752070000000 1.0
C      1  0.5440260000000  0.4516350000000  0.4732920000000 1.0
C      1  0.5209550000000  0.5168190000000  0.5173770000000 1.0
C      1  0.5231900000000  0.4753270000000  0.5123520000000 1.0
C      1  0.4908770000000  0.5297140000000  0.5589530000000 1.0
C      1  0.4961260000000  0.4796560000000  0.5520590000000 1.0
C      1  0.5675810000000  0.4593870000000  0.5131740000000 1.0
C      1  0.5712690000000  0.5468240000000  0.5163790000000 1.0
C      1  0.5238430000000  0.4854550000000  0.4294850000000 1.0
C      1  0.5254500000000  0.5147330000000  0.4300160000000 1.0
C      1  0.4350410000000  0.5176430000000  0.5428270000000 1.0
C      1  0.4403390000000  0.4768590000000  0.5474230000000 1.0
C      1  0.4264790000000  0.5428660000000  0.4893250000000 1.0
C      1  0.4261680000000  0.4629140000000  0.4942950000000 1.0
C      1  0.5403770000000  0.4504060000000  0.5196830000000 1.0
C      1  0.5478220000000  0.5611170000000  0.5220000000000 1.0
C      1  0.5059040000000  0.5452410000000  0.4589910000000 1.0
C      1  0.5027950000000  0.4548220000000  0.4567190000000 1.0
C      1  0.5866210000000  0.4760320000000  0.4715720000000 1.0
C      1  0.5876590000000  0.5135850000000  0.4891700000000 1.0
C      1  0.5088050000000  0.4198580000000  0.4955070000000 1.0
C      1  0.5114510000000  0.5785220000000  0.4958580000000 1.0
C      1  0.5468120000000  0.4677820000000  0.5642220000000 1.0
C      1  0.5443420000000  0.5347600000000  0.5643300000000 1.0
C      1  0.5649060000000  0.4870140000000  0.5533190000000 1.0
C      1  0.5642100000000  0.5163970000000  0.5553010000000 1.0
C      1  0.4841500000000  0.4558650000000  0.4806460000000 1.0
C      1  0.4866700000000  0.5438550000000  0.4830920000000 1.0
C      1  0.4822970000000  0.4627490000000  0.5318400000000 1.0
C      1  0.4789040000000  0.5378990000000  0.5345960000000 1.0
C      1  0.4503590000000  0.5395020000000  0.5314230000000 1.0
C      1  0.4547550000000  0.4578090000000  0.5333080000000 1.0
C      1  0.5310720000000  0.4349230000000  0.4950140000000 1.0
C      1  0.5349520000000  0.5653950000000  0.4959060000000 1.0
C      1  0.4349060000000  0.4744460000000  0.4679600000000 1.0
C      1  0.4369060000000  0.5275390000000  0.4653820000000 1.0
C      1  0.5351550000000  0.4477610000000  0.5486640000000 1.0
C      1  0.5355460000000  0.5556990000000  0.5477400000000 1.0
C      1  0.5253600000000  0.5005500000000  0.4719830000000 1.0
C      1  0.4834740000000  0.4999030000000  0.4999260000000 1.0
C      1  0.4524820000000  0.5003410000000  0.5587850000000 1.0
C      1  0.5347750000000  0.4996280000000  0.4986570000000 1.0
C      1  0.4798730000000  0.5029110000000  0.5634410000000 1.0
C      1  0.4826420000000  0.5011200000000  0.4238430000000 1.0
C      1  0.5982050000000  0.4984770000000  0.4674640000000 1.0
C      1  0.4231730000000  0.5012740000000  0.4667040000000 1.0
C      1  0.4955060000000  0.5000260000000  0.4729650000000 1.0
C      1  0.5874630000000  0.5044690000000  0.5166210000000 1.0
C      1  0.4553770000000  0.5009160000000  0.5034600000000 1.0
C      1  0.4744490000000  0.5003120000000  0.4531720000000 1.0
C      1  0.4201430000000  0.4924660000000  0.5339070000000 1.0
C      1  0.4061340000000  0.5036590000000  0.4898810000000 1.0
C      1  0.5174540000000  0.4927310000000  0.5354790000000 1.0
END
