TITL C-81170-3609-2 -33.9966373536902 125000 -188.405977280897 0 0 29 (C1) n - 1
REM
REM in /rds/project/t2_vol4/rds-t2-cs072/BORA/CARBON/from-Arr/AIRSS/Generating-Clusters/GAP-ML-2020/Higher-Symm/SD-CG/HFTN-CG
REM
REM
REM
REM
REM
REM ./C.cell (b20cbc046b6831c77cfcea5457e17084)
REM AIRSS Version 0.9.1 bugfix July 2018 build 013d7b7c2542+ Fri, 06 Jul 2018 19:26:36 +0100
REM compiler GCC version 9.3.0
REM options -cpp -mtune=generic -march=x86-64 -g -O0
REM seed 1006669807 487662568 1194960282 -493690710 1793933743 520660223 1800119551 199327379 -389607948 -919793187 1278266683 -1843036140 -1689451521 1841167476 1681439924 508441035 233324280 -1326482162 1799888988 -567094785 266323231 -2059937098 -1309079149 -1846515817 -116952925 -337472092 -1063486206 346747002 -26533835 573175486 1731881771 -200988854 -1118016679
REM
CELL 1.54180   50.00000   50.00000   50.00000   90.00000   90.00000   90.00000
LATT -1
SFAC C  
C      1  0.5190820000000  0.4856050000000  0.4493550000000 1.0
C      1  0.4863960000000  0.4879110000000  0.5472100000000 1.0
C      1  0.5126000000000  0.5101560000000  0.4495740000000 1.0
C      1  0.4845790000000  0.5131460000000  0.5501780000000 1.0
C      1  0.5326140000000  0.4863270000000  0.4964320000000 1.0
C      1  0.4724990000000  0.4874910000000  0.5024000000000 1.0
C      1  0.5300650000000  0.5136100000000  0.4961280000000 1.0
C      1  0.4646780000000  0.5143530000000  0.5070620000000 1.0
C      1  0.4803880000000  0.5280960000000  0.5260980000000 1.0
C      1  0.5084120000000  0.5213310000000  0.4787220000000 1.0
C      1  0.4844530000000  0.4722470000000  0.5238770000000 1.0
C      1  0.5140210000000  0.4750830000000  0.4776280000000 1.0
C      1  0.4557100000000  0.5281710000000  0.4838340000000 1.0
C      1  0.5384580000000  0.5285560000000  0.5192740000000 1.0
C      1  0.4598500000000  0.4734300000000  0.4789750000000 1.0
C      1  0.5443200000000  0.4714850000000  0.5184670000000 1.0
C      1  0.4390120000000  0.5156100000000  0.4656540000000 1.0
C      1  0.5532600000000  0.5113370000000  0.5352460000000 1.0
C      1  0.4459670000000  0.4914080000000  0.4638800000000 1.0
C      1  0.5610400000000  0.4874350000000  0.5356040000000 1.0
C      1  0.4692330000000  0.5510310000000  0.4781900000000 1.0
C      1  0.5231730000000  0.5504990000000  0.5246770000000 1.0
C      1  0.4748320000000  0.4514480000000  0.4738870000000 1.0
C      1  0.5282350000000  0.4498150000000  0.5242430000000 1.0
C      1  0.4974110000000  0.5485350000000  0.5154670000000 1.0
C      1  0.4945290000000  0.5452940000000  0.4861430000000 1.0
C      1  0.5023060000000  0.4525640000000  0.5146610000000 1.0
C      1  0.4994740000000  0.4513650000000  0.4853180000000 1.0
C      1  0.4933810000000  0.4956730000000  0.4824420000000 1.0
END
