TITL C-81167-2762-5 -0.0165049576011124 125000 -742.347903185163 0 0 103 (C3) n - 1
REM
REM in /rds/project/t2_vol4/rds-t2-cs072/BORA/CARBON/from-Arr/AIRSS/Generating-Clusters/GAP-ML-2020/Higher-Symm/SD-CG/HFTN-CG
REM
REM
REM
REM
REM
REM ./C.cell (b20cbc046b6831c77cfcea5457e17084)
REM AIRSS Version 0.9.1 bugfix July 2018 build 013d7b7c2542+ Fri, 06 Jul 2018 19:26:36 +0100
REM compiler GCC version 9.3.0
REM options -cpp -mtune=generic -march=x86-64 -g -O0
REM seed 659996260 -1722830868 -2063597353 -1560205471 -402404628 1373794645 -1330895409 183183808 -277082630 -229889751 -2105694687 -2096599021 -1112057558 -1956595784 287180214 -1147661686 1390599664 430684224 -1442734674 2095826253 -865329419 1089663550 939478248 -691102842 544590316 -1665099632 2073830724 748006825 1008026777 1159262309 470995286 -965038044 1873913324
REM
CELL 1.54180   50.00000   50.00000   50.00000   90.00000   90.00000   90.00000
LATT -1
SFAC C  
C      1  0.4453980000000  0.4473970000000  0.4577870000000 1.0
C      1  0.4453970000000  0.5629630000000  0.4759910000000 1.0
C      1  0.4454660000000  0.4894150000000  0.5669720000000 1.0
C      1  0.5538510000000  0.4471530000000  0.4567980000000 1.0
C      1  0.5538510000000  0.5638970000000  0.4761550000000 1.0
C      1  0.5539200000000  0.4887610000000  0.5675800000000 1.0
C      1  0.5787560000000  0.5043740000000  0.5285120000000 1.0
C      1  0.5787340000000  0.4731710000000  0.4898260000000 1.0
C      1  0.5787230000000  0.5222750000000  0.4821460000000 1.0
C      1  0.4182020000000  0.5042970000000  0.5286860000000 1.0
C      1  0.4181800000000  0.4731250000000  0.4898480000000 1.0
C      1  0.4181690000000  0.5223450000000  0.4822710000000 1.0
C      1  0.4851510000000  0.5842760000000  0.4900560000000 1.0
C      1  0.4852230000000  0.4665620000000  0.5783540000000 1.0
C      1  0.4851270000000  0.4489510000000  0.4322610000000 1.0
C      1  0.5137270000000  0.5842390000000  0.4904510000000 1.0
C      1  0.5137980000000  0.4662260000000  0.5780920000000 1.0
C      1  0.5137030000000  0.4493330000000  0.4320700000000 1.0
C      1  0.4700650000000  0.4909970000000  0.5826060000000 1.0
C      1  0.4699840000000  0.4330570000000  0.4513130000000 1.0
C      1  0.4699780000000  0.5757300000000  0.4667820000000 1.0
C      1  0.5292420000000  0.4904500000000  0.5827460000000 1.0
C      1  0.5291610000000  0.4331850000000  0.4507050000000 1.0
C      1  0.5291560000000  0.5761680000000  0.4671330000000 1.0
C      1  0.4879030000000  0.5000230000000  0.4595850000000 1.0
C      1  0.4879390000000  0.5350760000000  0.5206200000000 1.0
C      1  0.4879470000000  0.4646910000000  0.5204600000000 1.0
C      1  0.5168480000000  0.5009370000000  0.4648420000000 1.0
C      1  0.5168810000000  0.5300540000000  0.5187520000000 1.0
C      1  0.5168860000000  0.4688080000000  0.5170140000000 1.0
C      1  0.5159610000000  0.5278970000000  0.4748250000000 1.0
C      1  0.5160050000000  0.5079290000000  0.5371090000000 1.0
C      1  0.5159770000000  0.4639730000000  0.4886750000000 1.0
C      1  0.4870520000000  0.5290230000000  0.4730990000000 1.0
C      1  0.4870980000000  0.5088730000000  0.5389790000000 1.0
C      1  0.4870700000000  0.4618940000000  0.4885890000000 1.0
C      1  0.4679930000000  0.5233300000000  0.4256100000000 1.0
C      1  0.4680780000000  0.5528540000000  0.5578140000000 1.0
C      1  0.4680660000000  0.4236000000000  0.5172810000000 1.0
C      1  0.5307340000000  0.5226740000000  0.4241300000000 1.0
C      1  0.5308190000000  0.5544380000000  0.5579180000000 1.0
C      1  0.5308080000000  0.4226920000000  0.5185320000000 1.0
C      1  0.4337710000000  0.5389190000000  0.4643600000000 1.0
C      1  0.4338320000000  0.5115150000000  0.5519780000000 1.0
C      1  0.4337940000000  0.4493370000000  0.4844360000000 1.0
C      1  0.5647600000000  0.5393670000000  0.4634920000000 1.0
C      1  0.5648220000000  0.5119890000000  0.5526560000000 1.0
C      1  0.5647840000000  0.4484590000000  0.4843640000000 1.0
C      1  0.5794120000000  0.5265060000000  0.5104600000000 1.0
C      1  0.5794220000000  0.4777380000000  0.5180180000000 1.0
C      1  0.5793890000000  0.4955760000000  0.4720040000000 1.0
C      1  0.4176170000000  0.5264920000000  0.5105190000000 1.0
C      1  0.4176270000000  0.4777600000000  0.5181530000000 1.0
C      1  0.4175950000000  0.4955150000000  0.4721340000000 1.0
C      1  0.5665130000000  0.4954760000000  0.4463350000000 1.0
C      1  0.5665580000000  0.5487930000000  0.5232220000000 1.0
C      1  0.5665740000000  0.4555480000000  0.5309520000000 1.0
C      1  0.4328720000000  0.4952230000000  0.4478510000000 1.0
C      1  0.4329150000000  0.5476600000000  0.5223910000000 1.0
C      1  0.4329310000000  0.4568880000000  0.5305330000000 1.0
C      1  0.5286220000000  0.4726640000000  0.4245180000000 1.0
C      1  0.5286700000000  0.5791080000000  0.5144170000000 1.0
C      1  0.5287160000000  0.4480310000000  0.5616500000000 1.0
C      1  0.4702100000000  0.4722050000000  0.4255380000000 1.0
C      1  0.4702560000000  0.5784780000000  0.5135730000000 1.0
C      1  0.4703030000000  0.4491010000000  0.5615900000000 1.0
C      1  0.5143860000000  0.5693680000000  0.4438350000000 1.0
C      1  0.5144890000000  0.5140330000000  0.5885210000000 1.0
C      1  0.5144200000000  0.4163980000000  0.4682560000000 1.0
C      1  0.4852300000000  0.5698810000000  0.4435530000000 1.0
C      1  0.4853330000000  0.5140320000000  0.5891380000000 1.0
C      1  0.4852630000000  0.4158760000000  0.4679790000000 1.0
C      1  0.5140880000000  0.5453620000000  0.4261010000000 1.0
C      1  0.5141890000000  0.5413930000000  0.5765990000000 1.0
C      1  0.5141510000000  0.4130430000000  0.4979130000000 1.0
C      1  0.4849200000000  0.5459370000000  0.4259050000000 1.0
C      1  0.4850210000000  0.5412880000000  0.5772270000000 1.0
C      1  0.4849820000000  0.4125640000000  0.4975390000000 1.0
C      1  0.5559840000000  0.5218350000000  0.4407850000000 1.0
C      1  0.5560530000000  0.5404230000000  0.5488360000000 1.0
C      1  0.5560400000000  0.4375540000000  0.5109090000000 1.0
C      1  0.4435830000000  0.5214820000000  0.4425480000000 1.0
C      1  0.4436520000000  0.5391190000000  0.5477720000000 1.0
C      1  0.4436380000000  0.4391740000000  0.5104340000000 1.0
C      1  0.4735780000000  0.5267100000000  0.4974140000000 1.0
C      1  0.4736010000000  0.4889780000000  0.5248330000000 1.0
C      1  0.4735710000000  0.4840970000000  0.4784470000000 1.0
C      1  0.5309660000000  0.5271100000000  0.4969480000000 1.0
C      1  0.5309890000000  0.4891570000000  0.5253500000000 1.0
C      1  0.5309580000000  0.4835370000000  0.4782810000000 1.0
C      1  0.5543170000000  0.4612100000000  0.5562590000000 1.0
C      1  0.5542380000000  0.4707330000000  0.4385980000000 1.0
C      1  0.5542710000000  0.5678690000000  0.5056760000000 1.0
C      1  0.4450920000000  0.4622400000000  0.5558000000000 1.0
C      1  0.4450140000000  0.4706600000000  0.4398390000000 1.0
C      1  0.4450470000000  0.5668750000000  0.5051110000000 1.0
C      1  0.5157310000000  0.5717100000000  0.5389840000000 1.0
C      1  0.5157490000000  0.4304590000000  0.5429730000000 1.0
C      1  0.5156590000000  0.4976300000000  0.4186520000000 1.0
C      1  0.4848390000000  0.5648400000000  0.5353880000000 1.0
C      1  0.4848550000000  0.4370210000000  0.5388560000000 1.0
C      1  0.4847740000000  0.4979270000000  0.4264280000000 1.0
C      1  0.4654710000000  0.4999270000000  0.5002370000000 1.0
END
