TITL C-81865-6595-8 0.136214622136367 125000 -440.077857183499 0 0 67 (C1) n - 1
REM
REM in /rds/project/t2_vol4/rds-t2-cs072/BORA/CARBON/from-Arr/AIRSS/Generating-Clusters/GAP-ML-2020/Higher-Symm/SD-CG/HFTN-CG
REM
REM
REM
REM
REM
REM ./C.cell (b20cbc046b6831c77cfcea5457e17084)
REM AIRSS Version 0.9.1 bugfix July 2018 build 013d7b7c2542+ Fri, 06 Jul 2018 19:26:36 +0100
REM compiler GCC version 9.3.0
REM options -cpp -mtune=generic -march=x86-64 -g -O0
REM seed -970094381 623252048 -1041399484 803521816 1774970188 263196426 883069475 1406401491 639138302 1537129368 511738478 -1513594881 1656280574 -1898231649 1195186819 2101425822 2121937862 277715076 -1442953754 -2036351462 -1731379548 264277523 1381556523 2096121608 -656234469 -1156983824 -94477384 803207164 -124375381 -10766615 1488853515 -1636808832 -1022617818
REM
CELL 1.54180   50.00000   50.00000   50.00000   90.00000   90.00000   90.00000
LATT -1
SFAC C  
C      1  0.4995590000000  0.4505380000000  0.5279810000000 1.0
C      1  0.5225770000000  0.4917460000000  0.5200370000000 1.0
C      1  0.5302180000000  0.5428960000000  0.5254630000000 1.0
C      1  0.4834480000000  0.5277030000000  0.5225300000000 1.0
C      1  0.4671200000000  0.4895730000000  0.5240500000000 1.0
C      1  0.5015890000000  0.4685620000000  0.4766440000000 1.0
C      1  0.5472230000000  0.4859690000000  0.4722280000000 1.0
C      1  0.5297340000000  0.5372790000000  0.4718060000000 1.0
C      1  0.4804400000000  0.5244680000000  0.4741680000000 1.0
C      1  0.4617650000000  0.4887460000000  0.4749970000000 1.0
C      1  0.5034710000000  0.5235760000000  0.4345400000000 1.0
C      1  0.4798630000000  0.5065890000000  0.4321470000000 1.0
C      1  0.4874000000000  0.4798770000000  0.4346810000000 1.0
C      1  0.5164450000000  0.4801520000000  0.4348210000000 1.0
C      1  0.5264970000000  0.5075210000000  0.4353140000000 1.0
C      1  0.5041910000000  0.5262910000000  0.5639990000000 1.0
C      1  0.4812450000000  0.5092300000000  0.5655340000000 1.0
C      1  0.4886740000000  0.4815610000000  0.5643250000000 1.0
C      1  0.5167370000000  0.4800180000000  0.5634350000000 1.0
C      1  0.5261360000000  0.5087200000000  0.5619600000000 1.0
C      1  0.5620730000000  0.4415610000000  0.4799400000000 1.0
C      1  0.5791650000000  0.5350310000000  0.4868110000000 1.0
C      1  0.4795500000000  0.5768120000000  0.4835710000000 1.0
C      1  0.4099190000000  0.5123500000000  0.4582630000000 1.0
C      1  0.4631470000000  0.4272520000000  0.4862460000000 1.0
C      1  0.5609930000000  0.4377510000000  0.5098090000000 1.0
C      1  0.5842940000000  0.5170390000000  0.5089010000000 1.0
C      1  0.4892380000000  0.5848710000000  0.5104960000000 1.0
C      1  0.4174950000000  0.5118170000000  0.5286110000000 1.0
C      1  0.4582240000000  0.4274280000000  0.5187520000000 1.0
C      1  0.5648530000000  0.5563650000000  0.5000040000000 1.0
C      1  0.4579790000000  0.5616670000000  0.4979780000000 1.0
C      1  0.4050570000000  0.5015780000000  0.4813310000000 1.0
C      1  0.4906470000000  0.4249680000000  0.4939460000000 1.0
C      1  0.5709820000000  0.4684130000000  0.4812720000000 1.0
C      1  0.5599980000000  0.5498830000000  0.5275170000000 1.0
C      1  0.4656810000000  0.5732970000000  0.5232400000000 1.0
C      1  0.4208130000000  0.4982400000000  0.5037950000000 1.0
C      1  0.4863530000000  0.4228220000000  0.5224760000000 1.0
C      1  0.5633520000000  0.4692020000000  0.5100740000000 1.0
C      1  0.4330850000000  0.5197330000000  0.4493450000000 1.0
C      1  0.4584490000000  0.4426230000000  0.4649740000000 1.0
C      1  0.5408120000000  0.4405700000000  0.4637800000000 1.0
C      1  0.5727850000000  0.5258740000000  0.4620630000000 1.0
C      1  0.4921560000000  0.5689710000000  0.4614620000000 1.0
C      1  0.4348460000000  0.5210180000000  0.5443830000000 1.0
C      1  0.4539170000000  0.4446070000000  0.5385770000000 1.0
C      1  0.5492170000000  0.4507600000000  0.5295550000000 1.0
C      1  0.5681130000000  0.5227960000000  0.5305770000000 1.0
C      1  0.4902310000000  0.5719690000000  0.5359300000000 1.0
C      1  0.4742140000000  0.4657170000000  0.4596540000000 1.0
C      1  0.5268330000000  0.4663180000000  0.4588220000000 1.0
C      1  0.5458350000000  0.5149100000000  0.4593300000000 1.0
C      1  0.5027970000000  0.5411800000000  0.4595580000000 1.0
C      1  0.4597640000000  0.5130010000000  0.4538050000000 1.0
C      1  0.4749490000000  0.4659610000000  0.5410250000000 1.0
C      1  0.5237810000000  0.4631950000000  0.5390620000000 1.0
C      1  0.5379750000000  0.5132620000000  0.5353410000000 1.0
C      1  0.5036770000000  0.5460440000000  0.5393160000000 1.0
C      1  0.4632840000000  0.5157360000000  0.5430330000000 1.0
C      1  0.5054520000000  0.4494920000000  0.4977460000000 1.0
C      1  0.4685880000000  0.5355280000000  0.4987000000000 1.0
C      1  0.5413230000000  0.4858460000000  0.5003340000000 1.0
C      1  0.5367320000000  0.5508370000000  0.4958690000000 1.0
C      1  0.4482010000000  0.4898990000000  0.5006530000000 1.0
C      1  0.4910460000000  0.4973860000000  0.4845230000000 1.0
C      1  0.4943230000000  0.5008110000000  0.5126630000000 1.0
END
