TITL C-81876-6606-6 14.2395469481434 125000 -607.03159724922 0 0 87 (C1) n - 1
REM
REM in /rds/project/t2_vol4/rds-t2-cs072/BORA/CARBON/from-Arr/AIRSS/Generating-Clusters/GAP-ML-2020/Higher-Symm/SD-CG/HFTN-CG
REM
REM
REM
REM
REM
REM ./C.cell (b20cbc046b6831c77cfcea5457e17084)
REM AIRSS Version 0.9.1 bugfix July 2018 build 013d7b7c2542+ Fri, 06 Jul 2018 19:26:36 +0100
REM compiler GCC version 9.3.0
REM options -cpp -mtune=generic -march=x86-64 -g -O0
REM seed -530415534 860145201 583377423 -989311893 1026791745 -1983038260 -1920044378 -250819826 1460270825 -184213050 675120534 213749297 -1920455431 905062878 209739780 -376478528 975110412 778355465 -71535693 2084480788 380225823 -1213362556 -1272387961 1909151441 -701080053 1163102470 -379629664 171210803 1494288892 195892321 -910584257 -1578555393 -1439962124
REM
CELL 1.54180   50.00000   50.00000   50.00000   90.00000   90.00000   90.00000
LATT -1
SFAC C  
C      1  0.5050300000000  0.4617970000000  0.5135580000000 1.0
C      1  0.4759210000000  0.4675470000000  0.5047220000000 1.0
C      1  0.4852920000000  0.4688270000000  0.4750500000000 1.0
C      1  0.5136140000000  0.4653340000000  0.4837420000000 1.0
C      1  0.4819210000000  0.5762170000000  0.4943840000000 1.0
C      1  0.5272140000000  0.5183540000000  0.5064780000000 1.0
C      1  0.5139410000000  0.5251940000000  0.4814480000000 1.0
C      1  0.4849130000000  0.5228940000000  0.4896630000000 1.0
C      1  0.4623420000000  0.4908820000000  0.5160040000000 1.0
C      1  0.4776170000000  0.4899170000000  0.4568780000000 1.0
C      1  0.5346740000000  0.4836970000000  0.4751150000000 1.0
C      1  0.5118200000000  0.4811740000000  0.5344210000000 1.0
C      1  0.5595680000000  0.5144860000000  0.5074050000000 1.0
C      1  0.5226580000000  0.5070400000000  0.4604030000000 1.0
C      1  0.4642970000000  0.5096600000000  0.4741220000000 1.0
C      1  0.4827110000000  0.5132210000000  0.5162980000000 1.0
C      1  0.5238630000000  0.4339330000000  0.5462740000000 1.0
C      1  0.4540610000000  0.4381740000000  0.5304510000000 1.0
C      1  0.4767990000000  0.4427260000000  0.4604850000000 1.0
C      1  0.5486120000000  0.4394920000000  0.4719060000000 1.0
C      1  0.4701050000000  0.5625710000000  0.5398160000000 1.0
C      1  0.5424840000000  0.5592850000000  0.5293210000000 1.0
C      1  0.5222430000000  0.5556130000000  0.4627440000000 1.0
C      1  0.4481970000000  0.5563350000000  0.4703050000000 1.0
C      1  0.4747030000000  0.5666930000000  0.4680230000000 1.0
C      1  0.5296170000000  0.5712070000000  0.4860830000000 1.0
C      1  0.5160390000000  0.5697950000000  0.5304020000000 1.0
C      1  0.4618820000000  0.5686200000000  0.5131390000000 1.0
C      1  0.5210070000000  0.4394040000000  0.4661660000000 1.0
C      1  0.4736720000000  0.4282830000000  0.4875640000000 1.0
C      1  0.4787820000000  0.4248680000000  0.5342240000000 1.0
C      1  0.5215780000000  0.4326210000000  0.5168860000000 1.0
C      1  0.5454220000000  0.5446170000000  0.4489660000000 1.0
C      1  0.5482220000000  0.5387520000000  0.5476780000000 1.0
C      1  0.4560470000000  0.5423870000000  0.5531320000000 1.0
C      1  0.4381930000000  0.5390890000000  0.4502070000000 1.0
C      1  0.4520810000000  0.4536470000000  0.4471790000000 1.0
C      1  0.4481030000000  0.4589230000000  0.5488630000000 1.0
C      1  0.5419130000000  0.4530320000000  0.5574900000000 1.0
C      1  0.5556340000000  0.4637490000000  0.4574250000000 1.0
C      1  0.4350800000000  0.4691170000000  0.4881640000000 1.0
C      1  0.5146210000000  0.4714540000000  0.4321040000000 1.0
C      1  0.5604160000000  0.4631510000000  0.5124350000000 1.0
C      1  0.4888510000000  0.4558470000000  0.5712560000000 1.0
C      1  0.5661690000000  0.5384730000000  0.4912090000000 1.0
C      1  0.4857380000000  0.5304580000000  0.4356380000000 1.0
C      1  0.4335250000000  0.5277850000000  0.5101130000000 1.0
C      1  0.5016190000000  0.5370460000000  0.5669800000000 1.0
C      1  0.5294990000000  0.5267260000000  0.5670470000000 1.0
C      1  0.4355880000000  0.5282240000000  0.5391810000000 1.0
C      1  0.4574170000000  0.5263920000000  0.4316500000000 1.0
C      1  0.5678380000000  0.5339740000000  0.4634460000000 1.0
C      1  0.4650610000000  0.4704070000000  0.5686290000000 1.0
C      1  0.5594620000000  0.4676700000000  0.5406270000000 1.0
C      1  0.5436480000000  0.4739700000000  0.4326520000000 1.0
C      1  0.4305430000000  0.4679210000000  0.4610110000000 1.0
C      1  0.5734060000000  0.5069580000000  0.4526580000000 1.0
C      1  0.5415720000000  0.5000310000000  0.5709370000000 1.0
C      1  0.4366200000000  0.5039200000000  0.5534600000000 1.0
C      1  0.4456160000000  0.4997710000000  0.4274230000000 1.0
C      1  0.4257680000000  0.4939200000000  0.4472670000000 1.0
C      1  0.4598700000000  0.4999630000000  0.5706040000000 1.0
C      1  0.5612970000000  0.4945290000000  0.5512150000000 1.0
C      1  0.5564220000000  0.5007230000000  0.4301970000000 1.0
C      1  0.4426040000000  0.5522470000000  0.4986770000000 1.0
C      1  0.4945870000000  0.5541810000000  0.4508030000000 1.0
C      1  0.5512470000000  0.5603800000000  0.5018510000000 1.0
C      1  0.4973750000000  0.5598430000000  0.5487650000000 1.0
C      1  0.5474870000000  0.4403620000000  0.5009260000000 1.0
C      1  0.5038100000000  0.4465630000000  0.4443520000000 1.0
C      1  0.4534240000000  0.4463710000000  0.5020750000000 1.0
C      1  0.4962140000000  0.4337580000000  0.5547500000000 1.0
C      1  0.4204080000000  0.5180620000000  0.4579610000000 1.0
C      1  0.5384300000000  0.5202340000000  0.4367670000000 1.0
C      1  0.5645130000000  0.5177430000000  0.5362540000000 1.0
C      1  0.4741170000000  0.5256060000000  0.5696000000000 1.0
C      1  0.5756090000000  0.4838120000000  0.4682590000000 1.0
C      1  0.4612340000000  0.4778310000000  0.4344380000000 1.0
C      1  0.4398530000000  0.4823130000000  0.5364430000000 1.0
C      1  0.5327320000000  0.4735440000000  0.5767170000000 1.0
C      1  0.5006730000000  0.5008650000000  0.4416640000000 1.0
C      1  0.5070890000000  0.4764170000000  0.5676030000000 1.0
C      1  0.5615820000000  0.4871360000000  0.4947820000000 1.0
C      1  0.4434070000000  0.4995710000000  0.4951120000000 1.0
C      1  0.4929400000000  0.4215320000000  0.5090330000000 1.0
C      1  0.5083120000000  0.5771400000000  0.5036770000000 1.0
C      1  0.5087930000000  0.5066950000000  0.5248140000000 1.0
END
