TITL C-81849-6590-4 -0.0111804532850853 125000 -67.1644236170487 0 0 11 (C1) n - 1
REM
REM in /rds/project/t2_vol4/rds-t2-cs072/BORA/CARBON/from-Arr/AIRSS/Generating-Clusters/GAP-ML-2020/Higher-Symm/SD-CG/HFTN-CG
REM
REM
REM
REM
REM
REM ./C.cell (b20cbc046b6831c77cfcea5457e17084)
REM AIRSS Version 0.9.1 bugfix July 2018 build 013d7b7c2542+ Fri, 06 Jul 2018 19:26:36 +0100
REM compiler GCC version 9.3.0
REM options -cpp -mtune=generic -march=x86-64 -g -O0
REM seed -144999682 1083892492 1262202979 587301642 340041670 1489636072 -1650318502 40217340 1550949626 -354963390 745370165 2123887104 -414661118 1748853741 770496290 1095600996 689440306 -1667149746 400330910 1136197528 1065544258 -435502605 1839546346 780025382 565355442 1054068109 -789204233 -1315478469 1116566914 611017174 -1370255229 1674875888 480654457
REM
CELL 1.54180   50.00000   50.00000   50.00000   90.00000   90.00000   90.00000
LATT -1
SFAC C  
C      1  0.5216220000000  0.5219570000000  0.4937010000000 1.0
C      1  0.5356250000000  0.5039270000000  0.5064450000000 1.0
C      1  0.5200210000000  0.4827380000000  0.5008040000000 1.0
C      1  0.4948120000000  0.4804450000000  0.5109000000000 1.0
C      1  0.4752050000000  0.4888430000000  0.4925110000000 1.0
C      1  0.4746770000000  0.5163590000000  0.4856800000000 1.0
C      1  0.5007970000000  0.5282610000000  0.4787580000000 1.0
C      1  0.4919780000000  0.4862520000000  0.5370570000000 1.0
C      1  0.4989760000000  0.5130890000000  0.4543370000000 1.0
C      1  0.5064000000000  0.4979230000000  0.5539700000000 1.0
C      1  0.4805500000000  0.4954700000000  0.4657610000000 1.0
END
