TITL C-81860-6614-1 0.0743875134698254 125000 -541.20547114499 0 0 80 (C1) n - 1
REM
REM in /rds/project/t2_vol4/rds-t2-cs072/BORA/CARBON/from-Arr/AIRSS/Generating-Clusters/GAP-ML-2020/Higher-Symm/SD-CG/HFTN-CG
REM
REM
REM
REM
REM
REM ./C.cell (b20cbc046b6831c77cfcea5457e17084)
REM AIRSS Version 0.9.1 bugfix July 2018 build 013d7b7c2542+ Fri, 06 Jul 2018 19:26:36 +0100
REM compiler GCC version 9.3.0
REM options -cpp -mtune=generic -march=x86-64 -g -O0
REM seed 1772411333 -1845125812 -728807509 553902065 -743370082 1035285667 2053110844 1752589718 1592826639 -1440809040 1620248453 -227341223 -1191777730 -105733620 -1774552119 13224404 -1478801868 -597328296 -118704542 86668010 221853050 -1482374992 770922043 1558860530 1551794255 -41802844 -189025122 -1919571979 -1330143735 1677110649 -1870703575 1988885021 1753379801
REM
CELL 1.54180   50.00000   50.00000   50.00000   90.00000   90.00000   90.00000
LATT -1
SFAC C  
C      1  0.5503290000000  0.4999360000000  0.5646720000000 1.0
C      1  0.4994170000000  0.5473940000000  0.5630420000000 1.0
C      1  0.4517090000000  0.4962170000000  0.5630260000000 1.0
C      1  0.5015900000000  0.4497570000000  0.5620880000000 1.0
C      1  0.4488730000000  0.4990600000000  0.4375450000000 1.0
C      1  0.5003000000000  0.5465140000000  0.4369160000000 1.0
C      1  0.5494310000000  0.4965260000000  0.4367590000000 1.0
C      1  0.4982620000000  0.4488000000000  0.4376980000000 1.0
C      1  0.5435380000000  0.5396580000000  0.4544860000000 1.0
C      1  0.4585660000000  0.5429040000000  0.4594730000000 1.0
C      1  0.4550590000000  0.4571760000000  0.4615470000000 1.0
C      1  0.5423990000000  0.4581280000000  0.4613010000000 1.0
C      1  0.4565940000000  0.5396170000000  0.5452120000000 1.0
C      1  0.5413580000000  0.5425730000000  0.5406790000000 1.0
C      1  0.5450370000000  0.4579240000000  0.5407020000000 1.0
C      1  0.4579490000000  0.4580560000000  0.5378590000000 1.0
C      1  0.4454990000000  0.5262590000000  0.4398790000000 1.0
C      1  0.4714590000000  0.4441880000000  0.4421100000000 1.0
C      1  0.5563780000000  0.4703350000000  0.4397320000000 1.0
C      1  0.5267030000000  0.5523220000000  0.4373020000000 1.0
C      1  0.5539840000000  0.5271330000000  0.5607480000000 1.0
C      1  0.5280520000000  0.4451960000000  0.5585060000000 1.0
C      1  0.4442520000000  0.4701820000000  0.5593900000000 1.0
C      1  0.4729220000000  0.5532140000000  0.5622710000000 1.0
C      1  0.5177470000000  0.5620100000000  0.5461270000000 1.0
C      1  0.4394790000000  0.5164290000000  0.5471810000000 1.0
C      1  0.4811450000000  0.4398620000000  0.5442250000000 1.0
C      1  0.5621890000000  0.4812650000000  0.5462720000000 1.0
C      1  0.4823480000000  0.5618430000000  0.4538770000000 1.0
C      1  0.5612560000000  0.5168900000000  0.4527610000000 1.0
C      1  0.5189830000000  0.4392720000000  0.4551560000000 1.0
C      1  0.4355570000000  0.4801330000000  0.4550090000000 1.0
C      1  0.5193320000000  0.4305770000000  0.5060590000000 1.0
C      1  0.5713350000000  0.5208330000000  0.5075330000000 1.0
C      1  0.4798000000000  0.5730790000000  0.5049040000000 1.0
C      1  0.4297170000000  0.4806350000000  0.5059860000000 1.0
C      1  0.4795820000000  0.4299360000000  0.4931570000000 1.0
C      1  0.4287400000000  0.5207290000000  0.4929420000000 1.0
C      1  0.5204820000000  0.5732990000000  0.4954150000000 1.0
C      1  0.5707370000000  0.4810760000000  0.4940440000000 1.0
C      1  0.5566730000000  0.5441040000000  0.5144350000000 1.0
C      1  0.4587720000000  0.5541080000000  0.5071210000000 1.0
C      1  0.4440570000000  0.4570030000000  0.5107600000000 1.0
C      1  0.5411970000000  0.4484850000000  0.5106580000000 1.0
C      1  0.4432290000000  0.5442150000000  0.4860330000000 1.0
C      1  0.5414760000000  0.5541990000000  0.4931800000000 1.0
C      1  0.5563800000000  0.4575550000000  0.4883150000000 1.0
C      1  0.4554760000000  0.4439680000000  0.4885940000000 1.0
C      1  0.5660290000000  0.5070950000000  0.4806000000000 1.0
C      1  0.4947230000000  0.5674090000000  0.4799900000000 1.0
C      1  0.4324780000000  0.4943550000000  0.4797270000000 1.0
C      1  0.5058030000000  0.4356360000000  0.4800400000000 1.0
C      1  0.4346140000000  0.5065960000000  0.5194900000000 1.0
C      1  0.5055750000000  0.5673550000000  0.5203560000000 1.0
C      1  0.5663180000000  0.4945260000000  0.5206520000000 1.0
C      1  0.4933060000000  0.4356500000000  0.5188960000000 1.0
C      1  0.5341750000000  0.4992460000000  0.5158930000000 1.0
C      1  0.5005130000000  0.5365640000000  0.5153590000000 1.0
C      1  0.4649280000000  0.5045320000000  0.5133840000000 1.0
C      1  0.4980560000000  0.4681920000000  0.5139330000000 1.0
C      1  0.4657260000000  0.5003220000000  0.4835830000000 1.0
C      1  0.4998920000000  0.5368900000000  0.4852850000000 1.0
C      1  0.5353260000000  0.5048430000000  0.4860580000000 1.0
C      1  0.5004380000000  0.4687500000000  0.4831580000000 1.0
C      1  0.5184630000000  0.4949220000000  0.4421820000000 1.0
C      1  0.4955500000000  0.5160690000000  0.4429100000000 1.0
C      1  0.4777090000000  0.4928680000000  0.4367510000000 1.0
C      1  0.4995840000000  0.4757190000000  0.4289620000000 1.0
C      1  0.4829230000000  0.4952050000000  0.5574940000000 1.0
C      1  0.5049270000000  0.5170120000000  0.5584470000000 1.0
C      1  0.5225020000000  0.4973080000000  0.5717870000000 1.0
C      1  0.5022170000000  0.4769780000000  0.5709770000000 1.0
C      1  0.5196120000000  0.5209710000000  0.5311890000000 1.0
C      1  0.4722330000000  0.5319850000000  0.5215690000000 1.0
C      1  0.4780020000000  0.4833320000000  0.5292570000000 1.0
C      1  0.5248130000000  0.4732470000000  0.5221730000000 1.0
C      1  0.4805030000000  0.5222920000000  0.4696540000000 1.0
C      1  0.5280420000000  0.5322010000000  0.4783510000000 1.0
C      1  0.5229150000000  0.4830800000000  0.4699940000000 1.0
C      1  0.4767490000000  0.4782740000000  0.4692160000000 1.0
END
