TITL C-81940-4232-5 -0.000410936794955127 125000 -461.117867915571 0 0 68 (C1) n - 1
REM
REM in /rds/project/t2_vol4/rds-t2-cs072/BORA/CARBON/from-Arr/AIRSS/Generating-Clusters/GAP-ML-2020/Higher-Symm/SD-CG/HFTN-CG
REM
REM
REM
REM
REM
REM ./C.cell (b20cbc046b6831c77cfcea5457e17084)
REM AIRSS Version 0.9.1 bugfix July 2018 build 013d7b7c2542+ Fri, 06 Jul 2018 19:26:36 +0100
REM compiler GCC version 9.3.0
REM options -cpp -mtune=generic -march=x86-64 -g -O0
REM seed 674051994 665249494 -2023899475 1129445517 -1051481158 -826906476 -148969958 -1545193317 492252860 -278066233 1385252685 -72816060 289650422 1852449182 507444950 -1947007410 1515855633 1721000416 -944337443 1074681503 1354230200 -264084584 -2008477434 1475868728 1220461748 647401022 1608069472 -528837819 461451707 -1812290047 283834211 1029959481 1212349239
REM
CELL 1.54180   50.00000   50.00000   50.00000   90.00000   90.00000   90.00000
LATT -1
SFAC C  
C      1  0.5374120000000  0.4189150000000  0.5002680000000 1.0
C      1  0.4335880000000  0.5092780000000  0.5406730000000 1.0
C      1  0.5168340000000  0.5383810000000  0.4174200000000 1.0
C      1  0.4686110000000  0.5900270000000  0.5098590000000 1.0
C      1  0.5139980000000  0.5784120000000  0.4886100000000 1.0
C      1  0.4595840000000  0.4144160000000  0.4857720000000 1.0
C      1  0.5763320000000  0.4834810000000  0.5384500000000 1.0
C      1  0.4281410000000  0.4845190000000  0.4749250000000 1.0
C      1  0.5777910000000  0.5118460000000  0.4644690000000 1.0
C      1  0.5042220000000  0.4658180000000  0.3861960000000 1.0
C      1  0.5169000000000  0.4757690000000  0.5783770000000 1.0
C      1  0.4880140000000  0.5473290000000  0.5841030000000 1.0
C      1  0.5457320000000  0.4120200000000  0.4768360000000 1.0
C      1  0.4211480000000  0.5089140000000  0.4678260000000 1.0
C      1  0.4897670000000  0.5485940000000  0.6093080000000 1.0
C      1  0.4837610000000  0.5798470000000  0.4882830000000 1.0
C      1  0.5296560000000  0.5848670000000  0.5116000000000 1.0
C      1  0.4592070000000  0.4235230000000  0.5100650000000 1.0
C      1  0.5693200000000  0.4875830000000  0.4681530000000 1.0
C      1  0.4246960000000  0.4864740000000  0.5475530000000 1.0
C      1  0.5663410000000  0.5063530000000  0.5327580000000 1.0
C      1  0.4909070000000  0.4757210000000  0.5839640000000 1.0
C      1  0.5076980000000  0.4616980000000  0.4109290000000 1.0
C      1  0.4905900000000  0.5392650000000  0.4201970000000 1.0
C      1  0.4771440000000  0.4729050000000  0.5597730000000 1.0
C      1  0.4705780000000  0.5557580000000  0.4799970000000 1.0
C      1  0.5457210000000  0.4740080000000  0.4702870000000 1.0
C      1  0.5070880000000  0.5306630000000  0.5439520000000 1.0
C      1  0.4789900000000  0.5287010000000  0.4422690000000 1.0
C      1  0.5116690000000  0.4588210000000  0.4376080000000 1.0
C      1  0.5455900000000  0.4281180000000  0.4563650000000 1.0
C      1  0.4681030000000  0.4441710000000  0.5248710000000 1.0
C      1  0.5374610000000  0.5694340000000  0.5305120000000 1.0
C      1  0.4335300000000  0.5308460000000  0.4638360000000 1.0
C      1  0.5449940000000  0.5196600000000  0.5223670000000 1.0
C      1  0.4311550000000  0.4618860000000  0.5533000000000 1.0
C      1  0.4911980000000  0.4668680000000  0.4541950000000 1.0
C      1  0.4598510000000  0.5742290000000  0.5279330000000 1.0
C      1  0.5674180000000  0.4592090000000  0.5391450000000 1.0
C      1  0.5278020000000  0.5277360000000  0.4400860000000 1.0
C      1  0.4861210000000  0.5438790000000  0.5573950000000 1.0
C      1  0.5214200000000  0.4687910000000  0.5510210000000 1.0
C      1  0.5284000000000  0.4393900000000  0.5147610000000 1.0
C      1  0.4663090000000  0.4275380000000  0.4642790000000 1.0
C      1  0.5231640000000  0.5547450000000  0.4754500000000 1.0
C      1  0.4522410000000  0.5243900000000  0.5285600000000 1.0
C      1  0.5700810000000  0.5369930000000  0.4641360000000 1.0
C      1  0.4532740000000  0.4748540000000  0.4778470000000 1.0
C      1  0.4869260000000  0.4648420000000  0.5131660000000 1.0
C      1  0.4749940000000  0.4869450000000  0.4937950000000 1.0
C      1  0.5026860000000  0.5161690000000  0.4581830000000 1.0
C      1  0.4998360000000  0.5080650000000  0.5270100000000 1.0
C      1  0.4967350000000  0.4793510000000  0.5375700000000 1.0
C      1  0.5091740000000  0.5305830000000  0.4842120000000 1.0
C      1  0.4832930000000  0.5365930000000  0.4956880000000 1.0
C      1  0.5122130000000  0.4574520000000  0.5006250000000 1.0
C      1  0.5231700000000  0.4816650000000  0.4875580000000 1.0
C      1  0.4733210000000  0.5138910000000  0.5109120000000 1.0
C      1  0.5221460000000  0.5087270000000  0.5048310000000 1.0
C      1  0.4979740000000  0.4886810000000  0.4711610000000 1.0
C      1  0.4582410000000  0.5416560000000  0.4586350000000 1.0
C      1  0.5369780000000  0.4532760000000  0.4522450000000 1.0
C      1  0.4627670000000  0.5494820000000  0.5393220000000 1.0
C      1  0.5403810000000  0.4524160000000  0.5372800000000 1.0
C      1  0.4574290000000  0.4541660000000  0.5498070000000 1.0
C      1  0.5320010000000  0.5423430000000  0.5361910000000 1.0
C      1  0.4678100000000  0.4548310000000  0.4614080000000 1.0
C      1  0.5441870000000  0.5448030000000  0.4582530000000 1.0
END
