TITL C-81177-6216-5 23.2203028424879 125000 -606.38404307447 0 0 88 (C1) n - 1
REM
REM in /rds/project/t2_vol4/rds-t2-cs072/BORA/CARBON/from-Arr/AIRSS/Generating-Clusters/GAP-ML-2020/Higher-Symm/SD-CG/HFTN-CG
REM
REM
REM
REM
REM
REM ./C.cell (b20cbc046b6831c77cfcea5457e17084)
REM AIRSS Version 0.9.1 bugfix July 2018 build 013d7b7c2542+ Fri, 06 Jul 2018 19:26:36 +0100
REM compiler GCC version 9.3.0
REM options -cpp -mtune=generic -march=x86-64 -g -O0
REM seed -1782070750 -1890550899 -1915433323 1068230687 -285750731 -202361346 590029517 -730070763 2135260016 949057980 951687504 -1907199319 1047453401 689673271 241398122 413147175 2017998140 1134611076 19364393 -556325989 551040981 1022765589 -514384264 705709942 -1029722242 123748478 -471503333 -1143050244 -1840766499 -2004592764 -15694589 1099652370 -803061178
REM
CELL 1.54180   50.00000   50.00000   50.00000   90.00000   90.00000   90.00000
LATT -1
SFAC C  
C      1  0.5202810000000  0.5156450000000  0.5048070000000 1.0
C      1  0.4990230000000  0.5178870000000  0.4805350000000 1.0
C      1  0.4755590000000  0.5229750000000  0.5244920000000 1.0
C      1  0.5544300000000  0.4694710000000  0.5366310000000 1.0
C      1  0.5051340000000  0.4735100000000  0.4259300000000 1.0
C      1  0.4320020000000  0.4742460000000  0.5296100000000 1.0
C      1  0.5052330000000  0.4951490000000  0.5838810000000 1.0
C      1  0.5700120000000  0.4964560000000  0.4520040000000 1.0
C      1  0.4239960000000  0.4990770000000  0.4625260000000 1.0
C      1  0.4771950000000  0.5626370000000  0.4546220000000 1.0
C      1  0.4719690000000  0.5635860000000  0.5458250000000 1.0
C      1  0.5546980000000  0.5602160000000  0.5025460000000 1.0
C      1  0.4556310000000  0.5809760000000  0.4972670000000 1.0
C      1  0.5219350000000  0.5775180000000  0.5427530000000 1.0
C      1  0.5280030000000  0.5788900000000  0.4637760000000 1.0
C      1  0.5398860000000  0.4082970000000  0.5098520000000 1.0
C      1  0.5162270000000  0.4036490000000  0.4942620000000 1.0
C      1  0.4940730000000  0.4311190000000  0.5228100000000 1.0
C      1  0.4918350000000  0.5169340000000  0.5712680000000 1.0
C      1  0.5722720000000  0.5208270000000  0.4661770000000 1.0
C      1  0.4366370000000  0.5233510000000  0.4549510000000 1.0
C      1  0.4696810000000  0.5715870000000  0.5178920000000 1.0
C      1  0.5324330000000  0.5669460000000  0.5202610000000 1.0
C      1  0.5032130000000  0.5687750000000  0.4664000000000 1.0
C      1  0.4844390000000  0.4362810000000  0.4953030000000 1.0
C      1  0.5517620000000  0.4321950000000  0.5007830000000 1.0
C      1  0.5080450000000  0.4276320000000  0.4798920000000 1.0
C      1  0.5159600000000  0.5456390000000  0.5097210000000 1.0
C      1  0.4992180000000  0.5470550000000  0.4851020000000 1.0
C      1  0.4857640000000  0.5475880000000  0.5111070000000 1.0
C      1  0.4575210000000  0.5377390000000  0.5470980000000 1.0
C      1  0.5680580000000  0.5374080000000  0.5130100000000 1.0
C      1  0.4793770000000  0.5411060000000  0.4360630000000 1.0
C      1  0.5482750000000  0.4974080000000  0.4334910000000 1.0
C      1  0.4171060000000  0.5000020000000  0.4906480000000 1.0
C      1  0.5324650000000  0.4957330000000  0.5728880000000 1.0
C      1  0.5179800000000  0.5037710000000  0.4628180000000 1.0
C      1  0.4608660000000  0.5055590000000  0.5052100000000 1.0
C      1  0.5177800000000  0.5012470000000  0.5299400000000 1.0
C      1  0.5340180000000  0.4971640000000  0.4863310000000 1.0
C      1  0.4750180000000  0.5036390000000  0.4806210000000 1.0
C      1  0.4912340000000  0.5028730000000  0.5400500000000 1.0
C      1  0.5358800000000  0.4711870000000  0.4326270000000 1.0
C      1  0.4207930000000  0.4737540000000  0.5016970000000 1.0
C      1  0.5390860000000  0.4695480000000  0.5643540000000 1.0
C      1  0.4605610000000  0.4770290000000  0.5153450000000 1.0
C      1  0.5249080000000  0.4719520000000  0.5238140000000 1.0
C      1  0.5035490000000  0.4800680000000  0.4545560000000 1.0
C      1  0.4360020000000  0.4595760000000  0.4812940000000 1.0
C      1  0.5126020000000  0.4560800000000  0.5655380000000 1.0
C      1  0.5479420000000  0.4566370000000  0.4545570000000 1.0
C      1  0.5316950000000  0.5214040000000  0.4410580000000 1.0
C      1  0.4334720000000  0.5221250000000  0.5020080000000 1.0
C      1  0.5340450000000  0.5181280000000  0.5527730000000 1.0
C      1  0.4936670000000  0.5006960000000  0.4191760000000 1.0
C      1  0.4307610000000  0.5003460000000  0.5450400000000 1.0
C      1  0.5692770000000  0.4949020000000  0.5315370000000 1.0
C      1  0.4631120000000  0.5212550000000  0.5706340000000 1.0
C      1  0.5797050000000  0.5201690000000  0.4937670000000 1.0
C      1  0.4567260000000  0.5237570000000  0.4347850000000 1.0
C      1  0.4336660000000  0.5257610000000  0.5326910000000 1.0
C      1  0.5596310000000  0.5210520000000  0.5369600000000 1.0
C      1  0.5037680000000  0.5258870000000  0.4274270000000 1.0
C      1  0.5014080000000  0.5627410000000  0.5554180000000 1.0
C      1  0.5488610000000  0.5625380000000  0.4727460000000 1.0
C      1  0.4536020000000  0.5646900000000  0.4741860000000 1.0
C      1  0.5272290000000  0.4709000000000  0.4952150000000 1.0
C      1  0.4768960000000  0.4782790000000  0.4678760000000 1.0
C      1  0.4793850000000  0.4759650000000  0.5383790000000 1.0
C      1  0.5701870000000  0.4714850000000  0.4653520000000 1.0
C      1  0.4345190000000  0.4735110000000  0.4559410000000 1.0
C      1  0.4922600000000  0.4704550000000  0.5796610000000 1.0
C      1  0.4635380000000  0.4721020000000  0.5652140000000 1.0
C      1  0.5775600000000  0.4702230000000  0.4935440000000 1.0
C      1  0.4598690000000  0.4742040000000  0.4397480000000 1.0
C      1  0.5333130000000  0.4451500000000  0.4793740000000 1.0
C      1  0.4654190000000  0.4587000000000  0.4896410000000 1.0
C      1  0.5024320000000  0.4551690000000  0.5373050000000 1.0
C      1  0.5665340000000  0.4526950000000  0.5132840000000 1.0
C      1  0.4802220000000  0.4592950000000  0.4262230000000 1.0
C      1  0.4412730000000  0.4596840000000  0.5526790000000 1.0
C      1  0.4486140000000  0.4977660000000  0.5673070000000 1.0
C      1  0.5818090000000  0.4948780000000  0.5062100000000 1.0
C      1  0.4659950000000  0.4991700000000  0.4249250000000 1.0
C      1  0.4388240000000  0.5400340000000  0.4776820000000 1.0
C      1  0.5108290000000  0.5367980000000  0.5629980000000 1.0
C      1  0.5521340000000  0.5385250000000  0.4570280000000 1.0
C      1  0.5120750000000  0.4086150000000  0.5210840000000 1.0
END
