TITL C-81969-5798-6 -0.237876123514239 125000 -445.751843321334 0 0 64 (C1) n - 1
REM
REM in /rds/project/t2_vol4/rds-t2-cs072/BORA/CARBON/from-Arr/AIRSS/Generating-Clusters/GAP-ML-2020/Higher-Symm/SD-CG/HFTN-CG
REM
REM
REM
REM
REM
REM ./C.cell (b20cbc046b6831c77cfcea5457e17084)
REM AIRSS Version 0.9.1 bugfix July 2018 build 013d7b7c2542+ Fri, 06 Jul 2018 19:26:36 +0100
REM compiler GCC version 9.3.0
REM options -cpp -mtune=generic -march=x86-64 -g -O0
REM seed 1404298077 411279706 -1414014248 737989351 1980764598 1390596271 -1811050364 1450779723 -1721679691 1141008896 140983932 1135043684 -1009989352 -1438612396 -670411009 2084655599 -2082439738 1071527340 291121881 762263412 453988021 -2103408574 713934527 714823993 -1398366319 -1556109246 -1445156529 -1043192555 -1110902362 -1505457311 450599762 265772489 1653151387
REM
CELL 1.54180   50.00000   50.00000   50.00000   90.00000   90.00000   90.00000
LATT -1
SFAC C  
C      1  0.4314250000000  0.4660760000000  0.5229940000000 1.0
C      1  0.5143750000000  0.4293630000000  0.4872500000000 1.0
C      1  0.5619560000000  0.5347590000000  0.5205870000000 1.0
C      1  0.4824970000000  0.5699960000000  0.4843690000000 1.0
C      1  0.4485320000000  0.5179770000000  0.4592880000000 1.0
C      1  0.4840800000000  0.4444030000000  0.5398780000000 1.0
C      1  0.5482510000000  0.4759530000000  0.4604420000000 1.0
C      1  0.5113170000000  0.5459690000000  0.5425290000000 1.0
C      1  0.5346410000000  0.4455000000000  0.5294300000000 1.0
C      1  0.5566020000000  0.5309180000000  0.4718410000000 1.0
C      1  0.4651010000000  0.5542980000000  0.5247640000000 1.0
C      1  0.4452960000000  0.4668330000000  0.4768670000000 1.0
C      1  0.4334360000000  0.5141300000000  0.4974850000000 1.0
C      1  0.4853480000000  0.4271510000000  0.4947070000000 1.0
C      1  0.5655560000000  0.4823620000000  0.4981230000000 1.0
C      1  0.5023460000000  0.5739640000000  0.5050190000000 1.0
C      1  0.4591720000000  0.5569200000000  0.4961410000000 1.0
C      1  0.4463650000000  0.4540790000000  0.5040740000000 1.0
C      1  0.5365720000000  0.4417230000000  0.5004080000000 1.0
C      1  0.5548190000000  0.5467270000000  0.4976110000000 1.0
C      1  0.5641730000000  0.4854760000000  0.5263010000000 1.0
C      1  0.5242250000000  0.5646340000000  0.4635640000000 1.0
C      1  0.4357450000000  0.5131410000000  0.5257300000000 1.0
C      1  0.4780850000000  0.4324620000000  0.4671860000000 1.0
C      1  0.5221670000000  0.4976570000000  0.5175270000000 1.0
C      1  0.5136550000000  0.5330230000000  0.4949500000000 1.0
C      1  0.4822320000000  0.5124730000000  0.5167690000000 1.0
C      1  0.4996930000000  0.4949100000000  0.4827360000000 1.0
C      1  0.5172820000000  0.5270840000000  0.4392130000000 1.0
C      1  0.4689190000000  0.5130860000000  0.5604150000000 1.0
C      1  0.4808560000000  0.4674640000000  0.4382250000000 1.0
C      1  0.5334170000000  0.4833180000000  0.5617040000000 1.0
C      1  0.4962100000000  0.5102900000000  0.5695000000000 1.0
C      1  0.4845720000000  0.4952520000000  0.4320290000000 1.0
C      1  0.5045200000000  0.4826170000000  0.5668040000000 1.0
C      1  0.5135700000000  0.4997760000000  0.4328390000000 1.0
C      1  0.5272060000000  0.5070830000000  0.4889120000000 1.0
C      1  0.5092250000000  0.5247810000000  0.5233580000000 1.0
C      1  0.4864160000000  0.5212180000000  0.4883040000000 1.0
C      1  0.4958870000000  0.4863030000000  0.5093640000000 1.0
C      1  0.4810220000000  0.4673350000000  0.5575400000000 1.0
C      1  0.5282280000000  0.4755470000000  0.4400610000000 1.0
C      1  0.5182330000000  0.5281110000000  0.5634520000000 1.0
C      1  0.4699130000000  0.5191500000000  0.4400160000000 1.0
C      1  0.5062160000000  0.4346720000000  0.4596490000000 1.0
C      1  0.5599580000000  0.5132980000000  0.5368660000000 1.0
C      1  0.4954980000000  0.5626710000000  0.4595050000000 1.0
C      1  0.4375260000000  0.4871970000000  0.5381350000000 1.0
C      1  0.4591800000000  0.4863490000000  0.5571100000000 1.0
C      1  0.5074920000000  0.4554650000000  0.4407370000000 1.0
C      1  0.5414060000000  0.5109750000000  0.5596270000000 1.0
C      1  0.4909530000000  0.5395320000000  0.4430940000000 1.0
C      1  0.5482870000000  0.4673880000000  0.5421320000000 1.0
C      1  0.5379530000000  0.5420810000000  0.4526540000000 1.0
C      1  0.4579040000000  0.5285120000000  0.5368900000000 1.0
C      1  0.4632530000000  0.4543870000000  0.4576000000000 1.0
C      1  0.4694030000000  0.4386140000000  0.5148460000000 1.0
C      1  0.5528510000000  0.4599570000000  0.4848470000000 1.0
C      1  0.5283550000000  0.5630300000000  0.4925230000000 1.0
C      1  0.4441240000000  0.5363880000000  0.4822730000000 1.0
C      1  0.5551490000000  0.5012000000000  0.4763510000000 1.0
C      1  0.4922520000000  0.5640020000000  0.5298470000000 1.0
C      1  0.4384520000000  0.4950340000000  0.4753630000000 1.0
C      1  0.5106490000000  0.4379600000000  0.5396440000000 1.0
END
