TITL C-81178-5543-9 -0.165753133526592 125000 -423.676912231957 0 0 62 (C1) n - 1
REM
REM in /rds/project/t2_vol4/rds-t2-cs072/BORA/CARBON/from-Arr/AIRSS/Generating-Clusters/GAP-ML-2020/Higher-Symm/SD-CG/HFTN-CG
REM
REM
REM
REM
REM
REM ./C.cell (b20cbc046b6831c77cfcea5457e17084)
REM AIRSS Version 0.9.1 bugfix July 2018 build 013d7b7c2542+ Fri, 06 Jul 2018 19:26:36 +0100
REM compiler GCC version 9.3.0
REM options -cpp -mtune=generic -march=x86-64 -g -O0
REM seed -1516080786 1561979746 995555280 -360236699 -1798825544 1897733771 944634126 -1164058395 -40411041 -1689342665 -2024626062 1730883005 1433503641 1010695330 1189322828 -524698239 796033669 1280940033 1485297748 1430489391 -790439625 -864132975 1276656441 -1000314488 1627645057 366589764 717845424 1581600609 -908957796 811993397 -358351401 -29006193 1973023856
REM
CELL 1.54180   50.00000   50.00000   50.00000   90.00000   90.00000   90.00000
LATT -1
SFAC C  
C      1  0.5582540000000  0.4943990000000  0.4822720000000 1.0
C      1  0.5494330000000  0.5324140000000  0.5283060000000 1.0
C      1  0.5322850000000  0.5122830000000  0.4432760000000 1.0
C      1  0.5160750000000  0.5368100000000  0.4454850000000 1.0
C      1  0.4683630000000  0.4501300000000  0.5492080000000 1.0
C      1  0.4344920000000  0.5035450000000  0.4771060000000 1.0
C      1  0.4674040000000  0.4835410000000  0.4503770000000 1.0
C      1  0.5229160000000  0.4631410000000  0.4616340000000 1.0
C      1  0.5044010000000  0.5540430000000  0.5314660000000 1.0
C      1  0.5060300000000  0.4583050000000  0.5545320000000 1.0
C      1  0.4374640000000  0.4916280000000  0.5353640000000 1.0
C      1  0.4931940000000  0.5052350000000  0.5662360000000 1.0
C      1  0.4824650000000  0.4761820000000  0.5632550000000 1.0
C      1  0.5838270000000  0.4934970000000  0.5283100000000 1.0
C      1  0.5174640000000  0.4322850000000  0.5051650000000 1.0
C      1  0.5592290000000  0.5154830000000  0.4377450000000 1.0
C      1  0.5615010000000  0.5185420000000  0.4650450000000 1.0
C      1  0.5277780000000  0.4977220000000  0.4897440000000 1.0
C      1  0.4772250000000  0.4467010000000  0.4829510000000 1.0
C      1  0.4812310000000  0.5730380000000  0.4777890000000 1.0
C      1  0.5187330000000  0.5124130000000  0.5570150000000 1.0
C      1  0.4895730000000  0.5275470000000  0.4435450000000 1.0
C      1  0.4489660000000  0.5080860000000  0.4529410000000 1.0
C      1  0.4389870000000  0.4771520000000  0.4875580000000 1.0
C      1  0.4586000000000  0.4647650000000  0.4714230000000 1.0
C      1  0.5178430000000  0.4932650000000  0.4616050000000 1.0
C      1  0.5396150000000  0.4460340000000  0.5186210000000 1.0
C      1  0.4562430000000  0.5350510000000  0.5401170000000 1.0
C      1  0.5506410000000  0.4659120000000  0.4731870000000 1.0
C      1  0.4383860000000  0.4707870000000  0.5156450000000 1.0
C      1  0.4627750000000  0.5359850000000  0.4941370000000 1.0
C      1  0.5082550000000  0.5730950000000  0.5101670000000 1.0
C      1  0.5711660000000  0.4832290000000  0.5065160000000 1.0
C      1  0.5573930000000  0.4573080000000  0.5000260000000 1.0
C      1  0.4925150000000  0.4347770000000  0.5462580000000 1.0
C      1  0.5100510000000  0.5710840000000  0.4804500000000 1.0
C      1  0.4850570000000  0.4684770000000  0.4297670000000 1.0
C      1  0.5068080000000  0.4522630000000  0.4850780000000 1.0
C      1  0.4947870000000  0.4250890000000  0.5201320000000 1.0
C      1  0.4828430000000  0.5137050000000  0.4880470000000 1.0
C      1  0.5083940000000  0.4586280000000  0.4344380000000 1.0
C      1  0.4787760000000  0.5766620000000  0.5075710000000 1.0
C      1  0.4540010000000  0.4488030000000  0.5247820000000 1.0
C      1  0.4622420000000  0.5341200000000  0.4475750000000 1.0
C      1  0.4731540000000  0.5512110000000  0.5219440000000 1.0
C      1  0.5085490000000  0.5179810000000  0.5004250000000 1.0
C      1  0.5372300000000  0.4922920000000  0.5477170000000 1.0
C      1  0.4361800000000  0.5184410000000  0.5259650000000 1.0
C      1  0.5509120000000  0.5425930000000  0.4792570000000 1.0
C      1  0.5241860000000  0.5368170000000  0.5428340000000 1.0
C      1  0.5121200000000  0.4767840000000  0.5061080000000 1.0
C      1  0.5597280000000  0.5058330000000  0.5362240000000 1.0
C      1  0.5565120000000  0.5453720000000  0.5057900000000 1.0
C      1  0.4634460000000  0.5526330000000  0.4690610000000 1.0
C      1  0.4678490000000  0.5173010000000  0.5595490000000 1.0
C      1  0.4895210000000  0.5026670000000  0.4600680000000 1.0
C      1  0.5273870000000  0.5540370000000  0.4660810000000 1.0
C      1  0.4366510000000  0.5233180000000  0.4982410000000 1.0
C      1  0.4558290000000  0.4911600000000  0.5572140000000 1.0
C      1  0.5255080000000  0.4682440000000  0.5352260000000 1.0
C      1  0.4703290000000  0.4334860000000  0.5068200000000 1.0
C      1  0.4912290000000  0.4966720000000  0.5096130000000 1.0
END
