TITL C-81968-6147-5 0.0933222481843017 125000 -807.709731442847 0 0 117 (C1) n - 1
REM
REM in /rds/project/t2_vol4/rds-t2-cs072/BORA/CARBON/from-Arr/AIRSS/Generating-Clusters/GAP-ML-2020/Higher-Symm/SD-CG/HFTN-CG
REM
REM
REM
REM
REM
REM ./C.cell (b20cbc046b6831c77cfcea5457e17084)
REM AIRSS Version 0.9.1 bugfix July 2018 build 013d7b7c2542+ Fri, 06 Jul 2018 19:26:36 +0100
REM compiler GCC version 9.3.0
REM options -cpp -mtune=generic -march=x86-64 -g -O0
REM seed -214259461 1746354535 -1435915887 1465641589 -427206011 1798271990 1988454523 -1830498576 826739127 -1016044635 870217158 829378208 -1481066719 355752077 783772713 -1464793766 2022178267 -159529516 1636164102 1883351422 1200204659 1525429332 2113538848 1350619218 1016334786 117420768 -2044330364 -525977306 1029846660 1818168166 -1448300267 -1012345812 -420155461
REM
CELL 1.54180   50.00000   50.00000   50.00000   90.00000   90.00000   90.00000
LATT -1
SFAC C  
C      1  0.4545400000000  0.4211560000000  0.5114920000000 1.0
C      1  0.4502990000000  0.4174280000000  0.4789120000000 1.0
C      1  0.4706350000000  0.4138580000000  0.4596600000000 1.0
C      1  0.4977790000000  0.4078150000000  0.4666060000000 1.0
C      1  0.5098190000000  0.3944480000000  0.4888040000000 1.0
C      1  0.5314490000000  0.4042000000000  0.5038200000000 1.0
C      1  0.5086860000000  0.3947300000000  0.5174850000000 1.0
C      1  0.4944600000000  0.4068850000000  0.5388850000000 1.0
C      1  0.4662230000000  0.4125140000000  0.5402350000000 1.0
C      1  0.4795660000000  0.4989430000000  0.4767860000000 1.0
C      1  0.4972930000000  0.4807420000000  0.4604080000000 1.0
C      1  0.5253120000000  0.4774010000000  0.4718150000000 1.0
C      1  0.5272580000000  0.4922770000000  0.4961340000000 1.0
C      1  0.5320350000000  0.4798090000000  0.5206250000000 1.0
C      1  0.5146830000000  0.4936590000000  0.5404420000000 1.0
C      1  0.4880770000000  0.4808040000000  0.5395520000000 1.0
C      1  0.4658910000000  0.4934540000000  0.5238860000000 1.0
C      1  0.4647840000000  0.4836090000000  0.4957600000000 1.0
C      1  0.4929080000000  0.5492180000000  0.5873230000000 1.0
C      1  0.4363630000000  0.5442590000000  0.5624000000000 1.0
C      1  0.4129160000000  0.5452680000000  0.5079490000000 1.0
C      1  0.4312420000000  0.5459920000000  0.4487980000000 1.0
C      1  0.4753370000000  0.5441310000000  0.4125610000000 1.0
C      1  0.5405040000000  0.5453750000000  0.4224940000000 1.0
C      1  0.5790690000000  0.5637500000000  0.4752680000000 1.0
C      1  0.5823660000000  0.5486410000000  0.5165160000000 1.0
C      1  0.5476430000000  0.5474320000000  0.5698140000000 1.0
C      1  0.4611630000000  0.5668320000000  0.5074700000000 1.0
C      1  0.4621240000000  0.5770830000000  0.4781810000000 1.0
C      1  0.4825620000000  0.5766930000000  0.4567370000000 1.0
C      1  0.5120820000000  0.5793790000000  0.4524240000000 1.0
C      1  0.5354300000000  0.5810730000000  0.4700310000000 1.0
C      1  0.5421450000000  0.5793900000000  0.4994840000000 1.0
C      1  0.5291700000000  0.5675810000000  0.5244340000000 1.0
C      1  0.5044870000000  0.5751020000000  0.5418980000000 1.0
C      1  0.4772640000000  0.5671710000000  0.5337560000000 1.0
C      1  0.5690450000000  0.4974580000000  0.4539050000000 1.0
C      1  0.5818510000000  0.4988400000000  0.5042820000000 1.0
C      1  0.5584350000000  0.5009040000000  0.5555030000000 1.0
C      1  0.5043330000000  0.4976020000000  0.5835750000000 1.0
C      1  0.4517100000000  0.4950120000000  0.5675090000000 1.0
C      1  0.4205740000000  0.4948430000000  0.5180780000000 1.0
C      1  0.4276100000000  0.4950330000000  0.4628100000000 1.0
C      1  0.4657090000000  0.4925270000000  0.4256510000000 1.0
C      1  0.5217620000000  0.4968580000000  0.4230870000000 1.0
C      1  0.5753740000000  0.5477160000000  0.5427070000000 1.0
C      1  0.5219630000000  0.5379680000000  0.5671980000000 1.0
C      1  0.4723690000000  0.5402270000000  0.5712320000000 1.0
C      1  0.4356490000000  0.5356970000000  0.5362970000000 1.0
C      1  0.4292480000000  0.5402160000000  0.4859790000000 1.0
C      1  0.4568060000000  0.5350310000000  0.4456860000000 1.0
C      1  0.5024710000000  0.5451800000000  0.4128950000000 1.0
C      1  0.5621350000000  0.5468470000000  0.4387620000000 1.0
C      1  0.5885480000000  0.5367810000000  0.4737340000000 1.0
C      1  0.4369660000000  0.5653790000000  0.4693240000000 1.0
C      1  0.4703600000000  0.5609210000000  0.4354740000000 1.0
C      1  0.5190220000000  0.5650820000000  0.4268000000000 1.0
C      1  0.5596500000000  0.5699740000000  0.4565360000000 1.0
C      1  0.5703290000000  0.5703290000000  0.5007300000000 1.0
C      1  0.5532580000000  0.5655290000000  0.5478200000000 1.0
C      1  0.5085560000000  0.5650940000000  0.5684390000000 1.0
C      1  0.4575500000000  0.5642130000000  0.5596480000000 1.0
C      1  0.4324450000000  0.5624450000000  0.5199190000000 1.0
C      1  0.5789330000000  0.4848120000000  0.4788210000000 1.0
C      1  0.5657660000000  0.4874530000000  0.5289850000000 1.0
C      1  0.5302040000000  0.4881040000000  0.5678070000000 1.0
C      1  0.4795420000000  0.4823010000000  0.5718920000000 1.0
C      1  0.4395610000000  0.4827830000000  0.5410280000000 1.0
C      1  0.4287480000000  0.4826580000000  0.4913580000000 1.0
C      1  0.4437280000000  0.4806410000000  0.4425380000000 1.0
C      1  0.4949860000000  0.4817430000000  0.4282930000000 1.0
C      1  0.5431510000000  0.4851240000000  0.4426010000000 1.0
C      1  0.4452660000000  0.4529570000000  0.4469190000000 1.0
C      1  0.4946370000000  0.4518930000000  0.4240110000000 1.0
C      1  0.5449810000000  0.4558290000000  0.4368350000000 1.0
C      1  0.5754760000000  0.4569980000000  0.4804470000000 1.0
C      1  0.5718120000000  0.4589160000000  0.5316770000000 1.0
C      1  0.5344620000000  0.4597430000000  0.5708190000000 1.0
C      1  0.4813770000000  0.4530920000000  0.5759610000000 1.0
C      1  0.4398600000000  0.4539860000000  0.5418630000000 1.0
C      1  0.4252130000000  0.4536450000000  0.4930490000000 1.0
C      1  0.5193550000000  0.4429690000000  0.4342860000000 1.0
C      1  0.5577280000000  0.4460460000000  0.4610220000000 1.0
C      1  0.5695480000000  0.4453940000000  0.5060930000000 1.0
C      1  0.5517120000000  0.4494370000000  0.5499210000000 1.0
C      1  0.5095840000000  0.4449670000000  0.5718690000000 1.0
C      1  0.4635050000000  0.4401600000000  0.5535900000000 1.0
C      1  0.4336200000000  0.4407520000000  0.5174410000000 1.0
C      1  0.4342940000000  0.4392280000000  0.4702930000000 1.0
C      1  0.4711790000000  0.4402290000000  0.4424550000000 1.0
C      1  0.4744710000000  0.5268050000000  0.4733960000000 1.0
C      1  0.4996920000000  0.5356950000000  0.4662870000000 1.0
C      1  0.5239490000000  0.5326470000000  0.4741500000000 1.0
C      1  0.5301420000000  0.5207120000000  0.4968290000000 1.0
C      1  0.5258180000000  0.5367300000000  0.5192120000000 1.0
C      1  0.5110130000000  0.5243970000000  0.5400880000000 1.0
C      1  0.4831070000000  0.5353630000000  0.5404100000000 1.0
C      1  0.4628130000000  0.5230640000000  0.5240370000000 1.0
C      1  0.4598790000000  0.5367650000000  0.4974840000000 1.0
C      1  0.5314860000000  0.4461200000000  0.5289390000000 1.0
C      1  0.5081580000000  0.4341230000000  0.5449060000000 1.0
C      1  0.4859070000000  0.4510310000000  0.5340460000000 1.0
C      1  0.4787040000000  0.4393890000000  0.5091820000000 1.0
C      1  0.4747000000000  0.4573500000000  0.4899930000000 1.0
C      1  0.4876810000000  0.4535830000000  0.4656730000000 1.0
C      1  0.5114780000000  0.4335100000000  0.4613390000000 1.0
C      1  0.5335790000000  0.4447670000000  0.4773310000000 1.0
C      1  0.5419720000000  0.4330590000000  0.5041700000000 1.0
C      1  0.4223300000000  0.5224880000000  0.4634680000000 1.0
C      1  0.4619250000000  0.5197400000000  0.4214460000000 1.0
C      1  0.5227760000000  0.5238470000000  0.4135840000000 1.0
C      1  0.5767210000000  0.5246930000000  0.4510390000000 1.0
C      1  0.5888300000000  0.5260190000000  0.5000470000000 1.0
C      1  0.5669410000000  0.5270020000000  0.5614090000000 1.0
C      1  0.5069920000000  0.5244480000000  0.5888570000000 1.0
C      1  0.4496600000000  0.5219500000000  0.5748000000000 1.0
C      1  0.4137590000000  0.5210340000000  0.5235760000000 1.0
END
