TITL C-81858-6524-12 -20.7419847643157 125000 -542.401169142875 0 0 78 (Cs) n - 1
REM
REM in /rds/project/t2_vol4/rds-t2-cs072/BORA/CARBON/from-Arr/AIRSS/Generating-Clusters/GAP-ML-2020/Higher-Symm/SD-CG/HFTN-CG
REM
REM
REM
REM
REM
REM ./C.cell (b20cbc046b6831c77cfcea5457e17084)
REM AIRSS Version 0.9.1 bugfix July 2018 build 013d7b7c2542+ Fri, 06 Jul 2018 19:26:36 +0100
REM compiler GCC version 9.3.0
REM options -cpp -mtune=generic -march=x86-64 -g -O0
REM seed 1917149405 2008128616 85643218 -983813851 1857421782 -226812615 594103500 1220440476 -2026038926 -732674197 118005922 146392102 -1425335162 957812921 -1563210054 -1574744347 -1827832861 1858097198 -354578522 -167273874 -1996396688 884177866 -873731966 1199886740 597412453 -1890077086 -1432386976 1472735639 597393282 -701942969 659479494 1298282061 -951296503
REM
CELL 1.54180   50.00000   50.00000   50.00000   90.00000   90.00000   90.00000
LATT -1
SFAC C  
C      1  0.5306200000000  0.4784910000000  0.5616900000000 1.0
C      1  0.4694290000000  0.4784860000000  0.5617130000000 1.0
C      1  0.4710770000000  0.4230730000000  0.5002220000000 1.0
C      1  0.5289360000000  0.4230780000000  0.5002010000000 1.0
C      1  0.5158220000000  0.5051380000000  0.4755660000000 1.0
C      1  0.4841590000000  0.5051360000000  0.4755770000000 1.0
C      1  0.4383370000000  0.5227900000000  0.4658410000000 1.0
C      1  0.5616340000000  0.5228000000000  0.4657950000000 1.0
C      1  0.5354100000000  0.5501580000000  0.4963440000000 1.0
C      1  0.4645800000000  0.5501520000000  0.4963700000000 1.0
C      1  0.4330710000000  0.4967530000000  0.4760300000000 1.0
C      1  0.5669110000000  0.4967640000000  0.4759810000000 1.0
C      1  0.4531070000000  0.4622060000000  0.5415110000000 1.0
C      1  0.5469300000000  0.4622130000000  0.5414770000000 1.0
C      1  0.4738780000000  0.5212670000000  0.5742550000000 1.0
C      1  0.5261740000000  0.5212710000000  0.5742360000000 1.0
C      1  0.5283310000000  0.4397530000000  0.5438540000000 1.0
C      1  0.4717110000000  0.4397480000000  0.5438750000000 1.0
C      1  0.4733160000000  0.5778190000000  0.4881260000000 1.0
C      1  0.5266630000000  0.5778230000000  0.4881070000000 1.0
C      1  0.5256730000000  0.5593240000000  0.5450940000000 1.0
C      1  0.4743510000000  0.5593200000000  0.5451130000000 1.0
C      1  0.5275260000000  0.4961210000000  0.5027060000000 1.0
C      1  0.4724770000000  0.4961160000000  0.5027260000000 1.0
C      1  0.5137610000000  0.4533490000000  0.5642400000000 1.0
C      1  0.4862940000000  0.4533470000000  0.5642500000000 1.0
C      1  0.5138860000000  0.4621860000000  0.4445280000000 1.0
C      1  0.4860790000000  0.4621840000000  0.4445380000000 1.0
C      1  0.5597200000000  0.5407590000000  0.4854440000000 1.0
C      1  0.4402630000000  0.5407500000000  0.4854880000000 1.0
C      1  0.4423280000000  0.4914560000000  0.5027220000000 1.0
C      1  0.5576750000000  0.4914650000000  0.5026790000000 1.0
C      1  0.4678830000000  0.5413580000000  0.5242580000000 1.0
C      1  0.5321280000000  0.5413630000000  0.5242340000000 1.0
C      1  0.5265820000000  0.4408840000000  0.4576840000000 1.0
C      1  0.4733960000000  0.4408790000000  0.4577040000000 1.0
C      1  0.5145830000000  0.5840610000000  0.5368360000000 1.0
C      1  0.4854310000000  0.5840580000000  0.5368470000000 1.0
C      1  0.4853770000000  0.5465480000000  0.5687160000000 1.0
C      1  0.5146670000000  0.5465500000000  0.5687050000000 1.0
C      1  0.4452860000000  0.4765180000000  0.4611060000000 1.0
C      1  0.5546890000000  0.4765270000000  0.4610650000000 1.0
C      1  0.4708060000000  0.4875910000000  0.4494900000000 1.0
C      1  0.5291580000000  0.4875950000000  0.4494680000000 1.0
C      1  0.4847080000000  0.5030940000000  0.5502090000000 1.0
C      1  0.5153290000000  0.5030960000000  0.5501980000000 1.0
C      1  0.4464290000000  0.4372840000000  0.4944640000000 1.0
C      1  0.5535770000000  0.4372930000000  0.4944240000000 1.0
C      1  0.4860460000000  0.4231740000000  0.4759090000000 1.0
C      1  0.5139480000000  0.4231760000000  0.4758990000000 1.0
C      1  0.4359900000000  0.4681330000000  0.5191430000000 1.0
C      1  0.5640290000000  0.4681430000000  0.5190960000000 1.0
C      1  0.4853740000000  0.4239210000000  0.5247350000000 1.0
C      1  0.5146560000000  0.4239230000000  0.5247240000000 1.0
C      1  0.5510140000000  0.4497840000000  0.4683770000000 1.0
C      1  0.4489710000000  0.4497760000000  0.4684150000000 1.0
C      1  0.4852720000000  0.5744650000000  0.4612130000000 1.0
C      1  0.5146880000000  0.5744680000000  0.4612020000000 1.0
C      1  0.5129210000000  0.4710990000000  0.5062730000000 1.0
C      1  0.4870880000000  0.4710970000000  0.5062830000000 1.0
C      1  0.5145310000000  0.5923150000000  0.5083890000000 1.0
C      1  0.4854610000000  0.5923130000000  0.5084000000000 1.0
C      1  0.4739320000000  0.5501430000000  0.4515620000000 1.0
C      1  0.5260240000000  0.5501470000000  0.4515430000000 1.0
C      1  0.4870540000000  0.5134030000000  0.4086730000000 1.0
C      1  0.5128760000000  0.5134050000000  0.4086630000000 1.0
C      1  0.4244660000000  0.4449790000000  0.5089620000000 1.0
C      1  0.5755490000000  0.4449920000000  0.5089070000000 1.0
C      1  0.4621320000000  0.4989560000000  0.5826810000000 1.0
C      1  0.5379300000000  0.4989620000000  0.5826530000000 1.0
C      1  0.4742010000000  0.5145510000000  0.5254470000000 1.0
C      1  0.5258150000000  0.5145550000000  0.5254280000000 1.0
C      1  0.5454430000000  0.5317010000000  0.4427720000000 1.0
C      1  0.4545100000000  0.5316940000000  0.4428050000000 1.0
C      1  0.4676990000000  0.5099590000000  0.4290410000000 1.0
C      1  0.5322470000000  0.5099640000000  0.4290170000000 1.0
C      1  0.4848810000000  0.5354020000000  0.4760460000000 1.0
C      1  0.5150960000000  0.5354040000000  0.4760350000000 1.0
END
