TITL C-81848-6527-10 594.993021057425 125000 -694.813599944323 0 0 100 (D5) n - 1
REM
REM in /rds/project/t2_vol4/rds-t2-cs072/BORA/CARBON/from-Arr/AIRSS/Generating-Clusters/GAP-ML-2020/Higher-Symm/SD-CG/HFTN-CG
REM
REM
REM
REM
REM
REM ./C.cell (b20cbc046b6831c77cfcea5457e17084)
REM AIRSS Version 0.9.1 bugfix July 2018 build 013d7b7c2542+ Fri, 06 Jul 2018 19:26:36 +0100
REM compiler GCC version 9.3.0
REM options -cpp -mtune=generic -march=x86-64 -g -O0
REM seed -1087310730 -2036010778 -1506227130 -739157726 -857651044 -1830380423 -1913042747 -763889799 1610475053 -1495294072 1952074178 -612794273 2071456482 -330726245 -2039619125 1420030143 -165888679 -749440407 -477119106 747937467 1107408197 -1704559691 1572520742 -1835689540 76453010 -2038173307 -1463486272 -8314295 -1113340883 -731011462 -1861008293 763681374 -33988917
REM
CELL 1.54180   50.00000   50.00000   50.00000   90.00000   90.00000   90.00000
LATT -1
SFAC C  
C      1  0.4404860000000  0.5523170000000  0.5322850000000 1.0
C      1  0.4509050000000  0.5523110000000  0.4533690000000 1.0
C      1  0.5291780000000  0.5523030000000  0.4388910000000 1.0
C      1  0.5671350000000  0.5523040000000  0.5088600000000 1.0
C      1  0.5123200000000  0.5523120000000  0.5665800000000 1.0
C      1  0.5595000000000  0.4476870000000  0.5323180000000 1.0
C      1  0.5491160000000  0.4476830000000  0.4533970000000 1.0
C      1  0.4708490000000  0.4476890000000  0.4388840000000 1.0
C      1  0.4328610000000  0.4476970000000  0.5088360000000 1.0
C      1  0.4876500000000  0.4476950000000  0.5665810000000 1.0
C      1  0.4748360000000  0.5279620000000  0.5781710000000 1.0
C      1  0.4178790000000  0.5279630000000  0.5002200000000 1.0
C      1  0.4744140000000  0.5279530000000  0.4219630000000 1.0
C      1  0.5663120000000  0.5279460000000  0.4515480000000 1.0
C      1  0.5665720000000  0.5279520000000  0.5480900000000 1.0
C      1  0.5251300000000  0.4720470000000  0.5781850000000 1.0
C      1  0.5821210000000  0.4720370000000  0.5002590000000 1.0
C      1  0.5256200000000  0.4720380000000  0.4219770000000 1.0
C      1  0.4337100000000  0.4720480000000  0.4515220000000 1.0
C      1  0.4334070000000  0.4720540000000  0.5480640000000 1.0
C      1  0.5800570000000  0.5139340000000  0.5262380000000 1.0
C      1  0.4997850000000  0.5139440000000  0.5842450000000 1.0
C      1  0.4198130000000  0.5139480000000  0.5258270000000 1.0
C      1  0.4506580000000  0.5139400000000  0.4317160000000 1.0
C      1  0.5496940000000  0.5139310000000  0.4319700000000 1.0
C      1  0.4199320000000  0.4860700000000  0.5262040000000 1.0
C      1  0.5001770000000  0.4860660000000  0.5842460000000 1.0
C      1  0.5801760000000  0.4860550000000  0.5258640000000 1.0
C      1  0.5493720000000  0.4860520000000  0.4317400000000 1.0
C      1  0.4503360000000  0.4860610000000  0.4319500000000 1.0
C      1  0.5214120000000  0.5354720000000  0.5143120000000 1.0
C      1  0.4930060000000  0.5354750000000  0.5247820000000 1.0
C      1  0.4742690000000  0.5354750000000  0.5010020000000 1.0
C      1  0.4910960000000  0.5354720000000  0.4758340000000 1.0
C      1  0.5202320000000  0.5354700000000  0.4840600000000 1.0
C      1  0.4785790000000  0.4645300000000  0.5143030000000 1.0
C      1  0.5069800000000  0.4645280000000  0.5247910000000 1.0
C      1  0.5257300000000  0.4645250000000  0.5010210000000 1.0
C      1  0.5089180000000  0.4645250000000  0.4758430000000 1.0
C      1  0.4797770000000  0.4645280000000  0.4840520000000 1.0
C      1  0.4881240000000  0.5078050000000  0.4644410000000 1.0
C      1  0.5301490000000  0.5078020000000  0.4777160000000 1.0
C      1  0.5305100000000  0.5078050000000  0.5217860000000 1.0
C      1  0.4887080000000  0.5078100000000  0.5357480000000 1.0
C      1  0.4625130000000  0.5078100000000  0.5003070000000 1.0
C      1  0.5118970000000  0.4921910000000  0.4644490000000 1.0
C      1  0.4698650000000  0.4921950000000  0.4776990000000 1.0
C      1  0.4694770000000  0.4921980000000  0.5217680000000 1.0
C      1  0.5112700000000  0.4921950000000  0.5357560000000 1.0
C      1  0.5374870000000  0.4921910000000  0.5003300000000 1.0
C      1  0.4459280000000  0.4463350000000  0.4521260000000 1.0
C      1  0.5288210000000  0.4463260000000  0.4337880000000 1.0
C      1  0.5718780000000  0.4463260000000  0.5069570000000 1.0
C      1  0.5155950000000  0.4463350000000  0.5705160000000 1.0
C      1  0.4377540000000  0.4463400000000  0.5366290000000 1.0
C      1  0.5540930000000  0.5536600000000  0.4521440000000 1.0
C      1  0.4712080000000  0.5536660000000  0.4337680000000 1.0
C      1  0.4281190000000  0.5536750000000  0.5069180000000 1.0
C      1  0.4843740000000  0.5536730000000  0.5705030000000 1.0
C      1  0.5622300000000  0.5536640000000  0.5366510000000 1.0
C      1  0.5785610000000  0.5146000000000  0.4744070000000 1.0
C      1  0.5486170000000  0.5146080000000  0.5668050000000 1.0
C      1  0.4514880000000  0.5146170000000  0.5668800000000 1.0
C      1  0.4214030000000  0.5146140000000  0.4745270000000 1.0
C      1  0.4999380000000  0.5146030000000  0.4173760000000 1.0
C      1  0.4214500000000  0.4853970000000  0.4743740000000 1.0
C      1  0.4513530000000  0.4854000000000  0.5667850000000 1.0
C      1  0.5484830000000  0.4853910000000  0.5669030000000 1.0
C      1  0.5786090000000  0.4853830000000  0.4745640000000 1.0
C      1  0.5000980000000  0.4853870000000  0.4173780000000 1.0
C      1  0.4959410000000  0.5817460000000  0.5243710000000 1.0
C      1  0.4755680000000  0.5817470000000  0.5036600000000 1.0
C      1  0.4889700000000  0.5817440000000  0.4778840000000 1.0
C      1  0.5176250000000  0.5817410000000  0.4826650000000 1.0
C      1  0.5219340000000  0.5817430000000  0.5113960000000 1.0
C      1  0.5040460000000  0.4182570000000  0.5243830000000 1.0
C      1  0.5244300000000  0.4182540000000  0.5036830000000 1.0
C      1  0.5110420000000  0.4182530000000  0.4779000000000 1.0
C      1  0.4823840000000  0.4182560000000  0.4826650000000 1.0
C      1  0.4780600000000  0.4182580000000  0.5113940000000 1.0
C      1  0.5394320000000  0.5603470000000  0.5213700000000 1.0
C      1  0.4918620000000  0.5603530000000  0.5440980000000 1.0
C      1  0.4555460000000  0.5603540000000  0.5058800000000 1.0
C      1  0.4806710000000  0.5603490000000  0.4595310000000 1.0
C      1  0.5325160000000  0.5603450000000  0.4691040000000 1.0
C      1  0.4605560000000  0.4396550000000  0.5213550000000 1.0
C      1  0.5081140000000  0.4396520000000  0.5441100000000 1.0
C      1  0.5444510000000  0.4396460000000  0.5059110000000 1.0
C      1  0.5193510000000  0.4396460000000  0.4595480000000 1.0
C      1  0.4675010000000  0.4396510000000  0.4690930000000 1.0
C      1  0.4373970000000  0.5275370000000  0.4536170000000 1.0
C      1  0.5247670000000  0.5275270000000  0.4261250000000 1.0
C      1  0.5779130000000  0.5275270000000  0.5007230000000 1.0
C      1  0.5233890000000  0.5275360000000  0.5743200000000 1.0
C      1  0.4365460000000  0.5275420000000  0.5452070000000 1.0
C      1  0.5626240000000  0.4724580000000  0.4536480000000 1.0
C      1  0.4752650000000  0.4724640000000  0.4261170000000 1.0
C      1  0.4220860000000  0.4724740000000  0.5006920000000 1.0
C      1  0.4765780000000  0.4724730000000  0.5743130000000 1.0
C      1  0.5634350000000  0.4724630000000  0.5452390000000 1.0
END
