TITL C-81870-6614-8 971.298629890408 125000 -993.995627049453 0 0 152 (Th) n - 1
REM
REM in /rds/project/t2_vol4/rds-t2-cs072/BORA/CARBON/from-Arr/AIRSS/Generating-Clusters/GAP-ML-2020/Higher-Symm/SD-CG/HFTN-CG
REM
REM
REM
REM
REM
REM ./C.cell (b20cbc046b6831c77cfcea5457e17084)
REM AIRSS Version 0.9.1 bugfix July 2018 build 013d7b7c2542+ Fri, 06 Jul 2018 19:26:36 +0100
REM compiler GCC version 9.3.0
REM options -cpp -mtune=generic -march=x86-64 -g -O0
REM seed 651077623 1065901663 -185028654 1743673511 -582965868 425784475 1329313302 -2049203176 2015733058 -1652754143 349571992 -1492481439 1324165848 -1772956231 660047806 864411320 -1946708 -1086535793 -350311016 1972640723 419247997 1505802306 -318382499 -730172665 573138688 804658187 -173796983 -1370262154 2129310549 1101701163 2145021594 -1488091288 -284204038
REM
CELL 1.54180   50.00000   50.00000   50.00000   90.00000   90.00000   90.00000
LATT -1
SFAC C  
C      1  0.6010610000000  0.5305070000000  0.5399300000000 1.0
C      1  0.5402850000000  0.6009870000000  0.5302210000000 1.0
C      1  0.5305770000000  0.5402120000000  0.6007010000000 1.0
C      1  0.3995080000000  0.5305020000000  0.4599140000000 1.0
C      1  0.6010670000000  0.4699120000000  0.4599230000000 1.0
C      1  0.3995060000000  0.4699070000000  0.5399210000000 1.0
C      1  0.4602800000000  0.6009840000000  0.4696220000000 1.0
C      1  0.5402930000000  0.3994300000000  0.4696260000000 1.0
C      1  0.4602830000000  0.3994280000000  0.5302180000000 1.0
C      1  0.4699920000000  0.5402100000000  0.3991420000000 1.0
C      1  0.5305890000000  0.4602040000000  0.3991450000000 1.0
C      1  0.4699840000000  0.4602030000000  0.6006990000000 1.0
C      1  0.6010630000000  0.4699130000000  0.5399300000000 1.0
C      1  0.5402900000000  0.3994300000000  0.5302210000000 1.0
C      1  0.5305790000000  0.4602050000000  0.6007020000000 1.0
C      1  0.3995100000000  0.4699070000000  0.4599140000000 1.0
C      1  0.6010650000000  0.5305070000000  0.4599220000000 1.0
C      1  0.3995050000000  0.5305020000000  0.5399210000000 1.0
C      1  0.4602860000000  0.3994280000000  0.4696230000000 1.0
C      1  0.5402870000000  0.6009870000000  0.4696260000000 1.0
C      1  0.4602780000000  0.6009850000000  0.5302170000000 1.0
C      1  0.4699940000000  0.4602030000000  0.3991420000000 1.0
C      1  0.5305860000000  0.5402110000000  0.3991450000000 1.0
C      1  0.4699820000000  0.5402100000000  0.6006990000000 1.0
C      1  0.5239120000000  0.4347300000000  0.5309080000000 1.0
C      1  0.5312730000000  0.5238340000000  0.4344450000000 1.0
C      1  0.4348060000000  0.5311900000000  0.5235440000000 1.0
C      1  0.4766630000000  0.4347280000000  0.4689360000000 1.0
C      1  0.5239110000000  0.5656860000000  0.4689380000000 1.0
C      1  0.4766560000000  0.5656850000000  0.5309050000000 1.0
C      1  0.4692970000000  0.5238320000000  0.5653990000000 1.0
C      1  0.5312680000000  0.4765830000000  0.5654010000000 1.0
C      1  0.4693040000000  0.4765800000000  0.4344420000000 1.0
C      1  0.5657640000000  0.5311940000000  0.4762990000000 1.0
C      1  0.4348090000000  0.4692200000000  0.4762930000000 1.0
C      1  0.5657640000000  0.4692240000000  0.5235500000000 1.0
C      1  0.5239080000000  0.5656860000000  0.5309080000000 1.0
C      1  0.5312740000000  0.4765820000000  0.4344450000000 1.0
C      1  0.4348070000000  0.4692200000000  0.5235450000000 1.0
C      1  0.4766590000000  0.5656850000000  0.4689350000000 1.0
C      1  0.5239140000000  0.4347300000000  0.4689380000000 1.0
C      1  0.4766600000000  0.4347280000000  0.5309060000000 1.0
C      1  0.4692980000000  0.4765810000000  0.5653990000000 1.0
C      1  0.5312670000000  0.5238340000000  0.5654010000000 1.0
C      1  0.4693030000000  0.5238320000000  0.4344420000000 1.0
C      1  0.5657660000000  0.4692240000000  0.4762990000000 1.0
C      1  0.4348080000000  0.5311900000000  0.4762930000000 1.0
C      1  0.5657620000000  0.5311940000000  0.5235500000000 1.0
C      1  0.4332950000000  0.4413960000000  0.4863790000000 1.0
C      1  0.4867500000000  0.4332140000000  0.4411120000000 1.0
C      1  0.4414800000000  0.4866660000000  0.4329270000000 1.0
C      1  0.5672790000000  0.4414000000000  0.5134640000000 1.0
C      1  0.4332910000000  0.5590140000000  0.5134580000000 1.0
C      1  0.5672770000000  0.5590180000000  0.4863850000000 1.0
C      1  0.5138240000000  0.4332150000000  0.5587310000000 1.0
C      1  0.4867410000000  0.5671990000000  0.5587300000000 1.0
C      1  0.5138260000000  0.5672000000000  0.4411130000000 1.0
C      1  0.5590920000000  0.4866690000000  0.5669170000000 1.0
C      1  0.4414730000000  0.5137450000000  0.5669110000000 1.0
C      1  0.5590970000000  0.5137480000000  0.4329320000000 1.0
C      1  0.4332920000000  0.5590140000000  0.4863790000000 1.0
C      1  0.4867470000000  0.5671990000000  0.4411120000000 1.0
C      1  0.4414790000000  0.5137450000000  0.4329270000000 1.0
C      1  0.5672760000000  0.5590180000000  0.5134640000000 1.0
C      1  0.4332940000000  0.4413960000000  0.5134580000000 1.0
C      1  0.5672800000000  0.4414000000000  0.4863850000000 1.0
C      1  0.5138200000000  0.5672000000000  0.5587310000000 1.0
C      1  0.4867450000000  0.4332140000000  0.5587300000000 1.0
C      1  0.5138290000000  0.4332150000000  0.4411140000000 1.0
C      1  0.5590910000000  0.5137490000000  0.5669160000000 1.0
C      1  0.4414740000000  0.4866660000000  0.5669120000000 1.0
C      1  0.5590980000000  0.4866690000000  0.4329320000000 1.0
C      1  0.4837840000000  0.5161150000000  0.5390760000000 1.0
C      1  0.5394410000000  0.4837100000000  0.5158310000000 1.0
C      1  0.5161930000000  0.5393620000000  0.4834230000000 1.0
C      1  0.5167860000000  0.5161160000000  0.4607670000000 1.0
C      1  0.4837890000000  0.4842990000000  0.4607660000000 1.0
C      1  0.5167830000000  0.4843000000000  0.5390780000000 1.0
C      1  0.4611320000000  0.4837070000000  0.4840120000000 1.0
C      1  0.5394410000000  0.5167070000000  0.4840150000000 1.0
C      1  0.4611300000000  0.5167050000000  0.5158280000000 1.0
C      1  0.4843760000000  0.5393620000000  0.5164200000000 1.0
C      1  0.5161940000000  0.4610530000000  0.5164220000000 1.0
C      1  0.4843790000000  0.4610510000000  0.4834220000000 1.0
C      1  0.4837850000000  0.4842990000000  0.5390760000000 1.0
C      1  0.5394400000000  0.5167070000000  0.5158310000000 1.0
C      1  0.5161950000000  0.4610520000000  0.4834240000000 1.0
C      1  0.5167870000000  0.4843000000000  0.4607680000000 1.0
C      1  0.4837880000000  0.5161150000000  0.4607660000000 1.0
C      1  0.5167820000000  0.5161160000000  0.5390770000000 1.0
C      1  0.4611310000000  0.5167050000000  0.4840120000000 1.0
C      1  0.5394420000000  0.4837100000000  0.4840160000000 1.0
C      1  0.4611300000000  0.4837070000000  0.5158280000000 1.0
C      1  0.4843780000000  0.4610510000000  0.5164200000000 1.0
C      1  0.5161920000000  0.5393630000000  0.5164210000000 1.0
C      1  0.4843770000000  0.5393620000000  0.4834220000000 1.0
C      1  0.5752190000000  0.5347520000000  0.4462110000000 1.0
C      1  0.4465680000000  0.5751380000000  0.5344620000000 1.0
C      1  0.5348260000000  0.4464950000000  0.5748550000000 1.0
C      1  0.4253500000000  0.5347480000000  0.5536320000000 1.0
C      1  0.5752160000000  0.4656670000000  0.5536390000000 1.0
C      1  0.4253570000000  0.4656620000000  0.4462050000000 1.0
C      1  0.5539990000000  0.5751410000000  0.4653810000000 1.0
C      1  0.4465750000000  0.4252740000000  0.4653770000000 1.0
C      1  0.5540000000000  0.4252770000000  0.5344670000000 1.0
C      1  0.4657470000000  0.4464920000000  0.4249880000000 1.0
C      1  0.5348300000000  0.5539220000000  0.4249910000000 1.0
C      1  0.4657380000000  0.5539200000000  0.5748520000000 1.0
C      1  0.5752210000000  0.4656660000000  0.4462110000000 1.0
C      1  0.4465720000000  0.4252740000000  0.5344620000000 1.0
C      1  0.5348230000000  0.5539220000000  0.5748550000000 1.0
C      1  0.4253520000000  0.4656620000000  0.5536320000000 1.0
C      1  0.5752140000000  0.5347520000000  0.5536390000000 1.0
C      1  0.4253550000000  0.5347480000000  0.4462050000000 1.0
C      1  0.5540030000000  0.4252770000000  0.4653810000000 1.0
C      1  0.4465710000000  0.5751370000000  0.4653760000000 1.0
C      1  0.5539950000000  0.5751410000000  0.5344670000000 1.0
C      1  0.4657440000000  0.5539200000000  0.4249880000000 1.0
C      1  0.5348330000000  0.4464940000000  0.4249920000000 1.0
C      1  0.4657410000000  0.4464930000000  0.5748520000000 1.0
C      1  0.5158250000000  0.5157030000000  0.4079830000000 1.0
C      1  0.4083450000000  0.5157400000000  0.5154130000000 1.0
C      1  0.5157830000000  0.4082680000000  0.5154580000000 1.0
C      1  0.4847450000000  0.5157020000000  0.5918610000000 1.0
C      1  0.5158170000000  0.4847120000000  0.5918620000000 1.0
C      1  0.4847550000000  0.4847110000000  0.4079810000000 1.0
C      1  0.5922260000000  0.5157450000000  0.4844300000000 1.0
C      1  0.4083470000000  0.4846690000000  0.4844220000000 1.0
C      1  0.5922250000000  0.4846740000000  0.5154210000000 1.0
C      1  0.4847930000000  0.4082670000000  0.4843860000000 1.0
C      1  0.5157790000000  0.5921470000000  0.4843870000000 1.0
C      1  0.4847870000000  0.5921470000000  0.5154560000000 1.0
C      1  0.5158250000000  0.4847120000000  0.4079830000000 1.0
C      1  0.4083450000000  0.4846690000000  0.5154130000000 1.0
C      1  0.5157780000000  0.5921470000000  0.5154580000000 1.0
C      1  0.4847460000000  0.4847120000000  0.5918610000000 1.0
C      1  0.5158160000000  0.5157030000000  0.5918620000000 1.0
C      1  0.4847540000000  0.5157020000000  0.4079810000000 1.0
C      1  0.5922270000000  0.4846740000000  0.4844300000000 1.0
C      1  0.4083460000000  0.5157400000000  0.4844220000000 1.0
C      1  0.5922240000000  0.5157450000000  0.5154210000000 1.0
C      1  0.4847880000000  0.5921470000000  0.4843850000000 1.0
C      1  0.5157840000000  0.4082680000000  0.4843870000000 1.0
C      1  0.4847920000000  0.4082670000000  0.5154570000000 1.0
C      1  0.4400820000000  0.5604100000000  0.4397140000000 1.0
C      1  0.4400800000000  0.4400010000000  0.5601240000000 1.0
C      1  0.5604940000000  0.4400040000000  0.4397200000000 1.0
C      1  0.5604890000000  0.4400050000000  0.5601290000000 1.0
C      1  0.5604910000000  0.5604130000000  0.4397200000000 1.0
C      1  0.4400770000000  0.5604100000000  0.5601230000000 1.0
C      1  0.5604850000000  0.5604130000000  0.5601290000000 1.0
C      1  0.4400850000000  0.4400010000000  0.4397150000000 1.0
END
