TITL C-81866-6518-8 0.0526964858518972 125000 -529.304764359016 0 0 79 (C1) n - 1
REM
REM in /rds/project/t2_vol4/rds-t2-cs072/BORA/CARBON/from-Arr/AIRSS/Generating-Clusters/GAP-ML-2020/Higher-Symm/SD-CG/HFTN-CG
REM
REM
REM
REM
REM
REM ./C.cell (b20cbc046b6831c77cfcea5457e17084)
REM AIRSS Version 0.9.1 bugfix July 2018 build 013d7b7c2542+ Fri, 06 Jul 2018 19:26:36 +0100
REM compiler GCC version 9.3.0
REM options -cpp -mtune=generic -march=x86-64 -g -O0
REM seed -203347247 468154515 907596233 -106022524 2047473633 -880929227 -714529248 -495511235 263313486 -916733949 1929561322 2107448918 1370012236 306773324 460140615 -922075669 -829972769 1325017897 161817794 -1395406020 -1761515303 217345236 916877720 238814101 -549783548 -223828072 -1900707131 -1653471807 537117317 163514685 -245208049 153568602 -1988545160
REM
CELL 1.54180   50.00000   50.00000   50.00000   90.00000   90.00000   90.00000
LATT -1
SFAC C  
C      1  0.4749250000000  0.4288090000000  0.5335450000000 1.0
C      1  0.4565210000000  0.4309110000000  0.4839570000000 1.0
C      1  0.5007140000000  0.4326690000000  0.4533530000000 1.0
C      1  0.5405920000000  0.4275210000000  0.4892930000000 1.0
C      1  0.5243280000000  0.4263290000000  0.5365620000000 1.0
C      1  0.5210630000000  0.5550370000000  0.5448750000000 1.0
C      1  0.4670380000000  0.5531090000000  0.5357390000000 1.0
C      1  0.4644360000000  0.5585090000000  0.4769290000000 1.0
C      1  0.5106640000000  0.5564050000000  0.4498210000000 1.0
C      1  0.5451710000000  0.5566410000000  0.4913430000000 1.0
C      1  0.5134490000000  0.4685410000000  0.5639500000000 1.0
C      1  0.4420860000000  0.4717400000000  0.5331660000000 1.0
C      1  0.4485060000000  0.4730440000000  0.4599520000000 1.0
C      1  0.5256290000000  0.4725870000000  0.4390780000000 1.0
C      1  0.5636810000000  0.4693170000000  0.5062950000000 1.0
C      1  0.4646610000000  0.4550810000000  0.5438410000000 1.0
C      1  0.4420020000000  0.4552700000000  0.4812090000000 1.0
C      1  0.5008210000000  0.4581230000000  0.4395760000000 1.0
C      1  0.5530060000000  0.4539060000000  0.4834250000000 1.0
C      1  0.5316640000000  0.4531890000000  0.5470120000000 1.0
C      1  0.5714950000000  0.4984890000000  0.5000740000000 1.0
C      1  0.5224760000000  0.4978130000000  0.5707220000000 1.0
C      1  0.4410870000000  0.5009420000000  0.5381210000000 1.0
C      1  0.4411600000000  0.5014140000000  0.4675020000000 1.0
C      1  0.5226040000000  0.5016210000000  0.4329410000000 1.0
C      1  0.4817150000000  0.5777120000000  0.5289570000000 1.0
C      1  0.4845290000000  0.5803100000000  0.4807800000000 1.0
C      1  0.5087580000000  0.5797930000000  0.4653100000000 1.0
C      1  0.5256280000000  0.5793610000000  0.4885710000000 1.0
C      1  0.5079120000000  0.5793510000000  0.5335650000000 1.0
C      1  0.5170440000000  0.4193320000000  0.4740600000000 1.0
C      1  0.5396420000000  0.4174310000000  0.5150270000000 1.0
C      1  0.4986830000000  0.4182900000000  0.5434040000000 1.0
C      1  0.4710890000000  0.4188210000000  0.5062960000000 1.0
C      1  0.4767330000000  0.4224610000000  0.4654780000000 1.0
C      1  0.5263680000000  0.5328660000000  0.4999450000000 1.0
C      1  0.5106760000000  0.5329250000000  0.5261130000000 1.0
C      1  0.4818640000000  0.5331050000000  0.5187860000000 1.0
C      1  0.4799800000000  0.5341220000000  0.4885330000000 1.0
C      1  0.5073180000000  0.5332430000000  0.4766170000000 1.0
C      1  0.4304030000000  0.5174920000000  0.5176060000000 1.0
C      1  0.4519590000000  0.5187330000000  0.4456880000000 1.0
C      1  0.5425680000000  0.5214270000000  0.4317210000000 1.0
C      1  0.5743880000000  0.5222130000000  0.5147180000000 1.0
C      1  0.5080510000000  0.5194720000000  0.5815520000000 1.0
C      1  0.5577660000000  0.5193500000000  0.4565690000000 1.0
C      1  0.5593420000000  0.5201390000000  0.5399080000000 1.0
C      1  0.4803510000000  0.5177910000000  0.5729910000000 1.0
C      1  0.4267510000000  0.4997870000000  0.4949930000000 1.0
C      1  0.4682950000000  0.5009440000000  0.4320460000000 1.0
C      1  0.4631740000000  0.5453150000000  0.4487940000000 1.0
C      1  0.5368160000000  0.5482320000000  0.4416370000000 1.0
C      1  0.5629210000000  0.5498080000000  0.5139370000000 1.0
C      1  0.5060470000000  0.5469440000000  0.5688240000000 1.0
C      1  0.4393580000000  0.5448580000000  0.5183730000000 1.0
C      1  0.5128510000000  0.5078670000000  0.4614430000000 1.0
C      1  0.5414830000000  0.5066750000000  0.5003090000000 1.0
C      1  0.5143460000000  0.5060870000000  0.5416080000000 1.0
C      1  0.4690470000000  0.5065000000000  0.5275520000000 1.0
C      1  0.4679030000000  0.5086170000000  0.4803320000000 1.0
C      1  0.4687970000000  0.4903960000000  0.5040210000000 1.0
C      1  0.4901790000000  0.4924190000000  0.4677330000000 1.0
C      1  0.5415690000000  0.4991490000000  0.4721870000000 1.0
C      1  0.5392980000000  0.4978190000000  0.5300760000000 1.0
C      1  0.4847640000000  0.4986740000000  0.5502440000000 1.0
C      1  0.5505060000000  0.5471360000000  0.5399440000000 1.0
C      1  0.4778510000000  0.5445770000000  0.5627300000000 1.0
C      1  0.4418690000000  0.5556810000000  0.4942760000000 1.0
C      1  0.4866810000000  0.5475800000000  0.4368720000000 1.0
C      1  0.5534560000000  0.5468650000000  0.4645010000000 1.0
C      1  0.4376380000000  0.4737150000000  0.5041320000000 1.0
C      1  0.4754250000000  0.4761200000000  0.4452070000000 1.0
C      1  0.5444890000000  0.4715780000000  0.4621710000000 1.0
C      1  0.5487990000000  0.4699230000000  0.5312800000000 1.0
C      1  0.4849790000000  0.4704230000000  0.5574430000000 1.0
C      1  0.5010640000000  0.5835860000000  0.5054160000000 1.0
C      1  0.4934880000000  0.4779110000000  0.4942210000000 1.0
C      1  0.5023330000000  0.4548420000000  0.5014410000000 1.0
C      1  0.4926750000000  0.4098210000000  0.4882170000000 1.0
END
