TITL C-81950-3484-4 -0.0119142280430023 125000 -265.630491051722 0 0 39 (C3h) n - 1
REM
REM in /rds/project/t2_vol4/rds-t2-cs072/BORA/CARBON/from-Arr/AIRSS/Generating-Clusters/GAP-ML-2020/Higher-Symm/SD-CG/HFTN-CG
REM
REM
REM
REM
REM
REM ./C.cell (b20cbc046b6831c77cfcea5457e17084)
REM AIRSS Version 0.9.1 bugfix July 2018 build 013d7b7c2542+ Fri, 06 Jul 2018 19:26:36 +0100
REM compiler GCC version 9.3.0
REM options -cpp -mtune=generic -march=x86-64 -g -O0
REM seed -1624412982 -9537631 -684681777 -265273300 -1784559576 1048481032 797605952 646784965 853757114 -2049152731 1999702673 1744878859 1031629863 -1055025854 1684386548 -269719193 -1273396777 -502442498 -174570436 915968298 -879011531 -125623031 -783281507 -1355037397 -2013075604 -576079204 1754597851 -1482352091 1707153373 -202107870 1233696116 1273688231 -1643434009
REM
CELL 1.54180   50.00000   50.00000   50.00000   90.00000   90.00000   90.00000
LATT -1
SFAC C  
C      1  0.4356450000000  0.4728740000000  0.5091960000000 1.0
C      1  0.4356550000000  0.5055920000000  0.4718880000000 1.0
C      1  0.4356460000000  0.5215430000000  0.5188760000000 1.0
C      1  0.5599340000000  0.4728680000000  0.5092230000000 1.0
C      1  0.5599440000000  0.5055850000000  0.4719140000000 1.0
C      1  0.5599350000000  0.5215370000000  0.5189030000000 1.0
C      1  0.5123060000000  0.5451910000000  0.4964060000000 1.0
C      1  0.5122930000000  0.4805190000000  0.5409390000000 1.0
C      1  0.5123100000000  0.4742880000000  0.4626640000000 1.0
C      1  0.4832860000000  0.5451930000000  0.4963990000000 1.0
C      1  0.4832730000000  0.4805200000000  0.5409330000000 1.0
C      1  0.4832900000000  0.4742890000000  0.4626580000000 1.0
C      1  0.5327920000000  0.4996650000000  0.5415450000000 1.0
C      1  0.5328030000000  0.4641930000000  0.4789500000000 1.0
C      1  0.5328070000000  0.5361370000000  0.4795280000000 1.0
C      1  0.4627770000000  0.4996690000000  0.5415300000000 1.0
C      1  0.4627880000000  0.4641960000000  0.4789350000000 1.0
C      1  0.4627920000000  0.5361410000000  0.4795130000000 1.0
C      1  0.5365900000000  0.5160730000000  0.4582990000000 1.0
C      1  0.5365740000000  0.5280820000000  0.5347840000000 1.0
C      1  0.5365760000000  0.4558400000000  0.5069420000000 1.0
C      1  0.4590160000000  0.5160770000000  0.4582830000000 1.0
C      1  0.4590010000000  0.5280860000000  0.5347670000000 1.0
C      1  0.4590030000000  0.4558440000000  0.5069250000000 1.0
C      1  0.4367130000000  0.4790690000000  0.4801930000000 1.0
C      1  0.4367130000000  0.5276130000000  0.4917550000000 1.0
C      1  0.4367040000000  0.4933280000000  0.5280140000000 1.0
C      1  0.5588790000000  0.4790630000000  0.4802190000000 1.0
C      1  0.5588790000000  0.5276060000000  0.4917810000000 1.0
C      1  0.5588700000000  0.4933210000000  0.5280400000000 1.0
C      1  0.5192850000000  0.5478740000000  0.5254830000000 1.0
C      1  0.5192790000000  0.4539960000000  0.5287270000000 1.0
C      1  0.5192990000000  0.4981260000000  0.4458040000000 1.0
C      1  0.4762960000000  0.5478770000000  0.5254740000000 1.0
C      1  0.4762900000000  0.4539990000000  0.5287180000000 1.0
C      1  0.4763100000000  0.4981280000000  0.4457950000000 1.0
C      1  0.4977880000000  0.5567850000000  0.5405100000000 1.0
C      1  0.4978080000000  0.5066900000000  0.4305670000000 1.0
C      1  0.4977840000000  0.4365250000000  0.5289230000000 1.0
END
