TITL C-81152-3414-7 0.293279269800236 125000 -759.355725144012 0 0 109 (C1) n - 1
REM
REM in /rds/project/t2_vol4/rds-t2-cs072/BORA/CARBON/from-Arr/AIRSS/Generating-Clusters/GAP-ML-2020/Higher-Symm/SD-CG/HFTN-CG
REM
REM
REM
REM
REM
REM ./C.cell (b20cbc046b6831c77cfcea5457e17084)
REM AIRSS Version 0.9.1 bugfix July 2018 build 013d7b7c2542+ Fri, 06 Jul 2018 19:26:36 +0100
REM compiler GCC version 9.3.0
REM options -cpp -mtune=generic -march=x86-64 -g -O0
REM seed -882526154 1511944725 1306093752 -249789755 -1444606981 -1856824072 1608546903 -796942794 905469732 374761479 1210010604 -1677860915 -1024290930 650386100 -929788063 1804835157 -2005233551 2106190874 326225792 365974101 -1523934262 -384202899 422716919 -274389668 903521947 -1692499412 -1481267992 -779304716 -814921548 753841427 1316990393 -746589752 -1753381052
REM
CELL 1.54180   50.00000   50.00000   50.00000   90.00000   90.00000   90.00000
LATT -1
SFAC C  
C      1  0.4381040000000  0.5461930000000  0.4398340000000 1.0
C      1  0.5617940000000  0.4577260000000  0.4395960000000 1.0
C      1  0.4374850000000  0.5434660000000  0.5608530000000 1.0
C      1  0.5633620000000  0.4535670000000  0.5599280000000 1.0
C      1  0.5345920000000  0.4433950000000  0.4844530000000 1.0
C      1  0.4662710000000  0.5570860000000  0.4853810000000 1.0
C      1  0.5380240000000  0.4399510000000  0.5152500000000 1.0
C      1  0.4663140000000  0.5561770000000  0.5159640000000 1.0
C      1  0.4931290000000  0.5104380000000  0.5760920000000 1.0
C      1  0.5067040000000  0.4858410000000  0.5748290000000 1.0
C      1  0.4934210000000  0.5145630000000  0.4234930000000 1.0
C      1  0.5070520000000  0.4898690000000  0.4238440000000 1.0
C      1  0.4894080000000  0.4675130000000  0.4370740000000 1.0
C      1  0.5116560000000  0.5366830000000  0.4365900000000 1.0
C      1  0.4887180000000  0.4646230000000  0.5605150000000 1.0
C      1  0.5111490000000  0.5328410000000  0.5634520000000 1.0
C      1  0.4401870000000  0.5168700000000  0.5720820000000 1.0
C      1  0.5598790000000  0.4798820000000  0.5717690000000 1.0
C      1  0.4405980000000  0.5202440000000  0.4271990000000 1.0
C      1  0.5596550000000  0.4839160000000  0.4275510000000 1.0
C      1  0.5617850000000  0.5319870000000  0.5261400000000 1.0
C      1  0.4365110000000  0.4668840000000  0.5244050000000 1.0
C      1  0.5623870000000  0.5337400000000  0.4745710000000 1.0
C      1  0.4378610000000  0.4683730000000  0.4727390000000 1.0
C      1  0.5117800000000  0.5605680000000  0.5155650000000 1.0
C      1  0.4879760000000  0.4382490000000  0.5129340000000 1.0
C      1  0.5118460000000  0.5616300000000  0.4861340000000 1.0
C      1  0.4875960000000  0.4382300000000  0.4834230000000 1.0
C      1  0.5134710000000  0.4210230000000  0.4824090000000 1.0
C      1  0.4865610000000  0.5796180000000  0.4855050000000 1.0
C      1  0.5142250000000  0.4204560000000  0.5141480000000 1.0
C      1  0.4865730000000  0.5786240000000  0.5171980000000 1.0
C      1  0.4556210000000  0.5639120000000  0.5663950000000 1.0
C      1  0.5449920000000  0.4328800000000  0.5649190000000 1.0
C      1  0.4564150000000  0.5666980000000  0.4353600000000 1.0
C      1  0.5434450000000  0.4375730000000  0.4353670000000 1.0
C      1  0.5084040000000  0.5354620000000  0.4696910000000 1.0
C      1  0.4904980000000  0.4660620000000  0.4693240000000 1.0
C      1  0.5084390000000  0.5331590000000  0.5300980000000 1.0
C      1  0.4877240000000  0.4656810000000  0.5272260000000 1.0
C      1  0.4933540000000  0.5911920000000  0.5425370000000 1.0
C      1  0.5066250000000  0.4079840000000  0.5391300000000 1.0
C      1  0.4935260000000  0.5933980000000  0.4608480000000 1.0
C      1  0.5064590000000  0.4088920000000  0.4570060000000 1.0
C      1  0.5755640000000  0.4990850000000  0.5578580000000 1.0
C      1  0.4241490000000  0.4982540000000  0.5574370000000 1.0
C      1  0.5759430000000  0.5027400000000  0.4417260000000 1.0
C      1  0.4247060000000  0.5009020000000  0.4410090000000 1.0
C      1  0.4673660000000  0.4798850000000  0.4826010000000 1.0
C      1  0.5309190000000  0.5207880000000  0.4837320000000 1.0
C      1  0.4649900000000  0.4792170000000  0.5150430000000 1.0
C      1  0.5317860000000  0.5200130000000  0.5153260000000 1.0
C      1  0.4378450000000  0.4739630000000  0.5534900000000 1.0
C      1  0.5612770000000  0.5233550000000  0.5545360000000 1.0
C      1  0.4385130000000  0.4764910000000  0.4439790000000 1.0
C      1  0.5620350000000  0.5270730000000  0.4455100000000 1.0
C      1  0.5079690000000  0.5663010000000  0.4332710000000 1.0
C      1  0.4925310000000  0.4379430000000  0.4314220000000 1.0
C      1  0.5074090000000  0.5623520000000  0.5684150000000 1.0
C      1  0.4926590000000  0.4351300000000  0.5648430000000 1.0
C      1  0.5354640000000  0.4919550000000  0.4823550000000 1.0
C      1  0.4700450000000  0.5091490000000  0.4853380000000 1.0
C      1  0.5365790000000  0.4908140000000  0.5135980000000 1.0
C      1  0.4676850000000  0.5089320000000  0.5133960000000 1.0
C      1  0.4232070000000  0.5405100000000  0.4652840000000 1.0
C      1  0.5772520000000  0.4621040000000  0.4644450000000 1.0
C      1  0.4225480000000  0.5389980000000  0.5350990000000 1.0
C      1  0.5788600000000  0.4592050000000  0.5343490000000 1.0
C      1  0.4799800000000  0.5315980000000  0.4742730000000 1.0
C      1  0.5167300000000  0.4701270000000  0.4819680000000 1.0
C      1  0.4798820000000  0.5300260000000  0.5250820000000 1.0
C      1  0.5321120000000  0.4665510000000  0.5280270000000 1.0
C      1  0.5211860000000  0.5812860000000  0.5506540000000 1.0
C      1  0.4787490000000  0.4168870000000  0.5465740000000 1.0
C      1  0.5214930000000  0.5840750000000  0.4523710000000 1.0
C      1  0.4784970000000  0.4187780000000  0.4487110000000 1.0
C      1  0.4164620000000  0.4880090000000  0.5131640000000 1.0
C      1  0.5822940000000  0.5115050000000  0.5143420000000 1.0
C      1  0.4175160000000  0.4888070000000  0.4847960000000 1.0
C      1  0.5820300000000  0.5124820000000  0.4860660000000 1.0
C      1  0.5660500000000  0.4453680000000  0.4845960000000 1.0
C      1  0.4354220000000  0.5554700000000  0.4865200000000 1.0
C      1  0.5683880000000  0.4428210000000  0.5127450000000 1.0
C      1  0.4352290000000  0.5547520000000  0.5147350000000 1.0
C      1  0.5588290000000  0.5611960000000  0.4866830000000 1.0
C      1  0.4410060000000  0.4397310000000  0.4836500000000 1.0
C      1  0.5588050000000  0.5602780000000  0.5156510000000 1.0
C      1  0.4409400000000  0.4388710000000  0.5124050000000 1.0
C      1  0.5193420000000  0.4263640000000  0.4359350000000 1.0
C      1  0.4807980000000  0.5772770000000  0.4382610000000 1.0
C      1  0.5197790000000  0.4235480000000  0.5614520000000 1.0
C      1  0.4803520000000  0.5740260000000  0.5641670000000 1.0
C      1  0.5371120000000  0.5198580000000  0.5690930000000 1.0
C      1  0.4624520000000  0.4769240000000  0.5678290000000 1.0
C      1  0.5376450000000  0.5241160000000  0.4307770000000 1.0
C      1  0.4632080000000  0.4802750000000  0.4301690000000 1.0
C      1  0.4650950000000  0.5033780000000  0.5777310000000 1.0
C      1  0.5346650000000  0.4928290000000  0.5770890000000 1.0
C      1  0.4656370000000  0.5072130000000  0.4213640000000 1.0
C      1  0.5348670000000  0.4971770000000  0.4219390000000 1.0
C      1  0.5853450000000  0.4913150000000  0.4658890000000 1.0
C      1  0.4149130000000  0.5112480000000  0.4655870000000 1.0
C      1  0.5859260000000  0.4887700000000  0.5335070000000 1.0
C      1  0.4142360000000  0.5096440000000  0.5334070000000 1.0
C      1  0.5358910000000  0.5745560000000  0.4749660000000 1.0
C      1  0.4635280000000  0.4263980000000  0.4714310000000 1.0
C      1  0.5356450000000  0.5729740000000  0.5276500000000 1.0
C      1  0.4636640000000  0.4252330000000  0.5242590000000 1.0
C      1  0.5100580000000  0.4762100000000  0.5129810000000 1.0
END
