TITL C-81170-3609-6 -0.193459244367559 125000 -617.578726769252 0 0 90 (C2h) n - 1
REM
REM in /rds/project/t2_vol4/rds-t2-cs072/BORA/CARBON/from-Arr/AIRSS/Generating-Clusters/GAP-ML-2020/Higher-Symm/SD-CG/HFTN-CG
REM
REM
REM
REM
REM
REM ./C.cell (b20cbc046b6831c77cfcea5457e17084)
REM AIRSS Version 0.9.1 bugfix July 2018 build 013d7b7c2542+ Fri, 06 Jul 2018 19:26:36 +0100
REM compiler GCC version 9.3.0
REM options -cpp -mtune=generic -march=x86-64 -g -O0
REM seed -1370826844 -1401423306 -429740445 1654792063 -665239326 596950698 1098760406 -95330824 -697507688 -1573863184 -1049066999 -967709341 29204347 -347928583 649057710 -147802839 1467672345 -1908603546 1080898230 -1104568106 19749273 -646900456 -1965309358 1949681936 -1130184434 382416185 -1317964907 1535260409 2099363379 1472136183 1636454359 1743774108 -691759712
REM
CELL 1.54180   50.00000   50.00000   50.00000   90.00000   90.00000   90.00000
LATT -1
SFAC C  
C      1  0.4239750000000  0.4870940000000  0.4712200000000 1.0
C      1  0.4239330000000  0.5127780000000  0.5287260000000 1.0
C      1  0.5747770000000  0.4872220000000  0.4712740000000 1.0
C      1  0.5747340000000  0.5129060000000  0.5287800000000 1.0
C      1  0.5317220000000  0.4497340000000  0.5565800000000 1.0
C      1  0.5316770000000  0.5503210000000  0.4434430000000 1.0
C      1  0.4670320000000  0.4496790000000  0.5565570000000 1.0
C      1  0.4669870000000  0.5502660000000  0.4434200000000 1.0
C      1  0.5216550000000  0.4794210000000  0.4768370000000 1.0
C      1  0.5216030000000  0.5206160000000  0.5231790000000 1.0
C      1  0.4771060000000  0.4793840000000  0.4768210000000 1.0
C      1  0.4770540000000  0.5205790000000  0.5231630000000 1.0
C      1  0.4845320000000  0.5024000000000  0.4582810000000 1.0
C      1  0.4845060000000  0.4975750000000  0.5417080000000 1.0
C      1  0.5142030000000  0.5024250000000  0.4582920000000 1.0
C      1  0.5141770000000  0.4976000000000  0.5417190000000 1.0
C      1  0.5297610000000  0.4292720000000  0.4855230000000 1.0
C      1  0.5296300000000  0.5707800000000  0.5144990000000 1.0
C      1  0.4690790000000  0.4292200000000  0.4855010000000 1.0
C      1  0.4689490000000  0.5707280000000  0.5144770000000 1.0
C      1  0.4839130000000  0.5535050000000  0.4683810000000 1.0
C      1  0.4839810000000  0.4464690000000  0.5316080000000 1.0
C      1  0.5147280000000  0.5535310000000  0.4683920000000 1.0
C      1  0.5147970000000  0.4464950000000  0.5316190000000 1.0
C      1  0.5129420000000  0.5343570000000  0.5745660000000 1.0
C      1  0.5130550000000  0.4656670000000  0.4254440000000 1.0
C      1  0.4856550000000  0.5343330000000  0.5745560000000 1.0
C      1  0.4857670000000  0.4656430000000  0.4254340000000 1.0
C      1  0.4848900000000  0.5140180000000  0.4116500000000 1.0
C      1  0.4848510000000  0.4859570000000  0.5883400000000 1.0
C      1  0.5138590000000  0.5140430000000  0.4116600000000 1.0
C      1  0.5138190000000  0.4859820000000  0.5883500000000 1.0
C      1  0.4718870000000  0.5251180000000  0.4730420000000 1.0
C      1  0.4719100000000  0.4748350000000  0.5269380000000 1.0
C      1  0.5267990000000  0.5251650000000  0.4730620000000 1.0
C      1  0.5268230000000  0.4748820000000  0.5269580000000 1.0
C      1  0.5563220000000  0.4435420000000  0.4916130000000 1.0
C      1  0.5562200000000  0.5565540000000  0.5084280000000 1.0
C      1  0.4424900000000  0.4434460000000  0.4915720000000 1.0
C      1  0.4423870000000  0.5564580000000  0.5083870000000 1.0
C      1  0.4448700000000  0.4661040000000  0.5405180000000 1.0
C      1  0.4448420000000  0.5338040000000  0.4594420000000 1.0
C      1  0.5538680000000  0.4661960000000  0.5405580000000 1.0
C      1  0.5538390000000  0.5338960000000  0.4594820000000 1.0
C      1  0.5142500000000  0.5409190000000  0.4233360000000 1.0
C      1  0.5142640000000  0.4591070000000  0.5766750000000 1.0
C      1  0.4844450000000  0.5408930000000  0.4233250000000 1.0
C      1  0.4844590000000  0.4590810000000  0.5766640000000 1.0
C      1  0.5622660000000  0.5482850000000  0.4832370000000 1.0
C      1  0.5623360000000  0.4518220000000  0.5168080000000 1.0
C      1  0.4363730000000  0.5481780000000  0.4831920000000 1.0
C      1  0.4364430000000  0.4517150000000  0.5167630000000 1.0
C      1  0.4326910000000  0.4940300000000  0.5464660000000 1.0
C      1  0.4327150000000  0.5058560000000  0.4534860000000 1.0
C      1  0.5659950000000  0.4941440000000  0.5465140000000 1.0
C      1  0.5660180000000  0.5059700000000  0.4535340000000 1.0
C      1  0.5675390000000  0.5404360000000  0.5304600000000 1.0
C      1  0.5676290000000  0.4596800000000  0.4695890000000 1.0
C      1  0.4310800000000  0.5403200000000  0.5304110000000 1.0
C      1  0.4311710000000  0.4595640000000  0.4695400000000 1.0
C      1  0.4641270000000  0.5136380000000  0.4996330000000 1.0
C      1  0.4641500000000  0.4863020000000  0.5003410000000 1.0
C      1  0.5345600000000  0.5136980000000  0.4996590000000 1.0
C      1  0.5345830000000  0.4863620000000  0.5003670000000 1.0
C      1  0.4708490000000  0.4467640000000  0.4405170000000 1.0
C      1  0.4707150000000  0.5531880000000  0.5594630000000 1.0
C      1  0.5279940000000  0.4468120000000  0.4405370000000 1.0
C      1  0.5278610000000  0.5532360000000  0.5594830000000 1.0
C      1  0.4456280000000  0.4598860000000  0.4449900000000 1.0
C      1  0.4455200000000  0.5400220000000  0.5549720000000 1.0
C      1  0.5531900000000  0.4599780000000  0.4450280000000 1.0
C      1  0.5530820000000  0.5401140000000  0.5550100000000 1.0
C      1  0.4850170000000  0.4275950000000  0.5085910000000 1.0
C      1  0.4849000000000  0.5723800000000  0.4913990000000 1.0
C      1  0.5138090000000  0.4276200000000  0.5086010000000 1.0
C      1  0.5136930000000  0.5724050000000  0.4914090000000 1.0
C      1  0.4841680000000  0.5696570000000  0.5399620000000 1.0
C      1  0.4843160000000  0.4303180000000  0.4600270000000 1.0
C      1  0.5143940000000  0.5696820000000  0.5399730000000 1.0
C      1  0.5145410000000  0.4303430000000  0.4600380000000 1.0
C      1  0.5252090000000  0.4928290000000  0.4280390000000 1.0
C      1  0.5251450000000  0.5072150000000  0.5719800000000 1.0
C      1  0.4735650000000  0.4927850000000  0.4280200000000 1.0
C      1  0.4735010000000  0.5071710000000  0.5719610000000 1.0
C      1  0.4461820000000  0.5126100000000  0.5640440000000 1.0
C      1  0.4462490000000  0.4873000000000  0.4359170000000 1.0
C      1  0.5524600000000  0.5127000000000  0.5640830000000 1.0
C      1  0.5525280000000  0.4873900000000  0.4359560000000 1.0
C      1  0.4993890000000  0.4664090000000  0.4833540000000 1.0
C      1  0.4993200000000  0.5335910000000  0.5166460000000 1.0
END
