TITL C-86719-313-6 0.156852348421396 125000 -391.086126982987 0 0 57 (C1) n - 1
REM
REM in /rds/project/t2_vol4/rds-t2-cs072/BORA/CARBON/from-Arr/AIRSS/Generating-Clusters/GAP-ML-2020/Higher-Symm/SD-CG/HFTN-CG
REM
REM
REM
REM
REM
REM ./C.cell (b20cbc046b6831c77cfcea5457e17084)
REM AIRSS Version 0.9.1 bugfix July 2018 build 013d7b7c2542+ Fri, 06 Jul 2018 19:26:36 +0100
REM compiler GCC version 9.3.0
REM options -cpp -mtune=generic -march=x86-64 -g -O0
REM seed 1848511143 -140562997 -862785938 117886039 -1883527499 772050075 1425983338 1513205953 647794601 -345767963 -1349608763 1431479869 483978440 -967135104 968977222 -438362724 192567489 -481146827 1459148520 -1445637678 -759986826 -1561505806 2104351483 1944182226 1417185240 2064719268 30116421 383916587 -1684143804 -658885789 -363438821 336139124 837860221
REM
CELL 1.54180   50.00000   50.00000   50.00000   90.00000   90.00000   90.00000
LATT -1
SFAC C  
C      1  0.5133350000000  0.5844500000000  0.4865150000000 1.0
C      1  0.5177090000000  0.5425010000000  0.5692280000000 1.0
C      1  0.5198290000000  0.4359200000000  0.5523870000000 1.0
C      1  0.5093530000000  0.4267340000000  0.4558410000000 1.0
C      1  0.5216310000000  0.5126000000000  0.4289920000000 1.0
C      1  0.4934890000000  0.4462510000000  0.4967880000000 1.0
C      1  0.4910640000000  0.4839310000000  0.4510860000000 1.0
C      1  0.4980710000000  0.5411560000000  0.4702320000000 1.0
C      1  0.4973870000000  0.5403870000000  0.5282140000000 1.0
C      1  0.5007100000000  0.4804910000000  0.5474610000000 1.0
C      1  0.5151270000000  0.4867660000000  0.5222780000000 1.0
C      1  0.5088770000000  0.4721030000000  0.4952380000000 1.0
C      1  0.4972970000000  0.4931430000000  0.4790910000000 1.0
C      1  0.5057290000000  0.5184850000000  0.4872940000000 1.0
C      1  0.5147840000000  0.5181660000000  0.5154280000000 1.0
C      1  0.4340770000000  0.4772860000000  0.4921720000000 1.0
C      1  0.4354120000000  0.4983340000000  0.4723830000000 1.0
C      1  0.4369410000000  0.5230960000000  0.4870100000000 1.0
C      1  0.4358200000000  0.5177590000000  0.5153750000000 1.0
C      1  0.4311080000000  0.4776000000000  0.5421510000000 1.0
C      1  0.4499560000000  0.4950430000000  0.4483090000000 1.0
C      1  0.4526770000000  0.5442440000000  0.4766510000000 1.0
C      1  0.4538200000000  0.5306690000000  0.5331180000000 1.0
C      1  0.4561930000000  0.4717710000000  0.5499830000000 1.0
C      1  0.4499150000000  0.4537910000000  0.4901030000000 1.0
C      1  0.4974910000000  0.4515600000000  0.5486700000000 1.0
C      1  0.4880990000000  0.4357700000000  0.4705170000000 1.0
C      1  0.4954830000000  0.5039900000000  0.4314360000000 1.0
C      1  0.4933570000000  0.5671160000000  0.4827280000000 1.0
C      1  0.4941990000000  0.5363910000000  0.5563530000000 1.0
C      1  0.5439220000000  0.5248520000000  0.5300260000000 1.0
C      1  0.5446820000000  0.4748110000000  0.5293270000000 1.0
C      1  0.5349030000000  0.4640740000000  0.4782310000000 1.0
C      1  0.5593720000000  0.5084250000000  0.4654070000000 1.0
C      1  0.5558890000000  0.5576370000000  0.4802910000000 1.0
C      1  0.4702710000000  0.4489700000000  0.5385860000000 1.0
C      1  0.4624680000000  0.4485410000000  0.4646350000000 1.0
C      1  0.4690240000000  0.5159320000000  0.4389120000000 1.0
C      1  0.4670490000000  0.5610880000000  0.4951560000000 1.0
C      1  0.4703360000000  0.5193440000000  0.5545550000000 1.0
C      1  0.5379050000000  0.5405910000000  0.5531580000000 1.0
C      1  0.5390430000000  0.4493290000000  0.5413080000000 1.0
C      1  0.5290690000000  0.4423650000000  0.4628510000000 1.0
C      1  0.5439850000000  0.5119330000000  0.4417550000000 1.0
C      1  0.5379030000000  0.5750480000000  0.4833350000000 1.0
C      1  0.5651900000000  0.4801730000000  0.5066820000000 1.0
C      1  0.5565490000000  0.4825280000000  0.4802970000000 1.0
C      1  0.5651940000000  0.5316040000000  0.4835140000000 1.0
C      1  0.5682180000000  0.5260570000000  0.5110510000000 1.0
C      1  0.5581110000000  0.4989950000000  0.5402330000000 1.0
C      1  0.4719520000000  0.5368310000000  0.4566810000000 1.0
C      1  0.4711580000000  0.5485290000000  0.5195030000000 1.0
C      1  0.4757240000000  0.4919510000000  0.5551760000000 1.0
C      1  0.4687060000000  0.4464710000000  0.5108900000000 1.0
C      1  0.4652410000000  0.4710980000000  0.4482020000000 1.0
C      1  0.5789020000000  0.5011920000000  0.5198610000000 1.0
C      1  0.4297160000000  0.4897760000000  0.5179440000000 1.0
END
