TITL C-86696-166-2 -10.5755180985738 125000 -978.901581477429 0 0 137 (C1) n - 1
REM
REM in /rds/project/t2_vol4/rds-t2-cs072/BORA/CARBON/from-Arr/AIRSS/Generating-Clusters/GAP-ML-2020/Higher-Symm/SD-CG/HFTN-CG
REM
REM
REM
REM
REM
REM ./C.cell (b20cbc046b6831c77cfcea5457e17084)
REM AIRSS Version 0.9.1 bugfix July 2018 build 013d7b7c2542+ Fri, 06 Jul 2018 19:26:36 +0100
REM compiler GCC version 9.3.0
REM options -cpp -mtune=generic -march=x86-64 -g -O0
REM seed -1852932619 -892838411 -337826402 -2090636049 993884312 1945238872 1540937080 -1036666196 -1990046642 1838470981 -1237396792 184793850 -476439959 -529095404 -1130697116 295359648 1503519035 766381891 1449837409 -1642245279 -35805992 1536937263 -973507921 1624564047 -665200347 -1364652564 39305937 -422976568 -1113250434 345643816 -1106765862 -1609813470 -479248964
REM
CELL 1.54180   50.00000   50.00000   50.00000   90.00000   90.00000   90.00000
LATT -1
SFAC C  
C      1  0.4836500000000  0.4372320000000  0.4155710000000 1.0
C      1  0.5762750000000  0.4353610000000  0.5263700000000 1.0
C      1  0.4350000000000  0.4364870000000  0.5591120000000 1.0
C      1  0.4839430000000  0.5660290000000  0.4210480000000 1.0
C      1  0.5835520000000  0.5639690000000  0.5272680000000 1.0
C      1  0.4348890000000  0.5645900000000  0.5558580000000 1.0
C      1  0.5282810000000  0.4729880000000  0.4930820000000 1.0
C      1  0.4922510000000  0.4730240000000  0.5281140000000 1.0
C      1  0.4809330000000  0.4732570000000  0.4798990000000 1.0
C      1  0.5285800000000  0.5283930000000  0.4929900000000 1.0
C      1  0.4921650000000  0.5281800000000  0.5269860000000 1.0
C      1  0.4802170000000  0.5279080000000  0.4795520000000 1.0
C      1  0.4839370000000  0.5723510000000  0.5605220000000 1.0
C      1  0.4517600000000  0.5703710000000  0.4544380000000 1.0
C      1  0.5693100000000  0.5704930000000  0.4803800000000 1.0
C      1  0.4826290000000  0.4310810000000  0.5701420000000 1.0
C      1  0.4558050000000  0.4291840000000  0.4559620000000 1.0
C      1  0.5636970000000  0.4301950000000  0.4811410000000 1.0
C      1  0.4242270000000  0.5151970000000  0.5662320000000 1.0
C      1  0.4802580000000  0.5155210000000  0.4025320000000 1.0
C      1  0.5955300000000  0.5134410000000  0.5332860000000 1.0
C      1  0.4242510000000  0.4869970000000  0.5663340000000 1.0
C      1  0.4803150000000  0.4872820000000  0.4018920000000 1.0
C      1  0.5949110000000  0.4852260000000  0.5329880000000 1.0
C      1  0.4022310000000  0.4696150000000  0.5044200000000 1.0
C      1  0.5463260000000  0.4719020000000  0.4113570000000 1.0
C      1  0.5508770000000  0.4702120000000  0.5826510000000 1.0
C      1  0.4001980000000  0.5290970000000  0.5036570000000 1.0
C      1  0.5453650000000  0.5320940000000  0.4142550000000 1.0
C      1  0.5526220000000  0.5308660000000  0.5828110000000 1.0
C      1  0.5289400000000  0.5166470000000  0.5894440000000 1.0
C      1  0.4074040000000  0.5139070000000  0.4803120000000 1.0
C      1  0.5631120000000  0.5154150000000  0.4299700000000 1.0
C      1  0.5285790000000  0.4872800000000  0.5897670000000 1.0
C      1  0.4081890000000  0.4844890000000  0.4807210000000 1.0
C      1  0.5634150000000  0.4861490000000  0.4292760000000 1.0
C      1  0.4320430000000  0.4710180000000  0.4693700000000 1.0
C      1  0.5623460000000  0.4720280000000  0.4552570000000 1.0
C      1  0.5066340000000  0.4741900000000  0.5760520000000 1.0
C      1  0.4306020000000  0.5279930000000  0.4685140000000 1.0
C      1  0.5626600000000  0.5277960000000  0.4562310000000 1.0
C      1  0.5073890000000  0.5306350000000  0.5746180000000 1.0
C      1  0.4494860000000  0.4861330000000  0.5140300000000 1.0
C      1  0.5143370000000  0.4856360000000  0.4493280000000 1.0
C      1  0.5371730000000  0.4865300000000  0.5373390000000 1.0
C      1  0.4490810000000  0.5151550000000  0.5134570000000 1.0
C      1  0.5141760000000  0.5146940000000  0.4494770000000 1.0
C      1  0.5374810000000  0.5154700000000  0.5369710000000 1.0
C      1  0.4145150000000  0.5535760000000  0.5415820000000 1.0
C      1  0.5054360000000  0.5552820000000  0.4090210000000 1.0
C      1  0.5790690000000  0.5533670000000  0.5518450000000 1.0
C      1  0.4160700000000  0.4469910000000  0.5428770000000 1.0
C      1  0.5061320000000  0.4483180000000  0.4050910000000 1.0
C      1  0.5756720000000  0.4461240000000  0.5511480000000 1.0
C      1  0.5355030000000  0.5254950000000  0.4661780000000 1.0
C      1  0.5124110000000  0.5266070000000  0.5463380000000 1.0
C      1  0.4531260000000  0.5256790000000  0.4869940000000 1.0
C      1  0.5353080000000  0.4748080000000  0.4658360000000 1.0
C      1  0.5119630000000  0.4759320000000  0.5474870000000 1.0
C      1  0.4540420000000  0.4750730000000  0.4877610000000 1.0
C      1  0.4119740000000  0.5553190000000  0.5127870000000 1.0
C      1  0.5302010000000  0.5572810000000  0.4227130000000 1.0
C      1  0.5541530000000  0.5562310000000  0.5660920000000 1.0
C      1  0.4161330000000  0.4444610000000  0.5140330000000 1.0
C      1  0.5323520000000  0.4458660000000  0.4171030000000 1.0
C      1  0.5513310000000  0.4445470000000  0.5654270000000 1.0
C      1  0.3946720000000  0.4853200000000  0.5272500000000 1.0
C      1  0.5291270000000  0.4881110000000  0.3951000000000 1.0
C      1  0.5746160000000  0.4851980000000  0.5773300000000 1.0
C      1  0.3940630000000  0.5138740000000  0.5270450000000 1.0
C      1  0.5287450000000  0.5169130000000  0.3964900000000 1.0
C      1  0.5755450000000  0.5142450000000  0.5777390000000 1.0
C      1  0.5030380000000  0.5807490000000  0.4626600000000 1.0
C      1  0.5421160000000  0.5816670000000  0.5232630000000 1.0
C      1  0.4536220000000  0.5827420000000  0.5206350000000 1.0
C      1  0.5052280000000  0.4185220000000  0.4495400000000 1.0
C      1  0.5309920000000  0.4205910000000  0.5215740000000 1.0
C      1  0.4593110000000  0.4195040000000  0.5249640000000 1.0
C      1  0.4883430000000  0.4746630000000  0.4524070000000 1.0
C      1  0.5480000000000  0.4756300000000  0.5132730000000 1.0
C      1  0.4648240000000  0.4757050000000  0.5354290000000 1.0
C      1  0.4878210000000  0.5251400000000  0.4524550000000 1.0
C      1  0.5486700000000  0.5259520000000  0.5131250000000 1.0
C      1  0.4646340000000  0.5265820000000  0.5342850000000 1.0
C      1  0.4788680000000  0.4150940000000  0.5037590000000 1.0
C      1  0.5169680000000  0.4135400000000  0.4757600000000 1.0
C      1  0.5083520000000  0.4145150000000  0.5028300000000 1.0
C      1  0.4705840000000  0.5876230000000  0.4974700000000 1.0
C      1  0.4983850000000  0.5867980000000  0.4916620000000 1.0
C      1  0.5139940000000  0.5862250000000  0.5168080000000 1.0
C      1  0.4061580000000  0.4728650000000  0.5502080000000 1.0
C      1  0.5038730000000  0.4745600000000  0.3937900000000 1.0
C      1  0.5884480000000  0.4715050000000  0.5563510000000 1.0
C      1  0.4055690000000  0.5276540000000  0.5495360000000 1.0
C      1  0.5032680000000  0.5298490000000  0.3956510000000 1.0
C      1  0.5901110000000  0.5272350000000  0.5569830000000 1.0
C      1  0.4407420000000  0.4750350000000  0.4341730000000 1.0
C      1  0.5897920000000  0.4757940000000  0.4823310000000 1.0
C      1  0.4696470000000  0.4792720000000  0.5876310000000 1.0
C      1  0.4398000000000  0.5232900000000  0.4334610000000 1.0
C      1  0.5923570000000  0.5232920000000  0.4833670000000 1.0
C      1  0.4719980000000  0.5269450000000  0.5847110000000 1.0
C      1  0.5776450000000  0.4531150000000  0.4703250000000 1.0
C      1  0.4859700000000  0.4562570000000  0.5840290000000 1.0
C      1  0.4377710000000  0.4509490000000  0.4498490000000 1.0
C      1  0.5799390000000  0.5454230000000  0.4705740000000 1.0
C      1  0.4875750000000  0.5506200000000  0.5792870000000 1.0
C      1  0.4355010000000  0.5474250000000  0.4479960000000 1.0
C      1  0.5428920000000  0.4207570000000  0.4649490000000 1.0
C      1  0.5070180000000  0.4208010000000  0.5637670000000 1.0
C      1  0.4575500000000  0.4222020000000  0.4837530000000 1.0
C      1  0.5514440000000  0.5804290000000  0.4623640000000 1.0
C      1  0.5072820000000  0.5791180000000  0.5452540000000 1.0
C      1  0.4483460000000  0.5801450000000  0.4803810000000 1.0
C      1  0.5309680000000  0.4274270000000  0.4389010000000 1.0
C      1  0.5302170000000  0.4265570000000  0.5511170000000 1.0
C      1  0.4387160000000  0.4281440000000  0.5058120000000 1.0
C      1  0.5289030000000  0.5749210000000  0.4483970000000 1.0
C      1  0.5357870000000  0.5728520000000  0.5506160000000 1.0
C      1  0.4316750000000  0.5736970000000  0.5035070000000 1.0
C      1  0.4544390000000  0.4854040000000  0.5628720000000 1.0
C      1  0.4689710000000  0.4835400000000  0.4300880000000 1.0
C      1  0.5770750000000  0.4835540000000  0.5082180000000 1.0
C      1  0.4545980000000  0.5182970000000  0.5620950000000 1.0
C      1  0.4685300000000  0.5166060000000  0.4305290000000 1.0
C      1  0.5779670000000  0.5162400000000  0.5086010000000 1.0
C      1  0.4792870000000  0.5759700000000  0.4458040000000 1.0
C      1  0.5672070000000  0.5768170000000  0.5095150000000 1.0
C      1  0.4577890000000  0.5777190000000  0.5485020000000 1.0
C      1  0.4791200000000  0.4238410000000  0.4391450000000 1.0
C      1  0.5575490000000  0.4251860000000  0.5095350000000 1.0
C      1  0.4587450000000  0.4243210000000  0.5536240000000 1.0
C      1  0.4720560000000  0.5038370000000  0.6019620000000 1.0
C      1  0.6040440000000  0.4991650000000  0.4737700000000 1.0
C      1  0.4260060000000  0.4988050000000  0.4270900000000 1.0
C      1  0.5004520000000  0.5283850000000  0.4997000000000 1.0
C      1  0.5005730000000  0.4728750000000  0.5005330000000 1.0
END
