TITL C-86706-200-2 0.0712713687632812 125000 -712.139668565987 0 0 104 (C2) n - 1
REM
REM in /rds/project/t2_vol4/rds-t2-cs072/BORA/CARBON/from-Arr/AIRSS/Generating-Clusters/GAP-ML-2020/Higher-Symm/SD-CG/HFTN-CG
REM
REM
REM
REM
REM
REM ./C.cell (b20cbc046b6831c77cfcea5457e17084)
REM AIRSS Version 0.9.1 bugfix July 2018 build 013d7b7c2542+ Fri, 06 Jul 2018 19:26:36 +0100
REM compiler GCC version 9.3.0
REM options -cpp -mtune=generic -march=x86-64 -g -O0
REM seed -797103497 1468146598 1549764501 -1695737364 -685072371 1655965060 -1563574289 1941860017 2058841889 153693453 1932937850 616961715 26999481 -1005328068 -350759805 -1869940337 -1443060113 21420032 1602458124 -2108237943 612013202 1338319145 650295545 1249496189 995070572 1317475901 1713989544 572559790 -105092646 234655506 -875410373 244515499 -345531489
REM
CELL 1.54180   50.00000   50.00000   50.00000   90.00000   90.00000   90.00000
LATT -1
SFAC C  
C      1  0.4999470000000  0.4188310000000  0.4843170000000 1.0
C      1  0.5009590000000  0.4186380000000  0.5146180000000 1.0
C      1  0.5570130000000  0.5054140000000  0.5653780000000 1.0
C      1  0.4429250000000  0.5056340000000  0.4346940000000 1.0
C      1  0.5564860000000  0.5329760000000  0.4467780000000 1.0
C      1  0.4431540000000  0.5316440000000  0.5536450000000 1.0
C      1  0.5595550000000  0.5635900000000  0.5112660000000 1.0
C      1  0.4397390000000  0.5630640000000  0.4895630000000 1.0
C      1  0.4536670000000  0.4336220000000  0.5196870000000 1.0
C      1  0.5470690000000  0.4344060000000  0.4794480000000 1.0
C      1  0.5275960000000  0.4978550000000  0.4280970000000 1.0
C      1  0.4724340000000  0.4966060000000  0.5718660000000 1.0
C      1  0.4533400000000  0.4796020000000  0.4314820000000 1.0
C      1  0.5468900000000  0.4792270000000  0.5682480000000 1.0
C      1  0.4430740000000  0.4864620000000  0.5714470000000 1.0
C      1  0.5570680000000  0.4880340000000  0.4283860000000 1.0
C      1  0.5091380000000  0.4476140000000  0.5674070000000 1.0
C      1  0.4914410000000  0.4484030000000  0.4319120000000 1.0
C      1  0.4744710000000  0.4268460000000  0.4734730000000 1.0
C      1  0.5263450000000  0.4267940000000  0.5255690000000 1.0
C      1  0.4740380000000  0.4801030000000  0.5212810000000 1.0
C      1  0.5261810000000  0.4806740000000  0.4784620000000 1.0
C      1  0.5309040000000  0.4380410000000  0.5513060000000 1.0
C      1  0.4697850000000  0.4383770000000  0.4478850000000 1.0
C      1  0.5469530000000  0.5010630000000  0.4894950000000 1.0
C      1  0.4530390000000  0.5004020000000  0.5105150000000 1.0
C      1  0.4389330000000  0.5501590000000  0.5318880000000 1.0
C      1  0.5605020000000  0.5512500000000  0.4687760000000 1.0
C      1  0.5372510000000  0.5674020000000  0.4715490000000 1.0
C      1  0.4620020000000  0.5666040000000  0.5293290000000 1.0
C      1  0.4724350000000  0.5832800000000  0.4726850000000 1.0
C      1  0.5266370000000  0.5832170000000  0.5284050000000 1.0
C      1  0.5867540000000  0.4623640000000  0.4828500000000 1.0
C      1  0.4136730000000  0.4611780000000  0.5166500000000 1.0
C      1  0.4488600000000  0.5675870000000  0.4630560000000 1.0
C      1  0.5503860000000  0.5676630000000  0.5378300000000 1.0
C      1  0.5222170000000  0.4270420000000  0.4670470000000 1.0
C      1  0.4786000000000  0.4263740000000  0.5319930000000 1.0
C      1  0.5250660000000  0.5220600000000  0.4881190000000 1.0
C      1  0.4746900000000  0.5216220000000  0.5121670000000 1.0
C      1  0.4600630000000  0.4433820000000  0.4924580000000 1.0
C      1  0.5405670000000  0.4437370000000  0.5068030000000 1.0
C      1  0.5292500000000  0.4713660000000  0.4492260000000 1.0
C      1  0.4710750000000  0.4703790000000  0.5503920000000 1.0
C      1  0.4153350000000  0.4683780000000  0.4886650000000 1.0
C      1  0.5850130000000  0.4691780000000  0.5109260000000 1.0
C      1  0.4368700000000  0.5159570000000  0.4632780000000 1.0
C      1  0.5629510000000  0.5161770000000  0.5369320000000 1.0
C      1  0.5168330000000  0.5325820000000  0.5349370000000 1.0
C      1  0.4828030000000  0.5328470000000  0.4654920000000 1.0
C      1  0.4048120000000  0.4887330000000  0.5204310000000 1.0
C      1  0.5953060000000  0.4900630000000  0.4794300000000 1.0
C      1  0.4842800000000  0.4443460000000  0.5546130000000 1.0
C      1  0.5163350000000  0.4452450000000  0.4446640000000 1.0
C      1  0.5837580000000  0.5213440000000  0.5160530000000 1.0
C      1  0.4160080000000  0.5206170000000  0.4842220000000 1.0
C      1  0.4847170000000  0.5668320000000  0.5473370000000 1.0
C      1  0.5145340000000  0.5676120000000  0.4535430000000 1.0
C      1  0.5735890000000  0.5039310000000  0.4696070000000 1.0
C      1  0.4263740000000  0.5027120000000  0.5304370000000 1.0
C      1  0.5150710000000  0.4612820000000  0.4965200000000 1.0
C      1  0.4853620000000  0.4610740000000  0.5029720000000 1.0
C      1  0.5036530000000  0.5861590000000  0.5410980000000 1.0
C      1  0.4953840000000  0.5866440000000  0.4600340000000 1.0
C      1  0.5572330000000  0.4638200000000  0.4435070000000 1.0
C      1  0.4431780000000  0.4624480000000  0.5560100000000 1.0
C      1  0.4052360000000  0.4958800000000  0.4925670000000 1.0
C      1  0.5948050000000  0.4968400000000  0.5073850000000 1.0
C      1  0.4529800000000  0.4955550000000  0.4808630000000 1.0
C      1  0.5470680000000  0.4958290000000  0.5190800000000 1.0
C      1  0.5003260000000  0.4985780000000  0.4163120000000 1.0
C      1  0.4996960000000  0.4974790000000  0.5836620000000 1.0
C      1  0.4557680000000  0.5403600000000  0.4543490000000 1.0
C      1  0.5437830000000  0.5402500000000  0.5461790000000 1.0
C      1  0.5317650000000  0.5683270000000  0.5012420000000 1.0
C      1  0.4674750000000  0.5679790000000  0.4996500000000 1.0
C      1  0.4697020000000  0.5240870000000  0.5617890000000 1.0
C      1  0.5300230000000  0.5252300000000  0.4385340000000 1.0
C      1  0.5217720000000  0.4836720000000  0.5536430000000 1.0
C      1  0.4784080000000  0.4841350000000  0.4461460000000 1.0
C      1  0.5045950000000  0.5002650000000  0.4848670000000 1.0
C      1  0.4954030000000  0.5000160000000  0.5151350000000 1.0
C      1  0.5117980000000  0.5236240000000  0.5793780000000 1.0
C      1  0.4879330000000  0.5245280000000  0.4209380000000 1.0
C      1  0.5049730000000  0.5398070000000  0.4427110000000 1.0
C      1  0.4945880000000  0.5389960000000  0.5578050000000 1.0
C      1  0.4850110000000  0.5433790000000  0.4947700000000 1.0
C      1  0.5145040000000  0.5434710000000  0.5057980000000 1.0
C      1  0.4804570000000  0.5029310000000  0.4685330000000 1.0
C      1  0.5195120000000  0.5027360000000  0.5315040000000 1.0
C      1  0.4329810000000  0.4483220000000  0.5336940000000 1.0
C      1  0.5675880000000  0.4495180000000  0.4656370000000 1.0
C      1  0.4422910000000  0.4645550000000  0.4771200000000 1.0
C      1  0.5581020000000  0.4649040000000  0.5224180000000 1.0
C      1  0.4603360000000  0.5265550000000  0.4276940000000 1.0
C      1  0.5393710000000  0.5260460000000  0.5726500000000 1.0
C      1  0.4257660000000  0.5437590000000  0.5033570000000 1.0
C      1  0.5737410000000  0.5446240000000  0.4972220000000 1.0
C      1  0.4294780000000  0.5070450000000  0.5575980000000 1.0
C      1  0.5704350000000  0.5085840000000  0.4425050000000 1.0
C      1  0.4844600000000  0.4744240000000  0.4195760000000 1.0
C      1  0.5158300000000  0.4735470000000  0.5800830000000 1.0
C      1  0.5515150000000  0.4577500000000  0.5502970000000 1.0
C      1  0.4489560000000  0.4578410000000  0.4491500000000 1.0
END
