TITL C-86714-231-2 155.788442436902 125000 -485.068499267631 0 0 74 (Ci) n - 1
REM
REM in /rds/project/t2_vol4/rds-t2-cs072/BORA/CARBON/from-Arr/AIRSS/Generating-Clusters/GAP-ML-2020/Higher-Symm/SD-CG/HFTN-CG
REM
REM
REM
REM
REM
REM ./C.cell (b20cbc046b6831c77cfcea5457e17084)
REM AIRSS Version 0.9.1 bugfix July 2018 build 013d7b7c2542+ Fri, 06 Jul 2018 19:26:36 +0100
REM compiler GCC version 9.3.0
REM options -cpp -mtune=generic -march=x86-64 -g -O0
REM seed 128691665 -1966601016 1506438809 -898543757 -1567256773 -1676431924 163665182 1461851467 -1682061191 1190079426 -1586873010 -760383830 1629444705 -1427896756 1234813589 940851866 1345710148 809271909 1691834010 -1706524846 -1674476393 -1019665320 49476733 1396874264 -1840653615 -1831218567 -2088765627 -61513373 398459467 -524017088 2028264662 -777415277 999738135
REM
CELL 1.54180   50.00000   50.00000   50.00000   90.00000   90.00000   90.00000
LATT -1
SFAC C  
C      1  0.5524660000000  0.5475510000000  0.4680590000000 1.0
C      1  0.5618050000000  0.4525850000000  0.5044090000000 1.0
C      1  0.5455100000000  0.5436560000000  0.5419950000000 1.0
C      1  0.5124580000000  0.4526020000000  0.5580260000000 1.0
C      1  0.4750370000000  0.5460170000000  0.5528000000000 1.0
C      1  0.4473270000000  0.4524490000000  0.5318970000000 1.0
C      1  0.4379880000000  0.5474150000000  0.4955480000000 1.0
C      1  0.4542830000000  0.4563440000000  0.4579620000000 1.0
C      1  0.4873350000000  0.5473980000000  0.4419300000000 1.0
C      1  0.5247560000000  0.4539830000000  0.4471560000000 1.0
C      1  0.4612750000000  0.4407260000000  0.5518520000000 1.0
C      1  0.4369010000000  0.5586270000000  0.5200750000000 1.0
C      1  0.4585320000000  0.4436040000000  0.4826450000000 1.0
C      1  0.4654540000000  0.5598220000000  0.4518210000000 1.0
C      1  0.4981870000000  0.4446020000000  0.4534020000000 1.0
C      1  0.5385170000000  0.5592740000000  0.4481050000000 1.0
C      1  0.5628910000000  0.4413730000000  0.4798810000000 1.0
C      1  0.5412600000000  0.5563960000000  0.5173110000000 1.0
C      1  0.5343390000000  0.4401790000000  0.5481350000000 1.0
C      1  0.5016050000000  0.5553980000000  0.5465540000000 1.0
C      1  0.4485980000000  0.5444720000000  0.5416130000000 1.0
C      1  0.4416590000000  0.4544080000000  0.5029670000000 1.0
C      1  0.4454640000000  0.5471350000000  0.4660950000000 1.0
C      1  0.4764740000000  0.4574560000000  0.4392940000000 1.0
C      1  0.5165030000000  0.5467070000000  0.4364340000000 1.0
C      1  0.5511940000000  0.4555280000000  0.4583440000000 1.0
C      1  0.5581330000000  0.5455920000000  0.4969890000000 1.0
C      1  0.5543290000000  0.4528650000000  0.5338620000000 1.0
C      1  0.5233180000000  0.5425440000000  0.5606620000000 1.0
C      1  0.4832900000000  0.4532930000000  0.5635230000000 1.0
C      1  0.4333480000000  0.5002370000000  0.4780540000000 1.0
C      1  0.4585760000000  0.5036460000000  0.4437870000000 1.0
C      1  0.5005120000000  0.4995750000000  0.4304620000000 1.0
C      1  0.5410260000000  0.5026500000000  0.4429050000000 1.0
C      1  0.5641510000000  0.4993710000000  0.4787870000000 1.0
C      1  0.5664450000000  0.4997630000000  0.5219030000000 1.0
C      1  0.5412170000000  0.4963540000000  0.5561700000000 1.0
C      1  0.4992810000000  0.5004250000000  0.5694940000000 1.0
C      1  0.4587670000000  0.4973500000000  0.5570510000000 1.0
C      1  0.4356420000000  0.5006290000000  0.5211690000000 1.0
C      1  0.4381810000000  0.5159500000000  0.5461020000000 1.0
C      1  0.4278600000000  0.4809440000000  0.4994370000000 1.0
C      1  0.4372800000000  0.5197600000000  0.4553420000000 1.0
C      1  0.4758060000000  0.4845270000000  0.4273610000000 1.0
C      1  0.5226450000000  0.5181840000000  0.4257590000000 1.0
C      1  0.5616120000000  0.4840490000000  0.4538540000000 1.0
C      1  0.5719330000000  0.5190560000000  0.5005190000000 1.0
C      1  0.5625130000000  0.4802400000000  0.5446150000000 1.0
C      1  0.5239870000000  0.5154730000000  0.5725950000000 1.0
C      1  0.4771470000000  0.4818160000000  0.5741970000000 1.0
C      1  0.5540530000000  0.4810630000000  0.5011090000000 1.0
C      1  0.5452550000000  0.5159290000000  0.5337170000000 1.0
C      1  0.5150680000000  0.4816670000000  0.5515770000000 1.0
C      1  0.4804540000000  0.5171660000000  0.5515810000000 1.0
C      1  0.4558780000000  0.4810210000000  0.5317750000000 1.0
C      1  0.4457400000000  0.5189370000000  0.4988480000000 1.0
C      1  0.4545370000000  0.4840710000000  0.4662390000000 1.0
C      1  0.4847250000000  0.5183330000000  0.4483800000000 1.0
C      1  0.5193390000000  0.4828330000000  0.4483750000000 1.0
C      1  0.5439150000000  0.5189780000000  0.4681810000000 1.0
C      1  0.4885250000000  0.5123730000000  0.5230840000000 1.0
C      1  0.4805310000000  0.4832920000000  0.5149900000000 1.0
C      1  0.4753410000000  0.5172520000000  0.4974690000000 1.0
C      1  0.4773560000000  0.4884280000000  0.4859860000000 1.0
C      1  0.4927010000000  0.5115110000000  0.4752050000000 1.0
C      1  0.5112690000000  0.4876270000000  0.4768720000000 1.0
C      1  0.5192620000000  0.5167080000000  0.4849660000000 1.0
C      1  0.5244520000000  0.4827480000000  0.5024880000000 1.0
C      1  0.5224360000000  0.5115720000000  0.5139710000000 1.0
C      1  0.5070920000000  0.4884880000000  0.5247510000000 1.0
C      1  0.4879080000000  0.4429580000000  0.4808870000000 1.0
C      1  0.5118840000000  0.5570420000000  0.5190690000000 1.0
C      1  0.4968220000000  0.4675960000000  0.4937140000000 1.0
C      1  0.5029700000000  0.5324040000000  0.5062410000000 1.0
END
