TITL C-86723-233-2 40.1236884164685 125000 -565.115786080457 0 0 81 (C1) n - 1
REM
REM in /rds/project/t2_vol4/rds-t2-cs072/BORA/CARBON/from-Arr/AIRSS/Generating-Clusters/GAP-ML-2020/Higher-Symm/SD-CG/HFTN-CG
REM
REM
REM
REM
REM
REM ./C.cell (b20cbc046b6831c77cfcea5457e17084)
REM AIRSS Version 0.9.1 bugfix July 2018 build 013d7b7c2542+ Fri, 06 Jul 2018 19:26:36 +0100
REM compiler GCC version 9.3.0
REM options -cpp -mtune=generic -march=x86-64 -g -O0
REM seed -58000142 -130146447 -952254563 -648888515 -117654824 924517182 682739081 259405887 1076998061 80168947 -909785270 -671225382 486385831 2100378426 -136878365 -1094462123 222646330 1368534282 1401264281 -1856867696 690578077 1689702808 444737404 427603839 1915995848 287527952 -983439716 1701011037 1496141749 1617763915 -108588558 -560543044 698472704
REM
CELL 1.54180   50.00000   50.00000   50.00000   90.00000   90.00000   90.00000
LATT -1
SFAC C  
C      1  0.4590790000000  0.4752580000000  0.5502360000000 1.0
C      1  0.4655650000000  0.5309650000000  0.5529340000000 1.0
C      1  0.5178000000000  0.5477900000000  0.5563330000000 1.0
C      1  0.5563540000000  0.4913700000000  0.5524050000000 1.0
C      1  0.5088270000000  0.4450540000000  0.5535740000000 1.0
C      1  0.5593480000000  0.4656650000000  0.4616000000000 1.0
C      1  0.4876070000000  0.4307370000000  0.4576040000000 1.0
C      1  0.4336410000000  0.4943440000000  0.4609640000000 1.0
C      1  0.4738580000000  0.5650260000000  0.4542540000000 1.0
C      1  0.5514110000000  0.5473520000000  0.4684550000000 1.0
C      1  0.5090420000000  0.4622660000000  0.5094310000000 1.0
C      1  0.4949010000000  0.4858360000000  0.5072760000000 1.0
C      1  0.4638810000000  0.5342560000000  0.5087070000000 1.0
C      1  0.4944010000000  0.5335610000000  0.5102060000000 1.0
C      1  0.5380810000000  0.5106190000000  0.5139010000000 1.0
C      1  0.4847810000000  0.4340020000000  0.5416710000000 1.0
C      1  0.4462190000000  0.5202910000000  0.5311290000000 1.0
C      1  0.4705740000000  0.5581550000000  0.5457290000000 1.0
C      1  0.5536500000000  0.5310390000000  0.5323130000000 1.0
C      1  0.5565950000000  0.4446710000000  0.5322060000000 1.0
C      1  0.5078400000000  0.4136620000000  0.5013820000000 1.0
C      1  0.4369340000000  0.4704400000000  0.5080480000000 1.0
C      1  0.4394430000000  0.5685780000000  0.4978340000000 1.0
C      1  0.5312540000000  0.5703370000000  0.5152740000000 1.0
C      1  0.5796310000000  0.4814530000000  0.5115190000000 1.0
C      1  0.4787030000000  0.5141040000000  0.4676060000000 1.0
C      1  0.5059590000000  0.5267220000000  0.4666100000000 1.0
C      1  0.5264720000000  0.5047610000000  0.4680500000000 1.0
C      1  0.5107490000000  0.4789780000000  0.4668100000000 1.0
C      1  0.4855440000000  0.4879600000000  0.4796520000000 1.0
C      1  0.5335260000000  0.5597190000000  0.4879290000000 1.0
C      1  0.5651280000000  0.4800780000000  0.4858140000000 1.0
C      1  0.5086490000000  0.4273460000000  0.4755920000000 1.0
C      1  0.4340600000000  0.4713740000000  0.4779560000000 1.0
C      1  0.4529130000000  0.5593030000000  0.4719580000000 1.0
C      1  0.4547170000000  0.4933910000000  0.4389280000000 1.0
C      1  0.4841810000000  0.5436100000000  0.4349370000000 1.0
C      1  0.5401410000000  0.5356940000000  0.4416400000000 1.0
C      1  0.5423080000000  0.4774040000000  0.4397740000000 1.0
C      1  0.4893310000000  0.4525560000000  0.4375330000000 1.0
C      1  0.5486080000000  0.4501750000000  0.4830320000000 1.0
C      1  0.4631670000000  0.4317200000000  0.4724780000000 1.0
C      1  0.4280800000000  0.5193850000000  0.4733710000000 1.0
C      1  0.4885690000000  0.5713150000000  0.4780420000000 1.0
C      1  0.5700020000000  0.5292550000000  0.4818440000000 1.0
C      1  0.4845980000000  0.4200600000000  0.5159790000000 1.0
C      1  0.4435230000000  0.4896010000000  0.5303070000000 1.0
C      1  0.4614590000000  0.5652680000000  0.5167860000000 1.0
C      1  0.5392150000000  0.5537690000000  0.5382650000000 1.0
C      1  0.5664750000000  0.4703970000000  0.5353070000000 1.0
C      1  0.5870160000000  0.5078750000000  0.5178060000000 1.0
C      1  0.5304400000000  0.4188400000000  0.5158610000000 1.0
C      1  0.4473050000000  0.4458600000000  0.5168790000000 1.0
C      1  0.4185940000000  0.5491260000000  0.5040580000000 1.0
C      1  0.5054830000000  0.5794650000000  0.5229920000000 1.0
C      1  0.4484560000000  0.4528830000000  0.4615240000000 1.0
C      1  0.4555280000000  0.5304300000000  0.4801760000000 1.0
C      1  0.5061680000000  0.5489500000000  0.4852750000000 1.0
C      1  0.5496980000000  0.5056490000000  0.4877870000000 1.0
C      1  0.5194780000000  0.4546350000000  0.4830120000000 1.0
C      1  0.5135090000000  0.4686190000000  0.4396220000000 1.0
C      1  0.4639050000000  0.4662180000000  0.4398680000000 1.0
C      1  0.4726100000000  0.5153920000000  0.4386300000000 1.0
C      1  0.5118720000000  0.5405160000000  0.4395640000000 1.0
C      1  0.5408050000000  0.5061150000000  0.4415560000000 1.0
C      1  0.5078170000000  0.4729240000000  0.5633470000000 1.0
C      1  0.4819870000000  0.4858360000000  0.5639210000000 1.0
C      1  0.4847890000000  0.5141940000000  0.5650860000000 1.0
C      1  0.5131030000000  0.5203070000000  0.5647790000000 1.0
C      1  0.5282340000000  0.4945710000000  0.5625630000000 1.0
C      1  0.4620780000000  0.4279650000000  0.5007830000000 1.0
C      1  0.4075340000000  0.5344920000000  0.4835830000000 1.0
C      1  0.4839160000000  0.5804830000000  0.5052230000000 1.0
C      1  0.5924310000000  0.5261730000000  0.4971170000000 1.0
C      1  0.5537900000000  0.4325100000000  0.5054020000000 1.0
C      1  0.4971290000000  0.5663590000000  0.5481670000000 1.0
C      1  0.5731240000000  0.5144330000000  0.5428770000000 1.0
C      1  0.5315530000000  0.4326920000000  0.5410970000000 1.0
C      1  0.4609120000000  0.4486400000000  0.5419520000000 1.0
C      1  0.4218230000000  0.5370590000000  0.5282560000000 1.0
C      1  0.5089260000000  0.5098720000000  0.5142090000000 1.0
END
