TITL C-86697-241-5 -0.0625131133899806 125000 -1024.61860084318 0 0 147 (C1) n - 1
REM
REM in /rds/project/t2_vol4/rds-t2-cs072/BORA/CARBON/from-Arr/AIRSS/Generating-Clusters/GAP-ML-2020/Higher-Symm/SD-CG/HFTN-CG
REM
REM
REM
REM
REM
REM ./C.cell (b20cbc046b6831c77cfcea5457e17084)
REM AIRSS Version 0.9.1 bugfix July 2018 build 013d7b7c2542+ Fri, 06 Jul 2018 19:26:36 +0100
REM compiler GCC version 9.3.0
REM options -cpp -mtune=generic -march=x86-64 -g -O0
REM seed -1681817673 1402876665 1440855302 435180496 -1355772538 403341172 1066194754 894626052 -1171280068 1231823462 4051873 -1297203927 2105353835 -963080368 -1048202489 1821061791 519664644 -1236955687 1098735484 130396100 982526661 1652534743 -631555243 -867670282 1751019126 -517914311 -645618391 747700666 -856534858 -351148442 -2142228310 -756782171 -889081824
REM
CELL 1.54180   50.00000   50.00000   50.00000   90.00000   90.00000   90.00000
LATT -1
SFAC C  
C      1  0.4395210000000  0.4942420000000  0.4854020000000 1.0
C      1  0.5610700000000  0.4936080000000  0.5156080000000 1.0
C      1  0.5621930000000  0.4926350000000  0.4837160000000 1.0
C      1  0.4383200000000  0.4928680000000  0.5170690000000 1.0
C      1  0.5155650000000  0.6132440000000  0.5129870000000 1.0
C      1  0.4852080000000  0.6125500000000  0.4854580000000 1.0
C      1  0.4847400000000  0.6129520000000  0.5132720000000 1.0
C      1  0.5162690000000  0.6129650000000  0.4851290000000 1.0
C      1  0.5550170000000  0.4620320000000  0.5802100000000 1.0
C      1  0.4454720000000  0.4626290000000  0.4201690000000 1.0
C      1  0.4435570000000  0.4599630000000  0.5796890000000 1.0
C      1  0.5562440000000  0.4612320000000  0.4204760000000 1.0
C      1  0.5548120000000  0.5801980000000  0.4844610000000 1.0
C      1  0.4474020000000  0.5786130000000  0.5149700000000 1.0
C      1  0.4470440000000  0.5793160000000  0.4866300000000 1.0
C      1  0.5542170000000  0.5802650000000  0.5128880000000 1.0
C      1  0.4679900000000  0.5043610000000  0.4769240000000 1.0
C      1  0.5324450000000  0.5032260000000  0.5248450000000 1.0
C      1  0.5347170000000  0.5011290000000  0.4725690000000 1.0
C      1  0.4659590000000  0.5007550000000  0.5289330000000 1.0
C      1  0.4748570000000  0.4667130000000  0.4497620000000 1.0
C      1  0.5258190000000  0.4645850000000  0.5506420000000 1.0
C      1  0.5267990000000  0.4634860000000  0.4456290000000 1.0
C      1  0.4733300000000  0.4621420000000  0.5549520000000 1.0
C      1  0.5170850000000  0.4271900000000  0.5842360000000 1.0
C      1  0.4834330000000  0.4282120000000  0.4159450000000 1.0
C      1  0.4879000000000  0.4266440000000  0.5831550000000 1.0
C      1  0.5125950000000  0.4280130000000  0.4170580000000 1.0
C      1  0.5950130000000  0.4616380000000  0.5253230000000 1.0
C      1  0.4058230000000  0.4619650000000  0.4745490000000 1.0
C      1  0.4042900000000  0.4601860000000  0.5236090000000 1.0
C      1  0.5963790000000  0.4603680000000  0.4761500000000 1.0
C      1  0.4841290000000  0.4806810000000  0.5162020000000 1.0
C      1  0.5162680000000  0.4810660000000  0.4847700000000 1.0
C      1  0.5149960000000  0.4813740000000  0.5134540000000 1.0
C      1  0.4853480000000  0.4818240000000  0.4875110000000 1.0
C      1  0.5325670000000  0.4493620000000  0.5948210000000 1.0
C      1  0.4679450000000  0.4502320000000  0.4054910000000 1.0
C      1  0.4730850000000  0.4514050000000  0.5856840000000 1.0
C      1  0.5271090000000  0.4529450000000  0.4145260000000 1.0
C      1  0.4442080000000  0.5592570000000  0.5557900000000 1.0
C      1  0.5566400000000  0.5593860000000  0.4438250000000 1.0
C      1  0.5543190000000  0.5599260000000  0.5535600000000 1.0
C      1  0.4463840000000  0.5589160000000  0.4459570000000 1.0
C      1  0.4155220000000  0.5220750000000  0.5487810000000 1.0
C      1  0.5846100000000  0.5222890000000  0.4513590000000 1.0
C      1  0.5825400000000  0.5225350000000  0.5484420000000 1.0
C      1  0.4177740000000  0.5224440000000  0.4515920000000 1.0
C      1  0.5788440000000  0.5496790000000  0.4589010000000 1.0
C      1  0.4220350000000  0.5494900000000  0.5409190000000 1.0
C      1  0.4237260000000  0.5493290000000  0.4601260000000 1.0
C      1  0.5770240000000  0.5498090000000  0.5399570000000 1.0
C      1  0.4862840000000  0.4093630000000  0.5314580000000 1.0
C      1  0.5143150000000  0.4097750000000  0.4683520000000 1.0
C      1  0.5159710000000  0.4095590000000  0.5313460000000 1.0
C      1  0.4846740000000  0.4099400000000  0.4685300000000 1.0
C      1  0.5783100000000  0.5627500000000  0.4846400000000 1.0
C      1  0.4231420000000  0.5623830000000  0.5151730000000 1.0
C      1  0.4234030000000  0.5624050000000  0.4857700000000 1.0
C      1  0.5774260000000  0.5627410000000  0.5140500000000 1.0
C      1  0.4425770000000  0.4341770000000  0.4705060000000 1.0
C      1  0.5582170000000  0.4336560000000  0.5293220000000 1.0
C      1  0.5587830000000  0.4326430000000  0.4710230000000 1.0
C      1  0.4415560000000  0.4321930000000  0.5286920000000 1.0
C      1  0.4856790000000  0.5099170000000  0.4241450000000 1.0
C      1  0.5142110000000  0.5082910000000  0.5775120000000 1.0
C      1  0.5152220000000  0.5093150000000  0.4228460000000 1.0
C      1  0.4843270000000  0.5075910000000  0.5800170000000 1.0
C      1  0.5291930000000  0.4945740000000  0.4011910000000 1.0
C      1  0.4699740000000  0.4925810000000  0.6004680000000 1.0
C      1  0.4707680000000  0.4949870000000  0.4028170000000 1.0
C      1  0.5296540000000  0.4943220000000  0.5985270000000 1.0
C      1  0.5251730000000  0.4938320000000  0.5518960000000 1.0
C      1  0.4748870000000  0.4964840000000  0.4493900000000 1.0
C      1  0.4687760000000  0.4915690000000  0.5576890000000 1.0
C      1  0.5312180000000  0.4932300000000  0.4436550000000 1.0
C      1  0.5349030000000  0.5728700000000  0.4619200000000 1.0
C      1  0.4663040000000  0.5732520000000  0.5377690000000 1.0
C      1  0.4667740000000  0.5726480000000  0.4645580000000 1.0
C      1  0.5343930000000  0.5739970000000  0.5347260000000 1.0
C      1  0.4178090000000  0.4378140000000  0.4847810000000 1.0
C      1  0.5828680000000  0.4376380000000  0.5148760000000 1.0
C      1  0.5832450000000  0.4369060000000  0.4865830000000 1.0
C      1  0.4172610000000  0.4367360000000  0.5130240000000 1.0
C      1  0.5156310000000  0.4542980000000  0.4716940000000 1.0
C      1  0.4847300000000  0.4535750000000  0.5286630000000 1.0
C      1  0.4856340000000  0.4552770000000  0.4737120000000 1.0
C      1  0.5148150000000  0.4542800000000  0.5264000000000 1.0
C      1  0.4443180000000  0.4519130000000  0.5507690000000 1.0
C      1  0.5558540000000  0.4527210000000  0.4492280000000 1.0
C      1  0.5539480000000  0.4544750000000  0.5510790000000 1.0
C      1  0.4469370000000  0.4555620000000  0.4491650000000 1.0
C      1  0.5319980000000  0.4287140000000  0.4837960000000 1.0
C      1  0.4684490000000  0.4284450000000  0.5160820000000 1.0
C      1  0.4685890000000  0.4293430000000  0.4845200000000 1.0
C      1  0.5320340000000  0.4290040000000  0.5153500000000 1.0
C      1  0.5559390000000  0.4913500000000  0.5858200000000 1.0
C      1  0.4443120000000  0.4916430000000  0.4144270000000 1.0
C      1  0.4459680000000  0.4895900000000  0.5810770000000 1.0
C      1  0.5537220000000  0.4909150000000  0.4194690000000 1.0
C      1  0.5133870000000  0.4116600000000  0.4405590000000 1.0
C      1  0.4873290000000  0.4106700000000  0.5593110000000 1.0
C      1  0.4826710000000  0.4120800000000  0.4403570000000 1.0
C      1  0.5179230000000  0.4113630000000  0.5595520000000 1.0
C      1  0.5694430000000  0.4707510000000  0.5333540000000 1.0
C      1  0.4314270000000  0.4714920000000  0.4670880000000 1.0
C      1  0.4293900000000  0.4689940000000  0.5332360000000 1.0
C      1  0.5711130000000  0.4692510000000  0.4669140000000 1.0
C      1  0.4846610000000  0.4712530000000  0.3950330000000 1.0
C      1  0.5156820000000  0.4701730000000  0.6055270000000 1.0
C      1  0.5138420000000  0.4712500000000  0.3969510000000 1.0
C      1  0.4861790000000  0.4696990000000  0.6035460000000 1.0
C      1  0.4490800000000  0.5392080000000  0.5753430000000 1.0
C      1  0.5508950000000  0.5402080000000  0.4236320000000 1.0
C      1  0.5470330000000  0.5401810000000  0.5725110000000 1.0
C      1  0.4517580000000  0.5406750000000  0.4250120000000 1.0
C      1  0.5198760000000  0.5363380000000  0.5750530000000 1.0
C      1  0.4783370000000  0.5375590000000  0.4165130000000 1.0
C      1  0.4755830000000  0.5351550000000  0.5809850000000 1.0
C      1  0.5244440000000  0.5361330000000  0.4145740000000 1.0
C      1  0.4354680000000  0.5163610000000  0.4283500000000 1.0
C      1  0.5642150000000  0.5161090000000  0.5711200000000 1.0
C      1  0.5669990000000  0.5163780000000  0.4280150000000 1.0
C      1  0.4325540000000  0.5154620000000  0.5720850000000 1.0
C      1  0.5275020000000  0.5269510000000  0.4833790000000 1.0
C      1  0.4746550000000  0.5268720000000  0.5195320000000 1.0
C      1  0.4751020000000  0.5288850000000  0.4914540000000 1.0
C      1  0.5260220000000  0.5284840000000  0.5114190000000 1.0
C      1  0.4853330000000  0.5958710000000  0.5362710000000 1.0
C      1  0.5156100000000  0.5953760000000  0.4622680000000 1.0
C      1  0.5152950000000  0.5965830000000  0.5359150000000 1.0
C      1  0.4857170000000  0.5955330000000  0.4626920000000 1.0
C      1  0.4878260000000  0.5519660000000  0.4789360000000 1.0
C      1  0.5133240000000  0.5533890000000  0.5218450000000 1.0
C      1  0.5155080000000  0.5484250000000  0.4697370000000 1.0
C      1  0.4872500000000  0.5491960000000  0.5360040000000 1.0
C      1  0.4116600000000  0.5051000000000  0.5265070000000 1.0
C      1  0.5884220000000  0.5052890000000  0.4736830000000 1.0
C      1  0.5871700000000  0.5058310000000  0.5260320000000 1.0
C      1  0.4134080000000  0.5061520000000  0.4743460000000 1.0
C      1  0.6059800000000  0.4861590000000  0.5143580000000 1.0
C      1  0.3945460000000  0.4862020000000  0.4856360000000 1.0
C      1  0.3937430000000  0.4854320000000  0.5134600000000 1.0
C      1  0.6067220000000  0.4856950000000  0.4864990000000 1.0
C      1  0.5013820000000  0.5490880000000  0.4076440000000 1.0
C      1  0.4955440000000  0.5485290000000  0.5665090000000 1.0
C      1  0.5013440000000  0.5674940000000  0.4994000000000 1.0
END
