TITL C-86709-268-6 -0.0371725373842865 125000 -218.130559145871 0 0 34 (C1) n - 1
REM
REM in /rds/project/t2_vol4/rds-t2-cs072/BORA/CARBON/from-Arr/AIRSS/Generating-Clusters/GAP-ML-2020/Higher-Symm/SD-CG/HFTN-CG
REM
REM
REM
REM
REM
REM ./C.cell (b20cbc046b6831c77cfcea5457e17084)
REM AIRSS Version 0.9.1 bugfix July 2018 build 013d7b7c2542+ Fri, 06 Jul 2018 19:26:36 +0100
REM compiler GCC version 9.3.0
REM options -cpp -mtune=generic -march=x86-64 -g -O0
REM seed 426091007 -53920261 -231479005 357155474 1409537409 -365339593 814749660 -754675934 -776302764 295463696 1158193285 1890045660 391141410 781246993 -1961185008 1660046977 1501157804 2145400155 -1830865769 699198075 603506438 1996580790 1309190295 194741577 -1160387113 -1121481020 1245922316 -1468036976 -2009407160 117688478 1362910176 535202259 -174272179
REM
CELL 1.54180   50.00000   50.00000   50.00000   90.00000   90.00000   90.00000
LATT -1
SFAC C  
C      1  0.5512010000000  0.4789310000000  0.4543750000000 1.0
C      1  0.4612870000000  0.5233780000000  0.4969580000000 1.0
C      1  0.5106060000000  0.4483570000000  0.5067260000000 1.0
C      1  0.5302370000000  0.5130390000000  0.5023460000000 1.0
C      1  0.5278100000000  0.4453010000000  0.4854850000000 1.0
C      1  0.5286050000000  0.5267970000000  0.5421080000000 1.0
C      1  0.4817660000000  0.5117120000000  0.5346660000000 1.0
C      1  0.5421230000000  0.4595520000000  0.4691320000000 1.0
C      1  0.5066560000000  0.5106300000000  0.5463080000000 1.0
C      1  0.5121840000000  0.4737510000000  0.5196780000000 1.0
C      1  0.5215390000000  0.5427500000000  0.4467790000000 1.0
C      1  0.4564890000000  0.4853620000000  0.4719580000000 1.0
C      1  0.5047810000000  0.4816130000000  0.5458860000000 1.0
C      1  0.4378570000000  0.5147690000000  0.5086480000000 1.0
C      1  0.5471800000000  0.5052400000000  0.4472450000000 1.0
C      1  0.5462480000000  0.5117470000000  0.5276170000000 1.0
C      1  0.4459190000000  0.4700610000000  0.5195950000000 1.0
C      1  0.5089070000000  0.4957490000000  0.5006900000000 1.0
C      1  0.4414010000000  0.5097740000000  0.4813410000000 1.0
C      1  0.4659360000000  0.4752920000000  0.4977470000000 1.0
C      1  0.5195650000000  0.5158500000000  0.4394850000000 1.0
C      1  0.4608660000000  0.4968800000000  0.5480860000000 1.0
C      1  0.4395140000000  0.4950540000000  0.5295880000000 1.0
C      1  0.5598490000000  0.5286640000000  0.4570300000000 1.0
C      1  0.4826080000000  0.4523320000000  0.5077800000000 1.0
C      1  0.5301820000000  0.5406360000000  0.4961100000000 1.0
C      1  0.5150590000000  0.5706910000000  0.5358160000000 1.0
C      1  0.5385080000000  0.5454830000000  0.4691140000000 1.0
C      1  0.4768100000000  0.4909610000000  0.4551110000000 1.0
C      1  0.4773280000000  0.4729010000000  0.5514080000000 1.0
C      1  0.5254530000000  0.5510230000000  0.5224540000000 1.0
C      1  0.4971960000000  0.4999140000000  0.4438180000000 1.0
C      1  0.4813880000000  0.5022670000000  0.5062400000000 1.0
C      1  0.4669410000000  0.4535390000000  0.5326730000000 1.0
END
