TITL C-86713-398-1 -0.0615715559675916 125000 -473.061355542849 0 0 70 (C5) n - 1
REM
REM in /rds/project/t2_vol4/rds-t2-cs072/BORA/CARBON/from-Arr/AIRSS/Generating-Clusters/GAP-ML-2020/Higher-Symm/SD-CG/HFTN-CG
REM
REM
REM
REM
REM
REM ./C.cell (b20cbc046b6831c77cfcea5457e17084)
REM AIRSS Version 0.9.1 bugfix July 2018 build 013d7b7c2542+ Fri, 06 Jul 2018 19:26:36 +0100
REM compiler GCC version 9.3.0
REM options -cpp -mtune=generic -march=x86-64 -g -O0
REM seed -1003046424 1618578129 -721143053 -109548278 484521558 1378380931 -1503357114 316787263 -1813218353 -1796818563 -934406046 -825109175 -1020541013 1604295795 -367650068 1938612316 -215713308 1970948398 1525973034 2040787809 -255433053 1234569755 1084151920 -615636629 -458473943 -701180949 1312721544 405525673 -1982877808 -277542238 1423741847 1337935993 -1388533515
REM
CELL 1.54180   50.00000   50.00000   50.00000   90.00000   90.00000   90.00000
LATT -1
SFAC C  
C      1  0.5720940000000  0.4618440000000  0.5181460000000 1.0
C      1  0.5049680000000  0.4599090000000  0.5731480000000 1.0
C      1  0.4319020000000  0.4593290000000  0.5262890000000 1.0
C      1  0.4538700000000  0.4609060000000  0.4423260000000 1.0
C      1  0.5405130000000  0.4624610000000  0.4372930000000 1.0
C      1  0.5343940000000  0.5143710000000  0.4492530000000 1.0
C      1  0.5589210000000  0.5138160000000  0.5173840000000 1.0
C      1  0.5017120000000  0.5122020000000  0.5617490000000 1.0
C      1  0.4418290000000  0.5117600000000  0.5210370000000 1.0
C      1  0.4620270000000  0.5131000000000  0.4515110000000 1.0
C      1  0.5214150000000  0.4602340000000  0.4175690000000 1.0
C      1  0.5849420000000  0.4602300000000  0.4938340000000 1.0
C      1  0.5320580000000  0.4581240000000  0.5778040000000 1.0
C      1  0.4358470000000  0.4568260000000  0.5534350000000 1.0
C      1  0.4292700000000  0.4581300000000  0.4544040000000 1.0
C      1  0.5105890000000  0.5880710000000  0.5426770000000 1.0
C      1  0.4628460000000  0.5874990000000  0.5255640000000 1.0
C      1  0.4643570000000  0.5882500000000  0.4748710000000 1.0
C      1  0.5130330000000  0.5892860000000  0.4606550000000 1.0
C      1  0.5416060000000  0.5891760000000  0.5025610000000 1.0
C      1  0.4646430000000  0.5057570000000  0.5364680000000 1.0
C      1  0.4543960000000  0.5064200000000  0.4778120000000 1.0
C      1  0.5070100000000  0.5077190000000  0.4499550000000 1.0
C      1  0.5497730000000  0.5078580000000  0.4913940000000 1.0
C      1  0.5235890000000  0.5066450000000  0.5448620000000 1.0
C      1  0.4147940000000  0.4702320000000  0.5058630000000 1.0
C      1  0.4680240000000  0.4723710000000  0.4200330000000 1.0
C      1  0.5661110000000  0.4737040000000  0.4441570000000 1.0
C      1  0.5735020000000  0.4723890000000  0.5448960000000 1.0
C      1  0.4799830000000  0.4702430000000  0.5830330000000 1.0
C      1  0.4597740000000  0.5776990000000  0.4999370000000 1.0
C      1  0.4877600000000  0.5786960000000  0.4637710000000 1.0
C      1  0.5308090000000  0.5792110000000  0.4792220000000 1.0
C      1  0.5294280000000  0.5785340000000  0.5249360000000 1.0
C      1  0.4855260000000  0.5775990000000  0.5377390000000 1.0
C      1  0.5737160000000  0.4973210000000  0.5329290000000 1.0
C      1  0.4914740000000  0.4952380000000  0.5801880000000 1.0
C      1  0.4210970000000  0.4949440000000  0.5165610000000 1.0
C      1  0.4598430000000  0.4968460000000  0.4299790000000 1.0
C      1  0.5541670000000  0.4983150000000  0.4400950000000 1.0
C      1  0.4284940000000  0.4653340000000  0.4803320000000 1.0
C      1  0.4965320000000  0.4672900000000  0.4250360000000 1.0
C      1  0.5701590000000  0.4678680000000  0.4726710000000 1.0
C      1  0.5476260000000  0.4662700000000  0.5574080000000 1.0
C      1  0.4600730000000  0.4647040000000  0.5621420000000 1.0
C      1  0.4784610000000  0.4418120000000  0.5076710000000 1.0
C      1  0.4859410000000  0.4423310000000  0.4803730000000 1.0
C      1  0.5142140000000  0.4428330000000  0.4790590000000 1.0
C      1  0.5242080000000  0.4426250000000  0.5055440000000 1.0
C      1  0.5021110000000  0.4419940000000  0.5232270000000 1.0
C      1  0.5357070000000  0.5260370000000  0.5291470000000 1.0
C      1  0.4833690000000  0.5249340000000  0.5436370000000 1.0
C      1  0.4534030000000  0.5250690000000  0.4983330000000 1.0
C      1  0.4872220000000  0.5262560000000  0.4558430000000 1.0
C      1  0.5380880000000  0.5268540000000  0.4748870000000 1.0
C      1  0.4606120000000  0.4641400000000  0.5141700000000 1.0
C      1  0.4742810000000  0.4650640000000  0.4659990000000 1.0
C      1  0.5243190000000  0.4659470000000  0.4641250000000 1.0
C      1  0.5415760000000  0.4655690000000  0.5111370000000 1.0
C      1  0.5022030000000  0.4644530000000  0.5420670000000 1.0
C      1  0.5211920000000  0.5483870000000  0.4858020000000 1.0
C      1  0.5201410000000  0.5479220000000  0.5170220000000 1.0
C      1  0.4901260000000  0.5472850000000  0.5256630000000 1.0
C      1  0.4726260000000  0.5473560000000  0.4997840000000 1.0
C      1  0.4918260000000  0.5480370000000  0.4751480000000 1.0
C      1  0.5442950000000  0.4790430000000  0.4843850000000 1.0
C      1  0.5285090000000  0.4780240000000  0.5367330000000 1.0
C      1  0.4738430000000  0.4770720000000  0.5378840000000 1.0
C      1  0.4558430000000  0.4775030000000  0.4862470000000 1.0
C      1  0.4993850000000  0.4787210000000  0.4531820000000 1.0
END
