TITL C-86722-216-8 34.0690367132296 125000 -562.815914021183 0 0 82 (C1) n - 1
REM
REM in /rds/project/t2_vol4/rds-t2-cs072/BORA/CARBON/from-Arr/AIRSS/Generating-Clusters/GAP-ML-2020/Higher-Symm/SD-CG/HFTN-CG
REM
REM
REM
REM
REM
REM ./C.cell (b20cbc046b6831c77cfcea5457e17084)
REM AIRSS Version 0.9.1 bugfix July 2018 build 013d7b7c2542+ Fri, 06 Jul 2018 19:26:36 +0100
REM compiler GCC version 9.3.0
REM options -cpp -mtune=generic -march=x86-64 -g -O0
REM seed -1472150946 953863519 -1554848665 -860988449 -1195556264 1153591893 -114955365 179175726 -93946006 1162192390 1496479004 -1499716658 789087606 1457803652 -1959125727 1018436252 -1812450258 2083585779 -245339180 1055638236 2045448444 88699016 304271225 37920428 -1556607957 1602585903 2130578862 753070114 2135510465 -1387972688 1245716311 -383718826 -1862247854
REM
CELL 1.54180   50.00000   50.00000   50.00000   90.00000   90.00000   90.00000
LATT -1
SFAC C  
C      1  0.5332940000000  0.5212800000000  0.4223520000000 1.0
C      1  0.5296710000000  0.5813720000000  0.4952690000000 1.0
C      1  0.5374490000000  0.5308230000000  0.5722630000000 1.0
C      1  0.5427600000000  0.4420930000000  0.5692390000000 1.0
C      1  0.5317910000000  0.4344710000000  0.4550600000000 1.0
C      1  0.5566850000000  0.4971760000000  0.5485740000000 1.0
C      1  0.5479920000000  0.4425760000000  0.5207940000000 1.0
C      1  0.5519240000000  0.4733870000000  0.4601530000000 1.0
C      1  0.5492580000000  0.5324220000000  0.4618730000000 1.0
C      1  0.5525250000000  0.5476860000000  0.5138510000000 1.0
C      1  0.4323610000000  0.4895040000000  0.5311790000000 1.0
C      1  0.4271700000000  0.4799050000000  0.4791030000000 1.0
C      1  0.4295460000000  0.5048240000000  0.4642400000000 1.0
C      1  0.4303260000000  0.5200490000000  0.4887700000000 1.0
C      1  0.4269160000000  0.5116090000000  0.5466810000000 1.0
C      1  0.4866440000000  0.5247450000000  0.4292150000000 1.0
C      1  0.4840520000000  0.5706610000000  0.5021040000000 1.0
C      1  0.4909810000000  0.5239890000000  0.5700410000000 1.0
C      1  0.4776320000000  0.4314310000000  0.5314710000000 1.0
C      1  0.4833300000000  0.4444460000000  0.4525230000000 1.0
C      1  0.4839470000000  0.4965960000000  0.4787830000000 1.0
C      1  0.4816090000000  0.5207290000000  0.4940500000000 1.0
C      1  0.4884770000000  0.5106910000000  0.5209900000000 1.0
C      1  0.4834940000000  0.4822960000000  0.5252760000000 1.0
C      1  0.4879010000000  0.4753120000000  0.4972240000000 1.0
C      1  0.5167450000000  0.5103040000000  0.5722310000000 1.0
C      1  0.5006640000000  0.4285440000000  0.5182220000000 1.0
C      1  0.5103930000000  0.4528510000000  0.4449100000000 1.0
C      1  0.5109910000000  0.5384410000000  0.4356360000000 1.0
C      1  0.5098570000000  0.5702950000000  0.5158980000000 1.0
C      1  0.4429360000000  0.4576810000000  0.4722310000000 1.0
C      1  0.4472650000000  0.5075610000000  0.4435730000000 1.0
C      1  0.4533400000000  0.5383700000000  0.4911190000000 1.0
C      1  0.4499570000000  0.5245970000000  0.5521420000000 1.0
C      1  0.4562450000000  0.4721460000000  0.5373470000000 1.0
C      1  0.4625610000000  0.5490620000000  0.4649230000000 1.0
C      1  0.4634060000000  0.5481500000000  0.5408420000000 1.0
C      1  0.4685430000000  0.4796570000000  0.5645400000000 1.0
C      1  0.4562500000000  0.4410310000000  0.4916430000000 1.0
C      1  0.4624350000000  0.4848930000000  0.4355070000000 1.0
C      1  0.5322620000000  0.4929680000000  0.4204450000000 1.0
C      1  0.5282470000000  0.5752430000000  0.4672770000000 1.0
C      1  0.5339740000000  0.5540610000000  0.5563500000000 1.0
C      1  0.5401190000000  0.4673560000000  0.5789630000000 1.0
C      1  0.5274110000000  0.4230310000000  0.4802180000000 1.0
C      1  0.5069110000000  0.4974770000000  0.4605490000000 1.0
C      1  0.5054100000000  0.5373160000000  0.4844010000000 1.0
C      1  0.5173660000000  0.5131160000000  0.5204230000000 1.0
C      1  0.5079130000000  0.4713530000000  0.5406270000000 1.0
C      1  0.5162370000000  0.4693390000000  0.4959280000000 1.0
C      1  0.5533540000000  0.5598360000000  0.4677030000000 1.0
C      1  0.5583130000000  0.5470050000000  0.5407140000000 1.0
C      1  0.5635520000000  0.4736430000000  0.5608390000000 1.0
C      1  0.5521650000000  0.4352400000000  0.4934750000000 1.0
C      1  0.5563390000000  0.4892410000000  0.4381060000000 1.0
C      1  0.5192480000000  0.5244330000000  0.4622520000000 1.0
C      1  0.5230560000000  0.5399410000000  0.5090370000000 1.0
C      1  0.5269730000000  0.4958640000000  0.5422820000000 1.0
C      1  0.5195310000000  0.4504800000000  0.5216990000000 1.0
C      1  0.5225760000000  0.4734880000000  0.4671070000000 1.0
C      1  0.5577630000000  0.5181820000000  0.4390780000000 1.0
C      1  0.5562490000000  0.5683550000000  0.4954920000000 1.0
C      1  0.5618520000000  0.5232690000000  0.5571510000000 1.0
C      1  0.5595090000000  0.4478300000000  0.5455450000000 1.0
C      1  0.5575730000000  0.4469630000000  0.4674750000000 1.0
C      1  0.4566130000000  0.4451010000000  0.5219060000000 1.0
C      1  0.4598550000000  0.4600730000000  0.4487280000000 1.0
C      1  0.4629600000000  0.5313570000000  0.4428060000000 1.0
C      1  0.4621560000000  0.5570700000000  0.5131230000000 1.0
C      1  0.4676730000000  0.5083660000000  0.5677260000000 1.0
C      1  0.5072620000000  0.5663750000000  0.4513580000000 1.0
C      1  0.5101950000000  0.5644220000000  0.5454540000000 1.0
C      1  0.5164980000000  0.4824560000000  0.5827350000000 1.0
C      1  0.5018340000000  0.4203640000000  0.4912670000000 1.0
C      1  0.5102040000000  0.4759900000000  0.4234870000000 1.0
C      1  0.4952810000000  0.4701950000000  0.5675740000000 1.0
C      1  0.4792480000000  0.4301880000000  0.4772990000000 1.0
C      1  0.4888730000000  0.4943680000000  0.4296020000000 1.0
C      1  0.4871210000000  0.5623540000000  0.4723540000000 1.0
C      1  0.4876540000000  0.5495810000000  0.5554500000000 1.0
C      1  0.5299630000000  0.4935060000000  0.5034690000000 1.0
C      1  0.4248850000000  0.4951940000000  0.5041600000000 1.0
END
