TITL C-86711-263-1 13.222424146118 125000 -940.384141043698 0 0 132 (C1) n - 1
REM
REM in /rds/project/t2_vol4/rds-t2-cs072/BORA/CARBON/from-Arr/AIRSS/Generating-Clusters/GAP-ML-2020/Higher-Symm/SD-CG/HFTN-CG
REM
REM
REM
REM
REM
REM ./C.cell (b20cbc046b6831c77cfcea5457e17084)
REM AIRSS Version 0.9.1 bugfix July 2018 build 013d7b7c2542+ Fri, 06 Jul 2018 19:26:36 +0100
REM compiler GCC version 9.3.0
REM options -cpp -mtune=generic -march=x86-64 -g -O0
REM seed 931731429 1250123121 -1975473849 2066328179 774834074 901105625 1389832020 -1942765753 -1174939433 1722420857 626430850 -926672778 -2097743366 -481451401 1473910776 410018159 -277633304 -1860063313 -88848611 -1616066722 1466672372 -1578855426 600471408 954679779 574149866 304524691 1194054888 143338741 1203382855 -62704501 -809030150 7733675 -923402831
REM
CELL 1.54180   50.00000   50.00000   50.00000   90.00000   90.00000   90.00000
LATT -1
SFAC C  
C      1  0.4576750000000  0.4948560000000  0.5450110000000 1.0
C      1  0.4583390000000  0.5064030000000  0.4545210000000 1.0
C      1  0.4905390000000  0.5927570000000  0.5198390000000 1.0
C      1  0.4904610000000  0.4087370000000  0.4786530000000 1.0
C      1  0.3952220000000  0.4876510000000  0.5066820000000 1.0
C      1  0.3955260000000  0.5145890000000  0.4919380000000 1.0
C      1  0.5024540000000  0.4658780000000  0.5915980000000 1.0
C      1  0.5043930000000  0.5344550000000  0.4085520000000 1.0
C      1  0.4466010000000  0.5524080000000  0.4551910000000 1.0
C      1  0.4449480000000  0.4491960000000  0.5440930000000 1.0
C      1  0.4755920000000  0.4844870000000  0.4151050000000 1.0
C      1  0.4755910000000  0.5167860000000  0.5842950000000 1.0
C      1  0.4767350000000  0.5328710000000  0.4178980000000 1.0
C      1  0.4750230000000  0.4681660000000  0.5818520000000 1.0
C      1  0.4977340000000  0.4010000000000  0.5277230000000 1.0
C      1  0.5005990000000  0.5994490000000  0.4719390000000 1.0
C      1  0.4754200000000  0.5897420000000  0.4611140000000 1.0
C      1  0.4727780000000  0.4111220000000  0.5386960000000 1.0
C      1  0.4813000000000  0.4721980000000  0.5009840000000 1.0
C      1  0.4818930000000  0.5282020000000  0.4989340000000 1.0
C      1  0.5267070000000  0.4695930000000  0.5200640000000 1.0
C      1  0.5276480000000  0.5297060000000  0.4804910000000 1.0
C      1  0.4909450000000  0.5533010000000  0.4909930000000 1.0
C      1  0.4898360000000  0.4467860000000  0.5085680000000 1.0
C      1  0.4230690000000  0.5616310000000  0.5102640000000 1.0
C      1  0.4226240000000  0.4402230000000  0.4885170000000 1.0
C      1  0.5103990000000  0.5367330000000  0.5933140000000 1.0
C      1  0.5090530000000  0.4636540000000  0.4062130000000 1.0
C      1  0.5730010000000  0.4728180000000  0.4678640000000 1.0
C      1  0.5736280000000  0.5249310000000  0.5328140000000 1.0
C      1  0.4540230000000  0.4301190000000  0.4562160000000 1.0
C      1  0.4543210000000  0.5713930000000  0.5429220000000 1.0
C      1  0.4994950000000  0.4225130000000  0.4548360000000 1.0
C      1  0.4993640000000  0.5778900000000  0.5426580000000 1.0
C      1  0.4293260000000  0.5585480000000  0.5377520000000 1.0
C      1  0.4291860000000  0.4433450000000  0.4611490000000 1.0
C      1  0.5374470000000  0.5005580000000  0.5828320000000 1.0
C      1  0.5380570000000  0.4980820000000  0.4176150000000 1.0
C      1  0.5367580000000  0.4057410000000  0.5040890000000 1.0
C      1  0.5385570000000  0.5925600000000  0.4971800000000 1.0
C      1  0.4622030000000  0.5854160000000  0.5187860000000 1.0
C      1  0.4619960000000  0.4164560000000  0.4802240000000 1.0
C      1  0.5825600000000  0.5017720000000  0.4649000000000 1.0
C      1  0.5820530000000  0.4956730000000  0.5360270000000 1.0
C      1  0.5588020000000  0.5181400000000  0.4212790000000 1.0
C      1  0.5575340000000  0.4800530000000  0.5793290000000 1.0
C      1  0.5689710000000  0.5495370000000  0.4460830000000 1.0
C      1  0.5671750000000  0.4482550000000  0.5552680000000 1.0
C      1  0.5499610000000  0.4319580000000  0.4643720000000 1.0
C      1  0.5492970000000  0.5653730000000  0.5377090000000 1.0
C      1  0.5078000000000  0.4004740000000  0.5007570000000 1.0
C      1  0.5096450000000  0.5996700000000  0.4989850000000 1.0
C      1  0.4202210000000  0.4725340000000  0.4610810000000 1.0
C      1  0.4201920000000  0.5294350000000  0.5379370000000 1.0
C      1  0.5817570000000  0.4634390000000  0.4951810000000 1.0
C      1  0.5828020000000  0.5342050000000  0.5059410000000 1.0
C      1  0.5110650000000  0.5763730000000  0.4325830000000 1.0
C      1  0.5081740000000  0.4234860000000  0.5677780000000 1.0
C      1  0.5454840000000  0.4499970000000  0.4290820000000 1.0
C      1  0.5572840000000  0.5443470000000  0.5772040000000 1.0
C      1  0.4974840000000  0.5129430000000  0.6021670000000 1.0
C      1  0.4974850000000  0.4881030000000  0.3973700000000 1.0
C      1  0.4656840000000  0.5537120000000  0.4332610000000 1.0
C      1  0.4636330000000  0.4475250000000  0.5663470000000 1.0
C      1  0.4429000000000  0.5781510000000  0.4978070000000 1.0
C      1  0.4422430000000  0.4235990000000  0.5010690000000 1.0
C      1  0.5098800000000  0.5323430000000  0.5471900000000 1.0
C      1  0.5091170000000  0.4685920000000  0.4529550000000 1.0
C      1  0.5189750000000  0.4076010000000  0.5461840000000 1.0
C      1  0.5220540000000  0.5919540000000  0.4542850000000 1.0
C      1  0.4894490000000  0.5404470000000  0.5704460000000 1.0
C      1  0.4889160000000  0.4605680000000  0.4290090000000 1.0
C      1  0.5565620000000  0.5759410000000  0.5127040000000 1.0
C      1  0.5558320000000  0.4215300000000  0.4891730000000 1.0
C      1  0.5455990000000  0.4860700000000  0.4706570000000 1.0
C      1  0.5459610000000  0.5128080000000  0.5298320000000 1.0
C      1  0.4860640000000  0.4912080000000  0.5278950000000 1.0
C      1  0.4865760000000  0.5091600000000  0.4719800000000 1.0
C      1  0.5884950000000  0.4872770000000  0.5093060000000 1.0
C      1  0.5888990000000  0.5100930000000  0.4916940000000 1.0
C      1  0.4496970000000  0.4251420000000  0.5281430000000 1.0
C      1  0.4515480000000  0.5764020000000  0.4710910000000 1.0
C      1  0.5245280000000  0.4391010000000  0.4512710000000 1.0
C      1  0.5221360000000  0.5608590000000  0.5442020000000 1.0
C      1  0.5151700000000  0.5095300000000  0.4019890000000 1.0
C      1  0.5141120000000  0.4904520000000  0.5982190000000 1.0
C      1  0.4023180000000  0.5112140000000  0.5492380000000 1.0
C      1  0.4029180000000  0.4911210000000  0.4494840000000 1.0
C      1  0.4651010000000  0.4934620000000  0.5734200000000 1.0
C      1  0.4658190000000  0.5079480000000  0.4261990000000 1.0
C      1  0.4561220000000  0.4746120000000  0.4890220000000 1.0
C      1  0.4564590000000  0.5268220000000  0.5106130000000 1.0
C      1  0.4827680000000  0.5760500000000  0.4374120000000 1.0
C      1  0.4800260000000  0.4245930000000  0.5625690000000 1.0
C      1  0.5476680000000  0.4527640000000  0.5773320000000 1.0
C      1  0.5497720000000  0.5457730000000  0.4236430000000 1.0
C      1  0.4346180000000  0.4854490000000  0.5040290000000 1.0
C      1  0.4349700000000  0.5163590000000  0.4952270000000 1.0
C      1  0.5736970000000  0.5597340000000  0.4956060000000 1.0
C      1  0.5726370000000  0.4381520000000  0.5060520000000 1.0
C      1  0.5228140000000  0.5544710000000  0.4184920000000 1.0
C      1  0.5203280000000  0.4451520000000  0.5819900000000 1.0
C      1  0.5654440000000  0.4301650000000  0.5334230000000 1.0
C      1  0.5672990000000  0.5678090000000  0.4680590000000 1.0
C      1  0.4780640000000  0.4355410000000  0.4415460000000 1.0
C      1  0.4784030000000  0.5653700000000  0.5573910000000 1.0
C      1  0.5657440000000  0.4507470000000  0.4493240000000 1.0
C      1  0.5666270000000  0.5469870000000  0.5520370000000 1.0
C      1  0.5150270000000  0.4457890000000  0.5156040000000 1.0
C      1  0.5162490000000  0.5538190000000  0.4843610000000 1.0
C      1  0.5385030000000  0.5303780000000  0.5899300000000 1.0
C      1  0.5365810000000  0.4682960000000  0.4108700000000 1.0
C      1  0.4049690000000  0.4877740000000  0.5346230000000 1.0
C      1  0.4057490000000  0.5144570000000  0.4641790000000 1.0
C      1  0.4128090000000  0.5331300000000  0.5070740000000 1.0
C      1  0.4124790000000  0.4688680000000  0.4917630000000 1.0
C      1  0.5755660000000  0.4763850000000  0.5563510000000 1.0
C      1  0.5766110000000  0.5210130000000  0.4444710000000 1.0
C      1  0.5270360000000  0.5070220000000  0.5521820000000 1.0
C      1  0.5270040000000  0.4931450000000  0.4481670000000 1.0
C      1  0.4995740000000  0.5181190000000  0.5203840000000 1.0
C      1  0.4992240000000  0.4817500000000  0.4795770000000 1.0
C      1  0.4484760000000  0.4803550000000  0.4624530000000 1.0
C      1  0.4483640000000  0.5210530000000  0.5370330000000 1.0
C      1  0.4360360000000  0.5254160000000  0.4646420000000 1.0
C      1  0.4350950000000  0.4763400000000  0.5346510000000 1.0
C      1  0.5275710000000  0.5134570000000  0.5062070000000 1.0
C      1  0.5272630000000  0.4856610000000  0.4940310000000 1.0
C      1  0.5461210000000  0.5880610000000  0.4696670000000 1.0
C      1  0.5436090000000  0.4103780000000  0.5316110000000 1.0
C      1  0.5124450000000  0.5167390000000  0.4593260000000 1.0
C      1  0.5117810000000  0.4835210000000  0.5410160000000 1.0
END
