TITL C-86716-166-8 0.0442969007967861 125000 -747.793242281914 0 0 111 (C1) n - 1
REM
REM in /rds/project/t2_vol4/rds-t2-cs072/BORA/CARBON/from-Arr/AIRSS/Generating-Clusters/GAP-ML-2020/Higher-Symm/SD-CG/HFTN-CG
REM
REM
REM
REM
REM
REM ./C.cell (b20cbc046b6831c77cfcea5457e17084)
REM AIRSS Version 0.9.1 bugfix July 2018 build 013d7b7c2542+ Fri, 06 Jul 2018 19:26:36 +0100
REM compiler GCC version 9.3.0
REM options -cpp -mtune=generic -march=x86-64 -g -O0
REM seed 1068234208 683913441 2071970153 -198923099 -223081656 74863228 -1857973522 858526087 712317665 -1227077679 -1266125104 74276196 -1372214737 -1502680533 83888504 292377434 -1081550486 -2106811172 139629941 320231437 -202697909 -1058370461 1025843881 1893804578 -317169383 782408198 127015302 -61430160 1098856475 -1890588974 301096930 -1690349576 -1194312323
REM
CELL 1.54180   50.00000   50.00000   50.00000   90.00000   90.00000   90.00000
LATT -1
SFAC C  
C      1  0.4706580000000  0.4518160000000  0.4402290000000 1.0
C      1  0.4665740000000  0.4687320000000  0.5697730000000 1.0
C      1  0.4763230000000  0.5829960000000  0.4829510000000 1.0
C      1  0.5354730000000  0.4531790000000  0.4416020000000 1.0
C      1  0.5359330000000  0.4709940000000  0.5718150000000 1.0
C      1  0.5395950000000  0.5781170000000  0.4844430000000 1.0
C      1  0.4024080000000  0.4954000000000  0.4886770000000 1.0
C      1  0.3978590000000  0.4838820000000  0.5134040000000 1.0
C      1  0.3988420000000  0.5115240000000  0.5108220000000 1.0
C      1  0.6001320000000  0.4982200000000  0.4839610000000 1.0
C      1  0.5993230000000  0.4861190000000  0.5088440000000 1.0
C      1  0.5992150000000  0.5136900000000  0.5069350000000 1.0
C      1  0.5766510000000  0.4715040000000  0.4518980000000 1.0
C      1  0.5772010000000  0.4731370000000  0.5493750000000 1.0
C      1  0.5768840000000  0.5543410000000  0.4973190000000 1.0
C      1  0.4276840000000  0.4559730000000  0.4349420000000 1.0
C      1  0.4206660000000  0.4631390000000  0.5555220000000 1.0
C      1  0.4367740000000  0.5739990000000  0.5043820000000 1.0
C      1  0.4377360000000  0.4787350000000  0.5355570000000 1.0
C      1  0.4167050000000  0.5548020000000  0.4984540000000 1.0
C      1  0.4330700000000  0.4742600000000  0.4588650000000 1.0
C      1  0.5545380000000  0.4823570000000  0.5316150000000 1.0
C      1  0.5526000000000  0.5362020000000  0.4960190000000 1.0
C      1  0.5550370000000  0.4798130000000  0.4711120000000 1.0
C      1  0.4838570000000  0.4725100000000  0.4947960000000 1.0
C      1  0.4795950000000  0.5090490000000  0.5193270000000 1.0
C      1  0.4677450000000  0.5116180000000  0.4916150000000 1.0
C      1  0.5123780000000  0.4716310000000  0.5018010000000 1.0
C      1  0.5072340000000  0.5195220000000  0.5139730000000 1.0
C      1  0.5209950000000  0.4996770000000  0.4946770000000 1.0
C      1  0.5618260000000  0.5567790000000  0.4560050000000 1.0
C      1  0.5636300000000  0.4334050000000  0.4692830000000 1.0
C      1  0.5577640000000  0.5070010000000  0.5699740000000 1.0
C      1  0.4384820000000  0.5671000000000  0.4588000000000 1.0
C      1  0.4379350000000  0.4258550000000  0.4658500000000 1.0
C      1  0.4359070000000  0.5019210000000  0.5770760000000 1.0
C      1  0.4901390000000  0.4360460000000  0.4521430000000 1.0
C      1  0.4870600000000  0.4875000000000  0.5768420000000 1.0
C      1  0.4934710000000  0.5813720000000  0.4613320000000 1.0
C      1  0.5179990000000  0.4326730000000  0.4490000000000 1.0
C      1  0.5151390000000  0.4874800000000  0.5824430000000 1.0
C      1  0.5219680000000  0.5819000000000  0.4620010000000 1.0
C      1  0.5890660000000  0.4952890000000  0.4566350000000 1.0
C      1  0.5884730000000  0.4643330000000  0.5258700000000 1.0
C      1  0.5877980000000  0.5389800000000  0.5170690000000 1.0
C      1  0.4165030000000  0.4977610000000  0.4646400000000 1.0
C      1  0.4126440000000  0.4617580000000  0.5272410000000 1.0
C      1  0.4082950000000  0.5369540000000  0.5194610000000 1.0
C      1  0.4584910000000  0.5675450000000  0.5225770000000 1.0
C      1  0.4639720000000  0.4812930000000  0.4486890000000 1.0
C      1  0.4634190000000  0.4642720000000  0.5390810000000 1.0
C      1  0.5326040000000  0.5576900000000  0.5063690000000 1.0
C      1  0.5323580000000  0.4825680000000  0.4508960000000 1.0
C      1  0.5336510000000  0.4619880000000  0.5429660000000 1.0
C      1  0.4794670000000  0.5169010000000  0.5686770000000 1.0
C      1  0.4844300000000  0.5604990000000  0.4428770000000 1.0
C      1  0.4814750000000  0.4254170000000  0.4801930000000 1.0
C      1  0.5242820000000  0.5174230000000  0.5847460000000 1.0
C      1  0.5303730000000  0.5664920000000  0.4362610000000 1.0
C      1  0.5281780000000  0.4130010000000  0.4717060000000 1.0
C      1  0.4652540000000  0.5205420000000  0.5421560000000 1.0
C      1  0.4619700000000  0.5367560000000  0.4857620000000 1.0
C      1  0.4672560000000  0.4494970000000  0.4938790000000 1.0
C      1  0.5229600000000  0.5249190000000  0.5389270000000 1.0
C      1  0.5224820000000  0.5242660000000  0.4522860000000 1.0
C      1  0.5259110000000  0.4465630000000  0.5006050000000 1.0
C      1  0.4384950000000  0.4737220000000  0.5768000000000 1.0
C      1  0.4483000000000  0.5832310000000  0.4797090000000 1.0
C      1  0.4454890000000  0.4361820000000  0.4395490000000 1.0
C      1  0.5636350000000  0.4801010000000  0.5737190000000 1.0
C      1  0.5673910000000  0.5727700000000  0.4780310000000 1.0
C      1  0.5640160000000  0.4474020000000  0.4450290000000 1.0
C      1  0.5545880000000  0.5544610000000  0.4297540000000 1.0
C      1  0.5535760000000  0.4128790000000  0.4842920000000 1.0
C      1  0.5486360000000  0.5306070000000  0.5795730000000 1.0
C      1  0.4570220000000  0.5532280000000  0.4411760000000 1.0
C      1  0.4540950000000  0.4125010000000  0.4851560000000 1.0
C      1  0.4498050000000  0.5255730000000  0.5821770000000 1.0
C      1  0.4228070000000  0.5237700000000  0.4553970000000 1.0
C      1  0.4240140000000  0.4419820000000  0.5085040000000 1.0
C      1  0.4224450000000  0.5325020000000  0.5438060000000 1.0
C      1  0.5725290000000  0.5175860000000  0.4492730000000 1.0
C      1  0.5734480000000  0.4456010000000  0.5101110000000 1.0
C      1  0.5700870000000  0.5337420000000  0.5390350000000 1.0
C      1  0.5507810000000  0.5308480000000  0.4675060000000 1.0
C      1  0.5544150000000  0.4555190000000  0.4877720000000 1.0
C      1  0.5508150000000  0.5098200000000  0.5407950000000 1.0
C      1  0.4193320000000  0.5487750000000  0.4696170000000 1.0
C      1  0.4371020000000  0.4515080000000  0.4818970000000 1.0
C      1  0.4382320000000  0.5065990000000  0.5460750000000 1.0
C      1  0.4556510000000  0.5504390000000  0.5443790000000 1.0
C      1  0.4579770000000  0.5033170000000  0.4310750000000 1.0
C      1  0.4606000000000  0.4402860000000  0.5219510000000 1.0
C      1  0.5359880000000  0.5530900000000  0.5362650000000 1.0
C      1  0.5380680000000  0.5068380000000  0.4324640000000 1.0
C      1  0.5390980000000  0.4369680000000  0.5264500000000 1.0
C      1  0.5593290000000  0.4213390000000  0.5143670000000 1.0
C      1  0.5550660000000  0.5505570000000  0.5567480000000 1.0
C      1  0.5590040000000  0.5244000000000  0.4248750000000 1.0
C      1  0.4423160000000  0.4207510000000  0.5132790000000 1.0
C      1  0.4370070000000  0.5466730000000  0.5651290000000 1.0
C      1  0.4459700000000  0.5264330000000  0.4374560000000 1.0
C      1  0.5104140000000  0.4714220000000  0.5299980000000 1.0
C      1  0.5057030000000  0.5473790000000  0.5050090000000 1.0
C      1  0.5108740000000  0.5008640000000  0.4666350000000 1.0
C      1  0.4829450000000  0.4803590000000  0.5250920000000 1.0
C      1  0.4802580000000  0.5607860000000  0.5027280000000 1.0
C      1  0.4813400000000  0.4922900000000  0.4725820000000 1.0
C      1  0.5088160000000  0.4216080000000  0.4902150000000 1.0
C      1  0.5064360000000  0.5276750000000  0.5655850000000 1.0
C      1  0.5090400000000  0.5469440000000  0.4379410000000 1.0
END
