TITL C-86700-218-7 0.0119174933044278 125000 -275.464801778097 0 0 44 (C1) n - 1
REM
REM in /rds/project/t2_vol4/rds-t2-cs072/BORA/CARBON/from-Arr/AIRSS/Generating-Clusters/GAP-ML-2020/Higher-Symm/SD-CG/HFTN-CG
REM
REM
REM
REM
REM
REM ./C.cell (b20cbc046b6831c77cfcea5457e17084)
REM AIRSS Version 0.9.1 bugfix July 2018 build 013d7b7c2542+ Fri, 06 Jul 2018 19:26:36 +0100
REM compiler GCC version 9.3.0
REM options -cpp -mtune=generic -march=x86-64 -g -O0
REM seed 512599434 747771081 1940245257 -85922248 1097664208 -1658657187 1936707281 656052201 -904212642 -1140757773 26883285 1027845355 -433178126 1211489858 966168037 544970953 -1401264509 1068712134 -1255637588 -931582769 439370302 -1136979574 1237664579 1679592461 -1486159803 832599478 2034906456 317369432 -75866096 1572254019 576603294 -334078900 -720666154
REM
CELL 1.54180   50.00000   50.00000   50.00000   90.00000   90.00000   90.00000
LATT -1
SFAC C  
C      1  0.5170060000000  0.5678650000000  0.4524460000000 1.0
C      1  0.4426450000000  0.5424600000000  0.4525940000000 1.0
C      1  0.4391960000000  0.4639630000000  0.4585870000000 1.0
C      1  0.5055360000000  0.4337700000000  0.4662050000000 1.0
C      1  0.5642490000000  0.4789590000000  0.4679170000000 1.0
C      1  0.5321420000000  0.5640520000000  0.5407030000000 1.0
C      1  0.4619540000000  0.5535790000000  0.5292940000000 1.0
C      1  0.4466330000000  0.4538570000000  0.5397950000000 1.0
C      1  0.5213580000000  0.4336510000000  0.5438490000000 1.0
C      1  0.5692490000000  0.4958730000000  0.5478440000000 1.0
C      1  0.4824940000000  0.5125830000000  0.4686500000000 1.0
C      1  0.4812280000000  0.4862250000000  0.4828300000000 1.0
C      1  0.5107050000000  0.4780460000000  0.4825170000000 1.0
C      1  0.5269910000000  0.5032110000000  0.4835100000000 1.0
C      1  0.5054550000000  0.5253630000000  0.4847650000000 1.0
C      1  0.4810230000000  0.5106730000000  0.5291460000000 1.0
C      1  0.4821260000000  0.4848060000000  0.5140570000000 1.0
C      1  0.5115250000000  0.4769980000000  0.5146430000000 1.0
C      1  0.5270910000000  0.5018690000000  0.5159970000000 1.0
C      1  0.5070510000000  0.5239780000000  0.5155900000000 1.0
C      1  0.5503760000000  0.4569480000000  0.5075990000000 1.0
C      1  0.5625820000000  0.5272750000000  0.5077190000000 1.0
C      1  0.4848930000000  0.5625410000000  0.5175000000000 1.0
C      1  0.4298090000000  0.5183980000000  0.5149690000000 1.0
C      1  0.4780920000000  0.4382860000000  0.5044350000000 1.0
C      1  0.5512820000000  0.4577800000000  0.4804360000000 1.0
C      1  0.5719250000000  0.5262700000000  0.4837790000000 1.0
C      1  0.4857040000000  0.5691640000000  0.4912510000000 1.0
C      1  0.4409070000000  0.5127430000000  0.4924480000000 1.0
C      1  0.4800590000000  0.4390360000000  0.4777880000000 1.0
C      1  0.4632610000000  0.4649590000000  0.4703440000000 1.0
C      1  0.5234600000000  0.4523610000000  0.4718790000000 1.0
C      1  0.5557400000000  0.5040980000000  0.4732790000000 1.0
C      1  0.5047510000000  0.5564700000000  0.4733800000000 1.0
C      1  0.4537500000000  0.5250550000000  0.4698200000000 1.0
C      1  0.4663020000000  0.4590260000000  0.5223870000000 1.0
C      1  0.5277940000000  0.4519320000000  0.5255850000000 1.0
C      1  0.5550870000000  0.5071830000000  0.5284630000000 1.0
C      1  0.5123730000000  0.5515560000000  0.5274110000000 1.0
C      1  0.4551750000000  0.5273510000000  0.5254180000000 1.0
C      1  0.4864380000000  0.5077830000000  0.5573130000000 1.0
C      1  0.4918930000000  0.5099380000000  0.4415250000000 1.0
C      1  0.4990330000000  0.5001900000000  0.4199020000000 1.0
C      1  0.4969740000000  0.5009320000000  0.5785530000000 1.0
END
