TITL C-86704-5111-1 -0.0649921470111847 125000 -313.47366921873 0 0 47 (C2) n - 1
REM
REM in /rds/project/t2_vol4/rds-t2-cs072/BORA/CARBON/from-Arr/AIRSS/Generating-Clusters/GAP-ML-2020/Higher-Symm/SD-CG/HFTN-CG
REM
REM
REM
REM
REM
REM ./C.cell (b20cbc046b6831c77cfcea5457e17084)
REM AIRSS Version 0.9.1 bugfix July 2018 build 013d7b7c2542+ Fri, 06 Jul 2018 19:26:36 +0100
REM compiler GCC version 9.3.0
REM options -cpp -mtune=generic -march=x86-64 -g -O0
REM seed -737056962 -439261703 -129159494 810706310 -955912924 -1317486549 203647837 48144262 -56007857 1801575060 622868548 678744119 1562395478 1368944842 -1439882452 -344967709 -1357672597 1688582363 2108684879 1655327997 1057576324 1938152101 1019866929 141931395 -1813664098 1304714613 -1959641358 -349232035 554256487 1052280461 1401980269 1681639266 633055678
REM
CELL 1.54180   50.00000   50.00000   50.00000   90.00000   90.00000   90.00000
LATT -1
SFAC C  
C      1  0.4347180000000  0.4636820000000  0.4873230000000 1.0
C      1  0.4348550000000  0.5378630000000  0.5146580000000 1.0
C      1  0.5188430000000  0.5324760000000  0.5527210000000 1.0
C      1  0.5183130000000  0.4690720000000  0.4484060000000 1.0
C      1  0.5503590000000  0.5008550000000  0.5432610000000 1.0
C      1  0.5499220000000  0.5006960000000  0.4575440000000 1.0
C      1  0.5401260000000  0.4567970000000  0.5295020000000 1.0
C      1  0.5398270000000  0.5447530000000  0.4714070000000 1.0
C      1  0.4929160000000  0.5274100000000  0.5452670000000 1.0
C      1  0.4924630000000  0.4741370000000  0.4561240000000 1.0
C      1  0.4463190000000  0.4642570000000  0.5128330000000 1.0
C      1  0.4461960000000  0.5372880000000  0.4890310000000 1.0
C      1  0.4667860000000  0.4844350000000  0.5211340000000 1.0
C      1  0.4665780000000  0.5171110000000  0.4805220000000 1.0
C      1  0.4911250000000  0.4669860000000  0.5386410000000 1.0
C      1  0.4907360000000  0.5345610000000  0.4627670000000 1.0
C      1  0.5141740000000  0.4547150000000  0.5220350000000 1.0
C      1  0.5139530000000  0.5468340000000  0.4791380000000 1.0
C      1  0.5241850000000  0.5055660000000  0.5135830000000 1.0
C      1  0.5240520000000  0.4959830000000  0.4874870000000 1.0
C      1  0.5317840000000  0.5447720000000  0.5292360000000 1.0
C      1  0.5314930000000  0.4567770000000  0.4717580000000 1.0
C      1  0.4695740000000  0.4487450000000  0.5498140000000 1.0
C      1  0.4690720000000  0.5528010000000  0.4518150000000 1.0
C      1  0.4563980000000  0.5019370000000  0.5437350000000 1.0
C      1  0.4559610000000  0.4996080000000  0.4580280000000 1.0
C      1  0.5007870000000  0.4886200000000  0.5569790000000 1.0
C      1  0.5002130000000  0.5129270000000  0.4443330000000 1.0
C      1  0.5574560000000  0.4772940000000  0.5274670000000 1.0
C      1  0.5571780000000  0.5242560000000  0.4732650000000 1.0
C      1  0.4982300000000  0.4817460000000  0.4852510000000 1.0
C      1  0.4983870000000  0.5198020000000  0.5160830000000 1.0
C      1  0.4478100000000  0.5555730000000  0.4664830000000 1.0
C      1  0.4481640000000  0.4459720000000  0.5353640000000 1.0
C      1  0.4405290000000  0.4794010000000  0.4679820000000 1.0
C      1  0.4408640000000  0.5221440000000  0.5339400000000 1.0
C      1  0.5112300000000  0.4557320000000  0.4935450000000 1.0
C      1  0.5113000000000  0.5458160000000  0.5076570000000 1.0
C      1  0.5258360000000  0.5040450000000  0.5579300000000 1.0
C      1  0.5252510000000  0.4975040000000  0.4431260000000 1.0
C      1  0.5657150000000  0.4862130000000  0.5012000000000 1.0
C      1  0.5657060000000  0.5153380000000  0.4994470000000 1.0
C      1  0.5495960000000  0.4788050000000  0.4783790000000 1.0
C      1  0.5498200000000  0.5227450000000  0.5224300000000 1.0
C      1  0.4792050000000  0.5072160000000  0.5592120000000 1.0
C      1  0.4786100000000  0.4943300000000  0.4423200000000 1.0
C      1  0.4804460000000  0.5007730000000  0.5007580000000 1.0
END
