TITL C-86694-191-6 -0.026785289485409 125000 -151.219768827615 0 0 24 (C3) n - 1
REM
REM in /rds/project/t2_vol4/rds-t2-cs072/BORA/CARBON/from-Arr/AIRSS/Generating-Clusters/GAP-ML-2020/Higher-Symm/SD-CG/HFTN-CG
REM
REM
REM
REM
REM
REM ./C.cell (b20cbc046b6831c77cfcea5457e17084)
REM AIRSS Version 0.9.1 bugfix July 2018 build 013d7b7c2542+ Fri, 06 Jul 2018 19:26:36 +0100
REM compiler GCC version 9.3.0
REM options -cpp -mtune=generic -march=x86-64 -g -O0
REM seed 709615728 -785367116 572828013 -289668332 -1371406961 1745029242 -1076051888 -1823286271 887036617 840096066 980619581 530169020 1108971701 1595117828 1786103151 -667365754 4429505 1622507771 1127725915 -86516980 -964376685 -1438640639 1365612952 -1884550231 -240523229 2029605495 509186312 -440076444 -1456205537 -1910527975 146356198 -1234998089 1049081790
REM
CELL 1.54180   50.00000   50.00000   50.00000   90.00000   90.00000   90.00000
LATT -1
SFAC C  
C      1  0.4934600000000  0.4374760000000  0.4551600000000 1.0
C      1  0.4937680000000  0.4923800000000  0.5765880000000 1.0
C      1  0.4931300000000  0.5700880000000  0.4683270000000 1.0
C      1  0.5000890000000  0.4776020000000  0.5315130000000 1.0
C      1  0.4998070000000  0.5384900000000  0.5036410000000 1.0
C      1  0.4998150000000  0.4839070000000  0.4648470000000 1.0
C      1  0.4983960000000  0.5348230000000  0.5558050000000 1.0
C      1  0.4979700000000  0.5309030000000  0.4419460000000 1.0
C      1  0.4984790000000  0.4342590000000  0.5022690000000 1.0
C      1  0.5094890000000  0.4570690000000  0.4665220000000 1.0
C      1  0.5097230000000  0.4925450000000  0.5538860000000 1.0
C      1  0.5092710000000  0.5504670000000  0.4794820000000 1.0
C      1  0.4828900000000  0.4393890000000  0.4790320000000 1.0
C      1  0.4830040000000  0.5120160000000  0.5630300000000 1.0
C      1  0.4824970000000  0.5484470000000  0.4581360000000 1.0
C      1  0.5223710000000  0.4484270000000  0.4918390000000 1.0
C      1  0.5223870000000  0.5188890000000  0.5486710000000 1.0
C      1  0.5220040000000  0.5328760000000  0.4592340000000 1.0
C      1  0.5088580000000  0.5080490000000  0.4545190000000 1.0
C      1  0.5092410000000  0.4566570000000  0.5157400000000 1.0
C      1  0.5090680000000  0.5353720000000  0.5296370000000 1.0
C      1  0.4847190000000  0.5155080000000  0.5006130000000 1.0
C      1  0.4847300000000  0.4926610000000  0.4863130000000 1.0
C      1  0.4848360000000  0.4917000000000  0.5132490000000 1.0
END
