TITL C-86710-245-7 -40.2728362657292 125000 -171.235191740135 0 0 27 (Cs) n - 1
REM
REM in /rds/project/t2_vol4/rds-t2-cs072/BORA/CARBON/from-Arr/AIRSS/Generating-Clusters/GAP-ML-2020/Higher-Symm/SD-CG/HFTN-CG
REM
REM
REM
REM
REM
REM ./C.cell (b20cbc046b6831c77cfcea5457e17084)
REM AIRSS Version 0.9.1 bugfix July 2018 build 013d7b7c2542+ Fri, 06 Jul 2018 19:26:36 +0100
REM compiler GCC version 9.3.0
REM options -cpp -mtune=generic -march=x86-64 -g -O0
REM seed -258892132 725127014 1780118996 -613944014 -1304792182 -1643761868 -1269858602 482016858 70632422 -1266886704 -1024180046 -28278031 1599301246 2057400 -1003850888 1847610622 -1490052700 -1868359615 1893692743 -1893175791 -419234440 -1470014808 1305793735 190064704 1143897567 1946291729 977679195 1922473267 -1173668258 1754340357 -572589385 -1403100044 -737150811
REM
CELL 1.54180   50.00000   50.00000   50.00000   90.00000   90.00000   90.00000
LATT -1
SFAC C  
C      1  0.5497330000000  0.4748440000000  0.5029890000000 1.0
C      1  0.5272920000000  0.4700030000000  0.4834370000000 1.0
C      1  0.5262450000000  0.4942390000000  0.4673410000000 1.0
C      1  0.5481400000000  0.5117110000000  0.4785030000000 1.0
C      1  0.5335390000000  0.5275790000000  0.4980020000000 1.0
C      1  0.5300710000000  0.5150280000000  0.5247220000000 1.0
C      1  0.5353440000000  0.4857940000000  0.5257540000000 1.0
C      1  0.5016700000000  0.5167750000000  0.5292000000000 1.0
C      1  0.4908090000000  0.4918770000000  0.5366790000000 1.0
C      1  0.5083100000000  0.4737540000000  0.5255500000000 1.0
C      1  0.5022230000000  0.4686760000000  0.4977050000000 1.0
C      1  0.5005940000000  0.5063840000000  0.4726610000000 1.0
C      1  0.5058620000000  0.5304200000000  0.4879150000000 1.0
C      1  0.4890490000000  0.5326220000000  0.5096190000000 1.0
C      1  0.4278120000000  0.4862660000000  0.5273370000000 1.0
C      1  0.4432000000000  0.4708030000000  0.5085560000000 1.0
C      1  0.4362210000000  0.4663080000000  0.4826570000000 1.0
C      1  0.4352200000000  0.4894940000000  0.4672580000000 1.0
C      1  0.4414200000000  0.5120180000000  0.4811840000000 1.0
C      1  0.4262500000000  0.5224150000000  0.5033290000000 1.0
C      1  0.4457630000000  0.5101750000000  0.5228990000000 1.0
C      1  0.6178930000000  0.5033750000000  0.5014640000000 1.0
C      1  0.5679180000000  0.4942430000000  0.4909640000000 1.0
C      1  0.4593800000000  0.4947360000000  0.4987670000000 1.0
C      1  0.4838090000000  0.4866980000000  0.4850750000000 1.0
C      1  0.5933080000000  0.4994810000000  0.4971990000000 1.0
C      1  0.4093560000000  0.5041990000000  0.5162700000000 1.0
END
