TITL C-86703-396-7 0.152622984150413 125000 -156.400659807501 0 0 24 (C1) n - 1
REM
REM in /rds/project/t2_vol4/rds-t2-cs072/BORA/CARBON/from-Arr/AIRSS/Generating-Clusters/GAP-ML-2020/Higher-Symm/SD-CG/HFTN-CG
REM
REM
REM
REM
REM
REM ./C.cell (b20cbc046b6831c77cfcea5457e17084)
REM AIRSS Version 0.9.1 bugfix July 2018 build 013d7b7c2542+ Fri, 06 Jul 2018 19:26:36 +0100
REM compiler GCC version 9.3.0
REM options -cpp -mtune=generic -march=x86-64 -g -O0
REM seed 1358689469 -1605089029 -913609982 655693619 1066228225 -516887820 -2109418661 974501074 1585668098 253307125 -1055160170 1925293680 185176314 -1492904711 896096156 -262380605 589508364 -195777505 -600794848 -1234001148 -445735713 -438667486 1852634913 -1737201689 -203412718 -1380122911 247510921 486771911 -2143135722 -2029396802 -292894659 533851954 -1053020506
REM
CELL 1.54180   50.00000   50.00000   50.00000   90.00000   90.00000   90.00000
LATT -1
SFAC C  
C      1  0.5266810000000  0.4668230000000  0.5331390000000 1.0
C      1  0.5259940000000  0.5361730000000  0.5234230000000 1.0
C      1  0.5094030000000  0.5231270000000  0.4435760000000 1.0
C      1  0.5182230000000  0.4386310000000  0.4901240000000 1.0
C      1  0.5346440000000  0.5482930000000  0.4745040000000 1.0
C      1  0.4913260000000  0.4442520000000  0.4842630000000 1.0
C      1  0.4982710000000  0.5375630000000  0.5296250000000 1.0
C      1  0.4813730000000  0.5143220000000  0.5298220000000 1.0
C      1  0.4596480000000  0.4687490000000  0.4932710000000 1.0
C      1  0.4759590000000  0.4609830000000  0.4672590000000 1.0
C      1  0.5343710000000  0.5486350000000  0.4996990000000 1.0
C      1  0.4646610000000  0.5172260000000  0.5042020000000 1.0
C      1  0.4701950000000  0.4467940000000  0.5062090000000 1.0
C      1  0.5444000000000  0.4893090000000  0.5342510000000 1.0
C      1  0.4829780000000  0.5584820000000  0.5153710000000 1.0
C      1  0.4691640000000  0.5451710000000  0.4976910000000 1.0
C      1  0.4760600000000  0.4889810000000  0.4601600000000 1.0
C      1  0.4873560000000  0.4910280000000  0.5420550000000 1.0
C      1  0.5275420000000  0.5409380000000  0.4500290000000 1.0
C      1  0.5405470000000  0.5139210000000  0.5330230000000 1.0
C      1  0.5017970000000  0.4709720000000  0.5466460000000 1.0
C      1  0.5265090000000  0.4492110000000  0.5117720000000 1.0
C      1  0.4920520000000  0.5044100000000  0.4443500000000 1.0
C      1  0.4608450000000  0.4960040000000  0.4855360000000 1.0
END
