TITL C-86701-2625-11 -90.4570407492887 125000 -587.879875271816 0 0 87 (C1) n - 1
REM
REM in /rds/project/t2_vol4/rds-t2-cs072/BORA/CARBON/from-Arr/AIRSS/Generating-Clusters/GAP-ML-2020/Higher-Symm/SD-CG/HFTN-CG
REM
REM
REM
REM
REM
REM ./C.cell (b20cbc046b6831c77cfcea5457e17084)
REM AIRSS Version 0.9.1 bugfix July 2018 build 013d7b7c2542+ Fri, 06 Jul 2018 19:26:36 +0100
REM compiler GCC version 9.3.0
REM options -cpp -mtune=generic -march=x86-64 -g -O0
REM seed -1358119066 208222579 519371476 -1301641386 -2083745654 880396962 1875196355 -1201377858 -499063802 100707113 -698845296 -1998911976 -48522901 1853925473 2032929228 1065807888 1321810293 -1396178453 -2024253343 1729703069 1894972711 253964354 -927384491 1461028557 361522327 -1478212858 -561828346 -138756189 -821605152 864784291 -1232175073 1665295006 -849729865
REM
CELL 1.54180   50.00000   50.00000   50.00000   90.00000   90.00000   90.00000
LATT -1
SFAC C  
C      1  0.5257380000000  0.4384930000000  0.4993640000000 1.0
C      1  0.4866650000000  0.4168890000000  0.4753790000000 1.0
C      1  0.4838690000000  0.4357790000000  0.5221610000000 1.0
C      1  0.5262770000000  0.5624760000000  0.4999880000000 1.0
C      1  0.4859100000000  0.5809040000000  0.4750450000000 1.0
C      1  0.4840610000000  0.5628680000000  0.5214490000000 1.0
C      1  0.4723730000000  0.4204230000000  0.5005910000000 1.0
C      1  0.5126270000000  0.4246250000000  0.4738810000000 1.0
C      1  0.5128970000000  0.4270950000000  0.5215200000000 1.0
C      1  0.4715760000000  0.5778350000000  0.5000110000000 1.0
C      1  0.5124180000000  0.5747660000000  0.4745350000000 1.0
C      1  0.5130340000000  0.5738980000000  0.5216240000000 1.0
C      1  0.4848140000000  0.5291150000000  0.5235210000000 1.0
C      1  0.5293510000000  0.5292930000000  0.5004160000000 1.0
C      1  0.4847950000000  0.5153110000000  0.4738140000000 1.0
C      1  0.4843580000000  0.4700300000000  0.5255100000000 1.0
C      1  0.5282360000000  0.4711430000000  0.5000660000000 1.0
C      1  0.4857710000000  0.4825970000000  0.4736800000000 1.0
C      1  0.5145480000000  0.5166330000000  0.5249260000000 1.0
C      1  0.4696680000000  0.5158280000000  0.5010170000000 1.0
C      1  0.5163690000000  0.5156240000000  0.4751700000000 1.0
C      1  0.5139420000000  0.4837250000000  0.5250860000000 1.0
C      1  0.4698250000000  0.4832350000000  0.5026890000000 1.0
C      1  0.5168750000000  0.4836510000000  0.4746440000000 1.0
C      1  0.4490200000000  0.5125840000000  0.4362770000000 1.0
C      1  0.4706610000000  0.5129030000000  0.5752840000000 1.0
C      1  0.5802240000000  0.5140650000000  0.4866890000000 1.0
C      1  0.4485820000000  0.4857720000000  0.4386890000000 1.0
C      1  0.4718950000000  0.4856380000000  0.5762270000000 1.0
C      1  0.5803560000000  0.4868860000000  0.4879640000000 1.0
C      1  0.5517030000000  0.5133400000000  0.4361230000000 1.0
C      1  0.5290550000000  0.5136860000000  0.5759530000000 1.0
C      1  0.4187210000000  0.5129650000000  0.4882290000000 1.0
C      1  0.5525800000000  0.4862810000000  0.4368840000000 1.0
C      1  0.5304510000000  0.4868340000000  0.5760540000000 1.0
C      1  0.4209820000000  0.4862710000000  0.4864880000000 1.0
C      1  0.5724590000000  0.5550380000000  0.4890600000000 1.0
C      1  0.4577150000000  0.5524170000000  0.4449200000000 1.0
C      1  0.4720000000000  0.5531140000000  0.5661890000000 1.0
C      1  0.5720830000000  0.4464300000000  0.4911070000000 1.0
C      1  0.4583910000000  0.4458730000000  0.4470340000000 1.0
C      1  0.4739110000000  0.4446540000000  0.5683690000000 1.0
C      1  0.4302490000000  0.5523090000000  0.4915350000000 1.0
C      1  0.5426470000000  0.5526020000000  0.4459930000000 1.0
C      1  0.5246440000000  0.5529610000000  0.5622580000000 1.0
C      1  0.4327990000000  0.4467690000000  0.4915960000000 1.0
C      1  0.5435150000000  0.4468130000000  0.4471220000000 1.0
C      1  0.5263050000000  0.4475580000000  0.5629210000000 1.0
C      1  0.5388330000000  0.4237560000000  0.4616490000000 1.0
C      1  0.4469990000000  0.4240100000000  0.4868360000000 1.0
C      1  0.5140290000000  0.4261050000000  0.5502070000000 1.0
C      1  0.5379750000000  0.5753550000000  0.4611810000000 1.0
C      1  0.4465220000000  0.5733390000000  0.4861070000000 1.0
C      1  0.5128680000000  0.5750790000000  0.5502450000000 1.0
C      1  0.4614290000000  0.4225840000000  0.4609280000000 1.0
C      1  0.5521980000000  0.4283830000000  0.4875200000000 1.0
C      1  0.4851300000000  0.4260970000000  0.5526280000000 1.0
C      1  0.4609900000000  0.5745420000000  0.4605600000000 1.0
C      1  0.5527410000000  0.5731000000000  0.4865220000000 1.0
C      1  0.4838010000000  0.5720840000000  0.5510120000000 1.0
C      1  0.4682440000000  0.4690270000000  0.5520800000000 1.0
C      1  0.5611070000000  0.4719430000000  0.5068080000000 1.0
C      1  0.4728000000000  0.4716440000000  0.4491370000000 1.0
C      1  0.4633660000000  0.5277950000000  0.5494060000000 1.0
C      1  0.5605820000000  0.5304620000000  0.5017280000000 1.0
C      1  0.4757790000000  0.5269610000000  0.4444320000000 1.0
C      1  0.5356560000000  0.4734880000000  0.5485990000000 1.0
C      1  0.4417370000000  0.4726870000000  0.5022890000000 1.0
C      1  0.5290430000000  0.4723570000000  0.4486120000000 1.0
C      1  0.5301040000000  0.5271040000000  0.5495510000000 1.0
C      1  0.4384490000000  0.5268040000000  0.5074480000000 1.0
C      1  0.5250170000000  0.5268550000000  0.4457460000000 1.0
C      1  0.4196010000000  0.5360800000000  0.4701040000000 1.0
C      1  0.5143640000000  0.5381040000000  0.5850690000000 1.0
C      1  0.5668540000000  0.5372880000000  0.4446570000000 1.0
C      1  0.4190740000000  0.4612940000000  0.4701680000000 1.0
C      1  0.5153490000000  0.4627740000000  0.5847740000000 1.0
C      1  0.5680780000000  0.4619240000000  0.4448630000000 1.0
C      1  0.5830850000000  0.5378120000000  0.4683410000000 1.0
C      1  0.4856170000000  0.5365030000000  0.5853040000000 1.0
C      1  0.4337520000000  0.5360490000000  0.4455590000000 1.0
C      1  0.5820740000000  0.4632600000000  0.4699280000000 1.0
C      1  0.4867010000000  0.4621110000000  0.5877500000000 1.0
C      1  0.4333770000000  0.4609510000000  0.4456300000000 1.0
C      1  0.4391870000000  0.5272580000000  0.5352710000000 1.0
C      1  0.5599510000000  0.4731450000000  0.5346120000000 1.0
C      1  0.5005940000000  0.5260020000000  0.4316790000000 1.0
END
