TITL C-86712-193-4 -0.006450468615817 125000 -613.546192567381 0 0 87 (C1) n - 1
REM
REM in /rds/project/t2_vol4/rds-t2-cs072/BORA/CARBON/from-Arr/AIRSS/Generating-Clusters/GAP-ML-2020/Higher-Symm/SD-CG/HFTN-CG
REM
REM
REM
REM
REM
REM ./C.cell (b20cbc046b6831c77cfcea5457e17084)
REM AIRSS Version 0.9.1 bugfix July 2018 build 013d7b7c2542+ Fri, 06 Jul 2018 19:26:36 +0100
REM compiler GCC version 9.3.0
REM options -cpp -mtune=generic -march=x86-64 -g -O0
REM seed 1835745359 963793486 1980476597 1286823500 1461458677 -700294555 -2002881514 1071652885 -2007718514 -397544752 -1715631825 1892558684 30191304 798033021 -1739917838 -548126266 -582328564 860153853 -784956749 1230828863 1795853485 818731467 1927188868 -1251995059 216633283 -298695918 1597004431 599207308 2042302493 317574388 1129681826 -567933887 2095125959
REM
CELL 1.54180   50.00000   50.00000   50.00000   90.00000   90.00000   90.00000
LATT -1
SFAC C  
C      1  0.4517390000000  0.5618760000000  0.4660810000000 1.0
C      1  0.5472660000000  0.5608080000000  0.4644370000000 1.0
C      1  0.5747820000000  0.4764070000000  0.4647300000000 1.0
C      1  0.5022170000000  0.4267550000000  0.4645520000000 1.0
C      1  0.4219420000000  0.4795010000000  0.4661000000000 1.0
C      1  0.5868950000000  0.4966300000000  0.5252820000000 1.0
C      1  0.5241080000000  0.4151520000000  0.5253150000000 1.0
C      1  0.4298720000000  0.4530820000000  0.5265650000000 1.0
C      1  0.4315610000000  0.5557580000000  0.5285510000000 1.0
C      1  0.5308050000000  0.5815390000000  0.5238990000000 1.0
C      1  0.5195400000000  0.4461340000000  0.4493580000000 1.0
C      1  0.4435460000000  0.4728630000000  0.4474300000000 1.0
C      1  0.4448420000000  0.5389530000000  0.4503810000000 1.0
C      1  0.5245500000000  0.5509020000000  0.4493530000000 1.0
C      1  0.5627310000000  0.4971310000000  0.4477590000000 1.0
C      1  0.5153880000000  0.4102690000000  0.4843610000000 1.0
C      1  0.4188400000000  0.4607300000000  0.4874860000000 1.0
C      1  0.4334340000000  0.5665540000000  0.4879770000000 1.0
C      1  0.5428360000000  0.5813150000000  0.4840820000000 1.0
C      1  0.5914600000000  0.4860350000000  0.4856350000000 1.0
C      1  0.5237780000000  0.5065490000000  0.5618780000000 1.0
C      1  0.5150900000000  0.4795350000000  0.5636080000000 1.0
C      1  0.4866760000000  0.4798040000000  0.5638930000000 1.0
C      1  0.4779140000000  0.5069730000000  0.5632230000000 1.0
C      1  0.5009980000000  0.5230810000000  0.5611620000000 1.0
C      1  0.4211750000000  0.5184890000000  0.5001990000000 1.0
C      1  0.4930270000000  0.5737540000000  0.4953140000000 1.0
C      1  0.5789480000000  0.5362790000000  0.4958060000000 1.0
C      1  0.5503160000000  0.4435180000000  0.4966150000000 1.0
C      1  0.4607240000000  0.4273040000000  0.4954170000000 1.0
C      1  0.5665970000000  0.4556020000000  0.5175090000000 1.0
C      1  0.4786760000000  0.4210890000000  0.5172900000000 1.0
C      1  0.4182070000000  0.4986280000000  0.5216990000000 1.0
C      1  0.4732140000000  0.5740040000000  0.5171660000000 1.0
C      1  0.5650760000000  0.5504350000000  0.5167030000000 1.0
C      1  0.4760860000000  0.5573190000000  0.5402550000000 1.0
C      1  0.5486640000000  0.5410440000000  0.5387860000000 1.0
C      1  0.5545520000000  0.4668590000000  0.5411810000000 1.0
C      1  0.4859610000000  0.4371170000000  0.5410840000000 1.0
C      1  0.4362180000000  0.4951870000000  0.5444900000000 1.0
C      1  0.5460390000000  0.4393120000000  0.4498860000000 1.0
C      1  0.4614870000000  0.4515700000000  0.4553570000000 1.0
C      1  0.4199550000000  0.5270440000000  0.4534570000000 1.0
C      1  0.5004320000000  0.5643640000000  0.4507970000000 1.0
C      1  0.5734590000000  0.5221530000000  0.4506240000000 1.0
C      1  0.5152450000000  0.4750270000000  0.4429400000000 1.0
C      1  0.4622480000000  0.4933660000000  0.4393630000000 1.0
C      1  0.4658870000000  0.5211450000000  0.4427970000000 1.0
C      1  0.5200590000000  0.5225760000000  0.4434600000000 1.0
C      1  0.5343320000000  0.4972320000000  0.4411300000000 1.0
C      1  0.5398760000000  0.4160500000000  0.5004690000000 1.0
C      1  0.4364260000000  0.4406650000000  0.5007910000000 1.0
C      1  0.4167390000000  0.5474770000000  0.5045410000000 1.0
C      1  0.5180330000000  0.5893460000000  0.4985570000000 1.0
C      1  0.5916070000000  0.5117480000000  0.5006420000000 1.0
C      1  0.4449510000000  0.4673920000000  0.5457140000000 1.0
C      1  0.4512630000000  0.5428830000000  0.5448000000000 1.0
C      1  0.5259240000000  0.5588940000000  0.5405830000000 1.0
C      1  0.5649020000000  0.4940480000000  0.5430350000000 1.0
C      1  0.5149960000000  0.4354660000000  0.5435750000000 1.0
C      1  0.4800030000000  0.5701390000000  0.4675840000000 1.0
C      1  0.5691210000000  0.5420370000000  0.4685660000000 1.0
C      1  0.5613800000000  0.4510280000000  0.4690270000000 1.0
C      1  0.4729990000000  0.4294210000000  0.4684450000000 1.0
C      1  0.4162600000000  0.5073990000000  0.4721390000000 1.0
C      1  0.5179990000000  0.4544060000000  0.4985560000000 1.0
C      1  0.4746810000000  0.4724290000000  0.4715740000000 1.0
C      1  0.4541140000000  0.5257340000000  0.4985890000000 1.0
C      1  0.5108700000000  0.5465450000000  0.4970970000000 1.0
C      1  0.5457000000000  0.5012190000000  0.4948730000000 1.0
C      1  0.5018950000000  0.4071700000000  0.5093710000000 1.0
C      1  0.4129450000000  0.4724890000000  0.5131960000000 1.0
C      1  0.4454740000000  0.5746510000000  0.5121020000000 1.0
C      1  0.5547730000000  0.5760750000000  0.5095280000000 1.0
C      1  0.5883090000000  0.4720700000000  0.5104840000000 1.0
C      1  0.4523000000000  0.5160810000000  0.5550250000000 1.0
C      1  0.5010830000000  0.5488860000000  0.5499550000000 1.0
C      1  0.5483120000000  0.5154160000000  0.5512910000000 1.0
C      1  0.5301760000000  0.4581110000000  0.5530560000000 1.0
C      1  0.4711760000000  0.4585050000000  0.5536390000000 1.0
C      1  0.5062870000000  0.4773520000000  0.5050950000000 1.0
C      1  0.4779280000000  0.4815180000000  0.4996320000000 1.0
C      1  0.4752000000000  0.5101460000000  0.5021160000000 1.0
C      1  0.5001880000000  0.5219790000000  0.4901770000000 1.0
C      1  0.5207260000000  0.5014850000000  0.5006070000000 1.0
C      1  0.4941970000000  0.5168680000000  0.4560740000000 1.0
C      1  0.4900260000000  0.4866220000000  0.4515180000000 1.0
END
