TITL C-86702-226-3 -0.37404527209539 125000 -833.717098104165 0 0 118 (C1) n - 1
REM
REM in /rds/project/t2_vol4/rds-t2-cs072/BORA/CARBON/from-Arr/AIRSS/Generating-Clusters/GAP-ML-2020/Higher-Symm/SD-CG/HFTN-CG
REM
REM
REM
REM
REM
REM ./C.cell (b20cbc046b6831c77cfcea5457e17084)
REM AIRSS Version 0.9.1 bugfix July 2018 build 013d7b7c2542+ Fri, 06 Jul 2018 19:26:36 +0100
REM compiler GCC version 9.3.0
REM options -cpp -mtune=generic -march=x86-64 -g -O0
REM seed 792226468 -156575249 -617677121 748485567 668172836 769889377 2047397876 -603028599 -787031936 -970157195 -444558188 996953406 2105279860 -1259871285 -103861368 1382851183 -1956290615 1561403583 452121201 24566328 -263779069 1820756035 1868837976 -1218861676 -347818889 967001545 -150117332 -405962184 -265178173 809137846 -1874724461 984605513 -640706709
REM
CELL 1.54180   50.00000   50.00000   50.00000   90.00000   90.00000   90.00000
LATT -1
SFAC C  
C      1  0.5166940000000  0.5023620000000  0.4456130000000 1.0
C      1  0.5858510000000  0.5102290000000  0.4715340000000 1.0
C      1  0.4357550000000  0.5293030000000  0.5599210000000 1.0
C      1  0.5354180000000  0.4528880000000  0.5350510000000 1.0
C      1  0.5597930000000  0.4166410000000  0.5264650000000 1.0
C      1  0.4272230000000  0.4387960000000  0.5016830000000 1.0
C      1  0.4728710000000  0.5305260000000  0.5880820000000 1.0
C      1  0.4306230000000  0.4622220000000  0.4497670000000 1.0
C      1  0.5197800000000  0.4832000000000  0.4193860000000 1.0
C      1  0.4044830000000  0.4787260000000  0.5118480000000 1.0
C      1  0.5176930000000  0.4701570000000  0.5872190000000 1.0
C      1  0.4674090000000  0.5152750000000  0.5134450000000 1.0
C      1  0.5044500000000  0.5178820000000  0.5415070000000 1.0
C      1  0.5834430000000  0.4833040000000  0.4576730000000 1.0
C      1  0.5685390000000  0.5554670000000  0.4666870000000 1.0
C      1  0.5435220000000  0.4662470000000  0.4323880000000 1.0
C      1  0.4533570000000  0.4519140000000  0.4354530000000 1.0
C      1  0.5233060000000  0.5431920000000  0.4749430000000 1.0
C      1  0.4982220000000  0.4543950000000  0.5723390000000 1.0
C      1  0.4098220000000  0.5065340000000  0.5169960000000 1.0
C      1  0.5562740000000  0.4934220000000  0.5594750000000 1.0
C      1  0.5321080000000  0.5747380000000  0.4416900000000 1.0
C      1  0.4958820000000  0.4249940000000  0.4502780000000 1.0
C      1  0.4504000000000  0.4232380000000  0.5098900000000 1.0
C      1  0.4036420000000  0.4738100000000  0.4843190000000 1.0
C      1  0.5012170000000  0.5877340000000  0.4784720000000 1.0
C      1  0.5478820000000  0.5105990000000  0.4464430000000 1.0
C      1  0.4398340000000  0.5109290000000  0.4354830000000 1.0
C      1  0.4311140000000  0.5619300000000  0.5155680000000 1.0
C      1  0.4709880000000  0.4147700000000  0.4922060000000 1.0
C      1  0.4973170000000  0.4657760000000  0.4238700000000 1.0
C      1  0.4721090000000  0.5112330000000  0.4680460000000 1.0
C      1  0.5895050000000  0.4735470000000  0.5027830000000 1.0
C      1  0.5232510000000  0.5233810000000  0.5166880000000 1.0
C      1  0.5388170000000  0.5514480000000  0.4263640000000 1.0
C      1  0.4920380000000  0.4247360000000  0.5335850000000 1.0
C      1  0.5479220000000  0.5941550000000  0.4822280000000 1.0
C      1  0.4964030000000  0.4220860000000  0.5041750000000 1.0
C      1  0.5470150000000  0.4702310000000  0.5786920000000 1.0
C      1  0.4897020000000  0.4728270000000  0.5207300000000 1.0
C      1  0.4661030000000  0.4275700000000  0.4420440000000 1.0
C      1  0.4844300000000  0.5633870000000  0.4394070000000 1.0
C      1  0.5346430000000  0.4491010000000  0.4551330000000 1.0
C      1  0.4390560000000  0.5373760000000  0.4497240000000 1.0
C      1  0.4652980000000  0.4999640000000  0.4258190000000 1.0
C      1  0.5183960000000  0.5351910000000  0.4132550000000 1.0
C      1  0.4582760000000  0.5602070000000  0.4508670000000 1.0
C      1  0.5782880000000  0.4643900000000  0.4783910000000 1.0
C      1  0.5038640000000  0.4906900000000  0.5988090000000 1.0
C      1  0.4079120000000  0.4970950000000  0.4699480000000 1.0
C      1  0.5215530000000  0.5081310000000  0.4047990000000 1.0
C      1  0.4934690000000  0.5397050000000  0.4269880000000 1.0
C      1  0.4755870000000  0.5794710000000  0.5199710000000 1.0
C      1  0.5798310000000  0.4891620000000  0.5425510000000 1.0
C      1  0.5418430000000  0.4171420000000  0.5070680000000 1.0
C      1  0.4968890000000  0.5676230000000  0.5622100000000 1.0
C      1  0.5399320000000  0.4896800000000  0.4875480000000 1.0
C      1  0.5595200000000  0.5248370000000  0.5602370000000 1.0
C      1  0.5334000000000  0.4474540000000  0.5056390000000 1.0
C      1  0.4290790000000  0.4845260000000  0.5569680000000 1.0
C      1  0.5599680000000  0.4482120000000  0.5696830000000 1.0
C      1  0.4961640000000  0.4701230000000  0.4760340000000 1.0
C      1  0.4871870000000  0.5144070000000  0.4405620000000 1.0
C      1  0.4999490000000  0.5754000000000  0.5347170000000 1.0
C      1  0.4492050000000  0.5552320000000  0.5567020000000 1.0
C      1  0.5194640000000  0.5556060000000  0.5735520000000 1.0
C      1  0.4110860000000  0.5183880000000  0.4884830000000 1.0
C      1  0.5034020000000  0.4544870000000  0.5010610000000 1.0
C      1  0.5430710000000  0.5416400000000  0.5758240000000 1.0
C      1  0.5059350000000  0.4885720000000  0.5384860000000 1.0
C      1  0.4704430000000  0.4837830000000  0.4795850000000 1.0
C      1  0.5825550000000  0.4648060000000  0.5296320000000 1.0
C      1  0.4211360000000  0.5100140000000  0.5437140000000 1.0
C      1  0.4229910000000  0.5399250000000  0.4742460000000 1.0
C      1  0.5481990000000  0.4607320000000  0.4814440000000 1.0
C      1  0.4516030000000  0.5147430000000  0.5791640000000 1.0
C      1  0.5842190000000  0.5364780000000  0.4545350000000 1.0
C      1  0.4668460000000  0.4858960000000  0.5082150000000 1.0
C      1  0.5223830000000  0.4212850000000  0.4617960000000 1.0
C      1  0.5153860000000  0.5264490000000  0.5718710000000 1.0
C      1  0.4765800000000  0.5838380000000  0.4912690000000 1.0
C      1  0.4698370000000  0.4721700000000  0.4229380000000 1.0
C      1  0.4192240000000  0.4524010000000  0.4757590000000 1.0
C      1  0.4164540000000  0.4550710000000  0.5226120000000 1.0
C      1  0.5373790000000  0.4977280000000  0.5145370000000 1.0
C      1  0.5212110000000  0.4118800000000  0.4891230000000 1.0
C      1  0.4972690000000  0.5162010000000  0.5923540000000 1.0
C      1  0.5838550000000  0.5120810000000  0.5251260000000 1.0
C      1  0.4635060000000  0.4266670000000  0.5359210000000 1.0
C      1  0.4236550000000  0.4906360000000  0.4470860000000 1.0
C      1  0.4726510000000  0.4130770000000  0.4642330000000 1.0
C      1  0.5441270000000  0.5461570000000  0.5157580000000 1.0
C      1  0.5624040000000  0.4851100000000  0.4394850000000 1.0
C      1  0.5250840000000  0.5879500000000  0.4953230000000 1.0
C      1  0.5250710000000  0.5721170000000  0.5195350000000 1.0
C      1  0.4798890000000  0.5269770000000  0.4906710000000 1.0
C      1  0.4544340000000  0.5743620000000  0.4753390000000 1.0
C      1  0.5642950000000  0.4425210000000  0.5411760000000 1.0
C      1  0.4325530000000  0.5621920000000  0.4887210000000 1.0
C      1  0.4686590000000  0.4614310000000  0.5715500000000 1.0
C      1  0.5146570000000  0.4948270000000  0.4746670000000 1.0
C      1  0.4529000000000  0.4445010000000  0.5549790000000 1.0
C      1  0.5039200000000  0.4539470000000  0.4504910000000 1.0
C      1  0.5931980000000  0.5024820000000  0.5000370000000 1.0
C      1  0.4507930000000  0.5696350000000  0.5321260000000 1.0
C      1  0.5670460000000  0.5334040000000  0.5340870000000 1.0
C      1  0.5084020000000  0.5240900000000  0.4892770000000 1.0
C      1  0.4288580000000  0.4581040000000  0.5471000000000 1.0
C      1  0.5539800000000  0.5795410000000  0.4604310000000 1.0
C      1  0.5341490000000  0.4820370000000  0.5382680000000 1.0
C      1  0.4514040000000  0.4860580000000  0.5744830000000 1.0
C      1  0.4778930000000  0.5237150000000  0.5367990000000 1.0
C      1  0.4727520000000  0.5551170000000  0.5724180000000 1.0
C      1  0.5097340000000  0.4398980000000  0.5497720000000 1.0
C      1  0.5049920000000  0.5796680000000  0.4511530000000 1.0
C      1  0.5506760000000  0.5407720000000  0.4856040000000 1.0
C      1  0.5560670000000  0.5124900000000  0.4762250000000 1.0
C      1  0.5602080000000  0.5354260000000  0.4378960000000 1.0
END
