TITL C-86716-166-1 -0.0459266234539324 125000 -98.7986947975331 0 0 15 (Cs) n - 1
REM
REM in /rds/project/t2_vol4/rds-t2-cs072/BORA/CARBON/from-Arr/AIRSS/Generating-Clusters/GAP-ML-2020/Higher-Symm/SD-CG/HFTN-CG
REM
REM
REM
REM
REM
REM ./C.cell (b20cbc046b6831c77cfcea5457e17084)
REM AIRSS Version 0.9.1 bugfix July 2018 build 013d7b7c2542+ Fri, 06 Jul 2018 19:26:36 +0100
REM compiler GCC version 9.3.0
REM options -cpp -mtune=generic -march=x86-64 -g -O0
REM seed 1024139351 -2081222043 2009608749 264974254 369252255 1964875792 1091891174 310266549 238705753 301950828 -1250660572 888247098 1721051388 -1050570286 1127814066 -598115580 152508864 -87005512 -711379544 779373176 108095316 959700143 -219858930 612949764 1993454759 1544753547 -1182496578 -1753123011 -238549229 1064680780 -209073437 1408958544 130769473
REM
CELL 1.54180   50.00000   50.00000   50.00000   90.00000   90.00000   90.00000
LATT -1
SFAC C  
C      1  0.5482110000000  0.4806700000000  0.5187740000000 1.0
C      1  0.4852390000000  0.4986000000000  0.5509940000000 1.0
C      1  0.5535750000000  0.4835080000000  0.4933980000000 1.0
C      1  0.5312050000000  0.4822770000000  0.5380830000000 1.0
C      1  0.5272320000000  0.4918700000000  0.4512210000000 1.0
C      1  0.4493870000000  0.5014900000000  0.4918740000000 1.0
C      1  0.5085300000000  0.4886390000000  0.5492760000000 1.0
C      1  0.4870180000000  0.5340210000000  0.5209920000000 1.0
C      1  0.4587970000000  0.4980100000000  0.4678060000000 1.0
C      1  0.4706250000000  0.5155530000000  0.5337480000000 1.0
C      1  0.5047490000000  0.5405500000000  0.5041850000000 1.0
C      1  0.4771950000000  0.4961010000000  0.4498490000000 1.0
C      1  0.5025490000000  0.4945950000000  0.4438740000000 1.0
C      1  0.5456760000000  0.4878630000000  0.4691220000000 1.0
C      1  0.4500130000000  0.5062540000000  0.5168050000000 1.0
END
