TITL C-86708-168-4 77.0055995580315 125000 -863.335933904347 0 0 121 (C2) n - 1
REM
REM in /rds/project/t2_vol4/rds-t2-cs072/BORA/CARBON/from-Arr/AIRSS/Generating-Clusters/GAP-ML-2020/Higher-Symm/SD-CG/HFTN-CG
REM
REM
REM
REM
REM
REM ./C.cell (b20cbc046b6831c77cfcea5457e17084)
REM AIRSS Version 0.9.1 bugfix July 2018 build 013d7b7c2542+ Fri, 06 Jul 2018 19:26:36 +0100
REM compiler GCC version 9.3.0
REM options -cpp -mtune=generic -march=x86-64 -g -O0
REM seed -1421586874 -1368906511 -1484841919 -185586254 -931724898 1904104961 -1061399842 1741629133 624404503 1377534010 1146457294 -314830457 886261793 1522709962 785400052 1059993898 1334686302 2048118861 1648058512 961618289 1933588613 1258263803 -742723503 1927500894 -343252021 -1987407422 1285938206 413613307 61722486 1778100095 -1516786882 2000868376 1730155214
REM
CELL 1.54180   50.00000   50.00000   50.00000   90.00000   90.00000   90.00000
LATT -1
SFAC C  
C      1  0.4826370000000  0.4249270000000  0.4420560000000 1.0
C      1  0.5594510000000  0.4239220000000  0.4842510000000 1.0
C      1  0.5170400000000  0.4249560000000  0.5584710000000 1.0
C      1  0.4402220000000  0.4242390000000  0.5162780000000 1.0
C      1  0.5151630000000  0.5747310000000  0.4391050000000 1.0
C      1  0.4394470000000  0.5756920000000  0.4849610000000 1.0
C      1  0.4852340000000  0.5749190000000  0.5611360000000 1.0
C      1  0.5609530000000  0.5754290000000  0.5152780000000 1.0
C      1  0.5192910000000  0.5286490000000  0.4739480000000 1.0
C      1  0.5258720000000  0.5284770000000  0.5201660000000 1.0
C      1  0.4808850000000  0.5287910000000  0.5263810000000 1.0
C      1  0.4743030000000  0.5285620000000  0.4801630000000 1.0
C      1  0.4741480000000  0.4721210000000  0.4809010000000 1.0
C      1  0.4773860000000  0.4719520000000  0.5289460000000 1.0
C      1  0.5257560000000  0.4720340000000  0.5195360000000 1.0
C      1  0.5225170000000  0.4717880000000  0.4714910000000 1.0
C      1  0.5812050000000  0.4560850000000  0.5116600000000 1.0
C      1  0.4899130000000  0.4584150000000  0.5755830000000 1.0
C      1  0.4186230000000  0.4564540000000  0.4888080000000 1.0
C      1  0.5099250000000  0.4582230000000  0.4248800000000 1.0
C      1  0.4205360000000  0.5434920000000  0.5135610000000 1.0
C      1  0.5143820000000  0.5426830000000  0.5801910000000 1.0
C      1  0.5797100000000  0.5430840000000  0.4867400000000 1.0
C      1  0.4858610000000  0.5425990000000  0.4201110000000 1.0
C      1  0.5530190000000  0.5751290000000  0.4655960000000 1.0
C      1  0.5346210000000  0.5753380000000  0.5532090000000 1.0
C      1  0.4473800000000  0.5754490000000  0.5346430000000 1.0
C      1  0.4657780000000  0.5754020000000  0.4470310000000 1.0
C      1  0.4442000000000  0.4235340000000  0.4670410000000 1.0
C      1  0.4662000000000  0.4237810000000  0.5546010000000 1.0
C      1  0.5554700000000  0.4233300000000  0.5334880000000 1.0
C      1  0.5334710000000  0.4235160000000  0.4459290000000 1.0
C      1  0.4157560000000  0.4881370000000  0.5320260000000 1.0
C      1  0.4664770000000  0.4883090000000  0.4182620000000 1.0
C      1  0.5842240000000  0.4876710000000  0.4683800000000 1.0
C      1  0.5335050000000  0.4883050000000  0.5821440000000 1.0
C      1  0.5845800000000  0.5110530000000  0.5294430000000 1.0
C      1  0.5316640000000  0.5123330000000  0.4170350000000 1.0
C      1  0.4155120000000  0.5114030000000  0.4709190000000 1.0
C      1  0.4684340000000  0.5126440000000  0.5833240000000 1.0
C      1  0.5721650000000  0.4947270000000  0.5474460000000 1.0
C      1  0.4527560000000  0.4966780000000  0.5674760000000 1.0
C      1  0.4278480000000  0.4949830000000  0.4529470000000 1.0
C      1  0.5472650000000  0.4963220000000  0.4329140000000 1.0
C      1  0.4292040000000  0.5054230000000  0.5486480000000 1.0
C      1  0.5509340000000  0.5049640000000  0.5696000000000 1.0
C      1  0.5708590000000  0.5049900000000  0.4517260000000 1.0
C      1  0.4491280000000  0.5050760000000  0.4307740000000 1.0
C      1  0.4581660000000  0.5329750000000  0.4278140000000 1.0
C      1  0.5727860000000  0.5329270000000  0.4596330000000 1.0
C      1  0.5420300000000  0.5329120000000  0.5725060000000 1.0
C      1  0.4274110000000  0.5333530000000  0.5406880000000 1.0
C      1  0.5348510000000  0.4700390000000  0.4400480000000 1.0
C      1  0.4255680000000  0.4668780000000  0.4614080000000 1.0
C      1  0.4650430000000  0.4703220000000  0.5603930000000 1.0
C      1  0.5743100000000  0.4665950000000  0.5390400000000 1.0
C      1  0.5703700000000  0.5549980000000  0.5321500000000 1.0
C      1  0.4681530000000  0.5545160000000  0.5705370000000 1.0
C      1  0.4299330000000  0.5552740000000  0.4681290000000 1.0
C      1  0.5321460000000  0.5542270000000  0.4297430000000 1.0
C      1  0.4309290000000  0.4446350000000  0.5330040000000 1.0
C      1  0.5343190000000  0.4453030000000  0.5676610000000 1.0
C      1  0.5688420000000  0.4442410000000  0.4674860000000 1.0
C      1  0.4654560000000  0.4453390000000  0.4328270000000 1.0
C      1  0.4167160000000  0.5346170000000  0.4846940000000 1.0
C      1  0.5153790000000  0.5340480000000  0.4159010000000 1.0
C      1  0.5834870000000  0.5342460000000  0.5156230000000 1.0
C      1  0.4848230000000  0.5342820000000  0.5844170000000 1.0
C      1  0.5841280000000  0.4646630000000  0.4826220000000 1.0
C      1  0.4815020000000  0.4658830000000  0.4189940000000 1.0
C      1  0.4157420000000  0.4651010000000  0.5178290000000 1.0
C      1  0.5183720000000  0.4659500000000  0.5814540000000 1.0
C      1  0.4967150000000  0.4869380000000  0.4717360000000 1.0
C      1  0.5357280000000  0.4853410000000  0.4952320000000 1.0
C      1  0.5032600000000  0.4869770000000  0.5286730000000 1.0
C      1  0.4642400000000  0.4855220000000  0.5051790000000 1.0
C      1  0.4951690000000  0.5153950000000  0.4651810000000 1.0
C      1  0.4706310000000  0.5136440000000  0.5042960000000 1.0
C      1  0.5049430000000  0.5154380000000  0.5351730000000 1.0
C      1  0.5294720000000  0.5134950000000  0.4960620000000 1.0
C      1  0.5534570000000  0.5542430000000  0.5562840000000 1.0
C      1  0.4441630000000  0.5539570000000  0.5529830000000 1.0
C      1  0.4468420000000  0.5543920000000  0.4439960000000 1.0
C      1  0.5561330000000  0.5535870000000  0.4472980000000 1.0
C      1  0.4482480000000  0.4458120000000  0.5559700000000 1.0
C      1  0.5584540000000  0.4453710000000  0.5514320000000 1.0
C      1  0.5515290000000  0.4454570000000  0.4445180000000 1.0
C      1  0.4413220000000  0.4455540000000  0.4490560000000 1.0
C      1  0.4328290000000  0.5691350000000  0.5115180000000 1.0
C      1  0.4885070000000  0.5684600000000  0.4320790000000 1.0
C      1  0.5675400000000  0.5687900000000  0.4887330000000 1.0
C      1  0.5118600000000  0.5685340000000  0.5681740000000 1.0
C      1  0.5693360000000  0.4300440000000  0.5100230000000 1.0
C      1  0.5089680000000  0.4313100000000  0.4338920000000 1.0
C      1  0.4303670000000  0.4303590000000  0.4904940000000 1.0
C      1  0.4907410000000  0.4314810000000  0.5666220000000 1.0
C      1  0.5125090000000  0.6038780000000  0.4832020000000 1.0
C      1  0.5171020000000  0.6039960000000  0.5123120000000 1.0
C      1  0.4880280000000  0.6039690000000  0.5169830000000 1.0
C      1  0.4834360000000  0.6040540000000  0.4878720000000 1.0
C      1  0.4861640000000  0.3960930000000  0.4845680000000 1.0
C      1  0.4840770000000  0.3959140000000  0.5139220000000 1.0
C      1  0.5133750000000  0.3960580000000  0.5160140000000 1.0
C      1  0.5154600000000  0.3958120000000  0.4866600000000 1.0
C      1  0.5269340000000  0.4164190000000  0.5317940000000 1.0
C      1  0.4673630000000  0.4161590000000  0.5262790000000 1.0
C      1  0.4727020000000  0.4164890000000  0.4687500000000 1.0
C      1  0.5322720000000  0.4159540000000  0.4742650000000 1.0
C      1  0.4760580000000  0.5828170000000  0.5338410000000 1.0
C      1  0.5337340000000  0.5829820000000  0.5245200000000 1.0
C      1  0.5243780000000  0.5826370000000  0.4663840000000 1.0
C      1  0.4667020000000  0.5830970000000  0.4757050000000 1.0
C      1  0.4826830000000  0.5564690000000  0.4871100000000 1.0
C      1  0.5132600000000  0.5564540000000  0.4827530000000 1.0
C      1  0.5176260000000  0.5564100000000  0.5131660000000 1.0
C      1  0.4870500000000  0.5565500000000  0.5175220000000 1.0
C      1  0.5147090000000  0.4447260000000  0.4835890000000 1.0
C      1  0.4837660000000  0.4451570000000  0.4863770000000 1.0
C      1  0.4850640000000  0.4448290000000  0.5169010000000 1.0
C      1  0.5160080000000  0.4451060000000  0.5141110000000 1.0
C      1  0.5000120000000  0.4969220000000  0.5001950000000 1.0
END
