TITL C-86693-246-7 161.632949165531 125000 -86.6977744969493 0 0 14 (C3) n - 1
REM
REM in /rds/project/t2_vol4/rds-t2-cs072/BORA/CARBON/from-Arr/AIRSS/Generating-Clusters/GAP-ML-2020/Higher-Symm/SD-CG/HFTN-CG
REM
REM
REM
REM
REM
REM ./C.cell (b20cbc046b6831c77cfcea5457e17084)
REM AIRSS Version 0.9.1 bugfix July 2018 build 013d7b7c2542+ Fri, 06 Jul 2018 19:26:36 +0100
REM compiler GCC version 9.3.0
REM options -cpp -mtune=generic -march=x86-64 -g -O0
REM seed -14875228 -673845885 666891217 -824084798 -316222370 -1802998440 -1812714632 1051200229 180220673 -474232815 1798115968 175687730 -810389445 -823204951 883379366 1275950828 -866885605 -1404916141 -1750749278 -1285742002 -178709633 421624325 -1257501431 10843156 215624267 -1941823789 -145270883 -763211006 1952698366 1640416618 -1397187990 -1654121488 -1935780139
REM
CELL 1.54180   50.00000   50.00000   50.00000   90.00000   90.00000   90.00000
LATT -1
SFAC C  
C      1  0.4740790000000  0.5179640000000  0.4891490000000 1.0
C      1  0.5178880000000  0.5179590000000  0.4840350000000 1.0
C      1  0.5004120000000  0.5179590000000  0.5245310000000 1.0
C      1  0.5213990000000  0.4782750000000  0.5095690000000 1.0
C      1  0.4765350000000  0.4782800000000  0.5148060000000 1.0
C      1  0.4944320000000  0.4782790000000  0.4733350000000 1.0
C      1  0.4792400000000  0.5019500000000  0.5300960000000 1.0
C      1  0.4798420000000  0.5019530000000  0.4680310000000 1.0
C      1  0.5332920000000  0.5019450000000  0.4995860000000 1.0
C      1  0.4626680000000  0.5019530000000  0.5078290000000 1.0
C      1  0.5074120000000  0.5019500000000  0.4648120000000 1.0
C      1  0.5222940000000  0.5019460000000  0.5250710000000 1.0
C      1  0.4974610000000  0.5303700000000  0.4992390000000 1.0
C      1  0.4974550000000  0.4725430000000  0.4992360000000 1.0
END
