TITL C-86712-193-3 -46.8287367421543 125000 -326.988577910169 0 0 48 (C2) n - 1
REM
REM in /rds/project/t2_vol4/rds-t2-cs072/BORA/CARBON/from-Arr/AIRSS/Generating-Clusters/GAP-ML-2020/Higher-Symm/SD-CG/HFTN-CG
REM
REM
REM
REM
REM
REM ./C.cell (b20cbc046b6831c77cfcea5457e17084)
REM AIRSS Version 0.9.1 bugfix July 2018 build 013d7b7c2542+ Fri, 06 Jul 2018 19:26:36 +0100
REM compiler GCC version 9.3.0
REM options -cpp -mtune=generic -march=x86-64 -g -O0
REM seed -1292474678 -203466329 1227022932 1085762571 -183173905 877898455 -505877287 1763090199 1346659370 1721392393 -1293999747 1239891389 235543389 -437010998 1276602135 -661437420 -941111488 -1799453931 1044744109 -1088405834 1293334529 -2053212750 554242818 1313879304 -163361698 137204377 -1367828259 -1346398256 1115310188 -1209589288 992803623 -1649019583 -34734161
REM
CELL 1.54180   50.00000   50.00000   50.00000   90.00000   90.00000   90.00000
LATT -1
SFAC C  
C      1  0.4990630000000  0.5067210000000  0.5145220000000 1.0
C      1  0.5009340000000  0.5067480000000  0.4854900000000 1.0
C      1  0.4720300000000  0.5482220000000  0.5202200000000 1.0
C      1  0.5279470000000  0.5482730000000  0.4798690000000 1.0
C      1  0.5173790000000  0.5302540000000  0.5488240000000 1.0
C      1  0.4826070000000  0.5303360000000  0.4512320000000 1.0
C      1  0.4798560000000  0.4852740000000  0.4870760000000 1.0
C      1  0.5201510000000  0.4852600000000  0.5128970000000 1.0
C      1  0.5498400000000  0.5073680000000  0.4792960000000 1.0
C      1  0.4501570000000  0.5073060000000  0.5207180000000 1.0
C      1  0.5677190000000  0.4857170000000  0.4784010000000 1.0
C      1  0.4322880000000  0.4856450000000  0.5215720000000 1.0
C      1  0.4603900000000  0.5443370000000  0.4935820000000 1.0
C      1  0.5395890000000  0.5443440000000  0.5065000000000 1.0
C      1  0.4977140000000  0.5574060000000  0.5142540000000 1.0
C      1  0.5022590000000  0.5574330000000  0.4858520000000 1.0
C      1  0.4576300000000  0.4667500000000  0.4591680000000 1.0
C      1  0.5423860000000  0.4666940000000  0.5407700000000 1.0
C      1  0.4668570000000  0.5268230000000  0.5385910000000 1.0
C      1  0.5331310000000  0.5269090000000  0.4614590000000 1.0
C      1  0.5660940000000  0.4692770000000  0.5003700000000 1.0
C      1  0.4339210000000  0.4692470000000  0.4995740000000 1.0
C      1  0.5262330000000  0.4902040000000  0.4848770000000 1.0
C      1  0.4737710000000  0.4901630000000  0.5151050000000 1.0
C      1  0.4436290000000  0.5226690000000  0.4937130000000 1.0
C      1  0.5563610000000  0.5226840000000  0.5063290000000 1.0
C      1  0.4690220000000  0.4464980000000  0.4776190000000 1.0
C      1  0.5310030000000  0.4464710000000  0.5222830000000 1.0
C      1  0.4736440000000  0.4851500000000  0.4440740000000 1.0
C      1  0.5263630000000  0.4850590000000  0.5558980000000 1.0
C      1  0.5017380000000  0.4869630000000  0.4454150000000 1.0
C      1  0.4982680000000  0.4868610000000  0.5545610000000 1.0
C      1  0.4917840000000  0.5160970000000  0.5511470000000 1.0
C      1  0.5082080000000  0.5161960000000  0.4488830000000 1.0
C      1  0.5587090000000  0.5081620000000  0.5307480000000 1.0
C      1  0.4412870000000  0.5081910000000  0.4692670000000 1.0
C      1  0.4619590000000  0.5112670000000  0.4492400000000 1.0
C      1  0.5380350000000  0.5111910000000  0.5507810000000 1.0
C      1  0.5045970000000  0.4575790000000  0.5143580000000 1.0
C      1  0.4954230000000  0.4576030000000  0.4855640000000 1.0
C      1  0.4855740000000  0.4703490000000  0.5338180000000 1.0
C      1  0.5144410000000  0.4704180000000  0.4661280000000 1.0
C      1  0.5483660000000  0.4476260000000  0.5008150000000 1.0
C      1  0.4516590000000  0.4476050000000  0.4990880000000 1.0
C      1  0.5206640000000  0.5491220000000  0.5278520000000 1.0
C      1  0.4793120000000  0.5491630000000  0.4722390000000 1.0
C      1  0.4363730000000  0.4801940000000  0.4724230000000 1.0
C      1  0.5636360000000  0.4801730000000  0.5275410000000 1.0
END
