TITL C-86697-241-6 0.0709140408259634 125000 -728.045569090663 0 0 103 (C1) n - 1
REM
REM in /rds/project/t2_vol4/rds-t2-cs072/BORA/CARBON/from-Arr/AIRSS/Generating-Clusters/GAP-ML-2020/Higher-Symm/SD-CG/HFTN-CG
REM
REM
REM
REM
REM
REM ./C.cell (b20cbc046b6831c77cfcea5457e17084)
REM AIRSS Version 0.9.1 bugfix July 2018 build 013d7b7c2542+ Fri, 06 Jul 2018 19:26:36 +0100
REM compiler GCC version 9.3.0
REM options -cpp -mtune=generic -march=x86-64 -g -O0
REM seed -1260662021 -1484755775 2054730127 97915249 -1695917295 2072166988 1663694400 -1321924559 -902426536 515429266 -2056211476 -1837512525 325858688 542906221 -402400535 68558075 -1520660271 1832125413 -1327503493 1037198047 2030083567 -189556401 547611955 -37478045 -2082690621 1226126421 -656449371 667719681 -1580547913 762079336 -383614046 1513825759 1892961297
REM
CELL 1.54180   50.00000   50.00000   50.00000   90.00000   90.00000   90.00000
LATT -1
SFAC C  
C      1  0.4689560000000  0.4589280000000  0.5747360000000 1.0
C      1  0.4261190000000  0.4631690000000  0.4949680000000 1.0
C      1  0.4818820000000  0.4619290000000  0.4258270000000 1.0
C      1  0.5643410000000  0.4611180000000  0.4617280000000 1.0
C      1  0.5613030000000  0.4579260000000  0.5544880000000 1.0
C      1  0.5276540000000  0.5374530000000  0.5679100000000 1.0
C      1  0.5730400000000  0.5363640000000  0.4941170000000 1.0
C      1  0.5178650000000  0.5386400000000  0.4259070000000 1.0
C      1  0.4344390000000  0.5412610000000  0.4615550000000 1.0
C      1  0.4424810000000  0.5394980000000  0.5493330000000 1.0
C      1  0.5330810000000  0.4797560000000  0.4988020000000 1.0
C      1  0.5155650000000  0.4798050000000  0.5214310000000 1.0
C      1  0.4887740000000  0.4773770000000  0.5176070000000 1.0
C      1  0.4782880000000  0.4739630000000  0.4916060000000 1.0
C      1  0.4969600000000  0.4809960000000  0.4703210000000 1.0
C      1  0.4740900000000  0.5355510000000  0.4917720000000 1.0
C      1  0.4837940000000  0.5331090000000  0.5185750000000 1.0
C      1  0.5119310000000  0.5287200000000  0.5186960000000 1.0
C      1  0.5199350000000  0.5254470000000  0.4885430000000 1.0
C      1  0.4958680000000  0.5349510000000  0.4738590000000 1.0
C      1  0.4935400000000  0.4300000000000  0.4638650000000 1.0
C      1  0.5318140000000  0.4293030000000  0.4867920000000 1.0
C      1  0.5311050000000  0.4227210000000  0.5362470000000 1.0
C      1  0.4771840000000  0.4220930000000  0.5409430000000 1.0
C      1  0.4573440000000  0.4267700000000  0.4924840000000 1.0
C      1  0.5062490000000  0.5776840000000  0.4543700000000 1.0
C      1  0.4626150000000  0.5800400000000  0.4794790000000 1.0
C      1  0.4704570000000  0.5789510000000  0.5317820000000 1.0
C      1  0.5192060000000  0.5743260000000  0.5365670000000 1.0
C      1  0.5404620000000  0.5737000000000  0.4916900000000 1.0
C      1  0.4801310000000  0.5077470000000  0.4114650000000 1.0
C      1  0.5781820000000  0.5061260000000  0.4542050000000 1.0
C      1  0.5670300000000  0.5063660000000  0.5601200000000 1.0
C      1  0.4635710000000  0.5073020000000  0.5834500000000 1.0
C      1  0.4087790000000  0.5082590000000  0.4920420000000 1.0
C      1  0.5199160000000  0.4920280000000  0.4110060000000 1.0
C      1  0.4215960000000  0.4940840000000  0.4546280000000 1.0
C      1  0.4317780000000  0.4930470000000  0.5610390000000 1.0
C      1  0.5352060000000  0.4916900000000  0.5832640000000 1.0
C      1  0.5899920000000  0.4906600000000  0.4925970000000 1.0
C      1  0.5265130000000  0.4460240000000  0.4407740000000 1.0
C      1  0.5660470000000  0.4431310000000  0.5098790000000 1.0
C      1  0.5132990000000  0.4416160000000  0.5688060000000 1.0
C      1  0.4408870000000  0.4425720000000  0.5349080000000 1.0
C      1  0.4504430000000  0.4465840000000  0.4551910000000 1.0
C      1  0.4716560000000  0.5581800000000  0.4386240000000 1.0
C      1  0.4317090000000  0.5598480000000  0.5092550000000 1.0
C      1  0.4865260000000  0.5561500000000  0.5647260000000 1.0
C      1  0.5563180000000  0.5545460000000  0.5316740000000 1.0
C      1  0.5488280000000  0.5552630000000  0.4547100000000 1.0
C      1  0.5072210000000  0.5179960000000  0.4112970000000 1.0
C      1  0.5859470000000  0.5165970000000  0.4801210000000 1.0
C      1  0.5453220000000  0.5177770000000  0.5752910000000 1.0
C      1  0.4420840000000  0.5194400000000  0.5683370000000 1.0
C      1  0.4174330000000  0.5201590000000  0.4670320000000 1.0
C      1  0.4926170000000  0.4815270000000  0.4094060000000 1.0
C      1  0.4127460000000  0.4821200000000  0.4797490000000 1.0
C      1  0.4528630000000  0.4812190000000  0.5768760000000 1.0
C      1  0.5580150000000  0.4806430000000  0.5696060000000 1.0
C      1  0.5836680000000  0.4801190000000  0.4662010000000 1.0
C      1  0.5320980000000  0.5788180000000  0.4644310000000 1.0
C      1  0.5419330000000  0.5779430000000  0.5189730000000 1.0
C      1  0.4950910000000  0.5796420000000  0.5486440000000 1.0
C      1  0.4443830000000  0.5837530000000  0.5217590000000 1.0
C      1  0.4771630000000  0.5814180000000  0.4559310000000 1.0
C      1  0.4660670000000  0.4234570000000  0.4647560000000 1.0
C      1  0.4576430000000  0.4229540000000  0.5188910000000 1.0
C      1  0.5040550000000  0.4231460000000  0.5472190000000 1.0
C      1  0.5458400000000  0.4226940000000  0.5124940000000 1.0
C      1  0.5237600000000  0.4241640000000  0.4587390000000 1.0
C      1  0.5448290000000  0.5369400000000  0.4340130000000 1.0
C      1  0.5747140000000  0.5358950000000  0.5221640000000 1.0
C      1  0.5015470000000  0.5369670000000  0.5784260000000 1.0
C      1  0.4252910000000  0.5383620000000  0.5264790000000 1.0
C      1  0.4511400000000  0.5391790000000  0.4385140000000 1.0
C      1  0.4546780000000  0.4641020000000  0.4342700000000 1.0
C      1  0.4255020000000  0.4634420000000  0.5234090000000 1.0
C      1  0.4970070000000  0.4617980000000  0.5798570000000 1.0
C      1  0.5754040000000  0.4605420000000  0.5296280000000 1.0
C      1  0.5486500000000  0.4628410000000  0.4381170000000 1.0
C      1  0.4458720000000  0.5555340000000  0.4842030000000 1.0
C      1  0.4991220000000  0.5494710000000  0.4448270000000 1.0
C      1  0.5479260000000  0.5449220000000  0.4825340000000 1.0
C      1  0.5292500000000  0.5451610000000  0.5399370000000 1.0
C      1  0.4692910000000  0.5483180000000  0.5423600000000 1.0
C      1  0.5509980000000  0.4544890000000  0.4871070000000 1.0
C      1  0.4997950000000  0.4564250000000  0.4481960000000 1.0
C      1  0.4521220000000  0.4562210000000  0.4839040000000 1.0
C      1  0.4597860000000  0.4398560000000  0.5565010000000 1.0
C      1  0.5401370000000  0.4397340000000  0.5581110000000 1.0
C      1  0.5444580000000  0.4879160000000  0.4245500000000 1.0
C      1  0.5847780000000  0.4863020000000  0.5199800000000 1.0
C      1  0.5075510000000  0.4876330000000  0.5856760000000 1.0
C      1  0.4207940000000  0.4889830000000  0.5356440000000 1.0
C      1  0.4417980000000  0.4898930000000  0.4355660000000 1.0
C      1  0.4562430000000  0.5132530000000  0.4261660000000 1.0
C      1  0.4148890000000  0.5125700000000  0.5191710000000 1.0
C      1  0.4909170000000  0.5114470000000  0.5862690000000 1.0
C      1  0.5789100000000  0.5104490000000  0.5351210000000 1.0
C      1  0.5582690000000  0.5113420000000  0.4347520000000 1.0
C      1  0.4667640000000  0.5911290000000  0.5051980000000 1.0
C      1  0.5032850000000  0.4306640000000  0.4909850000000 1.0
C      1  0.5205410000000  0.4965910000000  0.4791080000000 1.0
END
