TITL C-86705-294-10 -4.14597419949442 125000 -381.566684619196 0 0 56 (C1) n - 1
REM
REM in /rds/project/t2_vol4/rds-t2-cs072/BORA/CARBON/from-Arr/AIRSS/Generating-Clusters/GAP-ML-2020/Higher-Symm/SD-CG/HFTN-CG
REM
REM
REM
REM
REM
REM ./C.cell (b20cbc046b6831c77cfcea5457e17084)
REM AIRSS Version 0.9.1 bugfix July 2018 build 013d7b7c2542+ Fri, 06 Jul 2018 19:26:36 +0100
REM compiler GCC version 9.3.0
REM options -cpp -mtune=generic -march=x86-64 -g -O0
REM seed 939985804 -1582219599 16629415 129426475 -1778640432 -61096684 -732672452 282610014 1918586015 475766863 656384037 766571496 1743375470 -999787471 -112677146 728721620 -1748585537 -764898667 1870074794 2050325463 -1102503587 -200478132 377084639 -544539759 1434218368 720085560 1453764440 2052320059 1198042886 471310629 -746105057 433793502 8077124
REM
CELL 1.54180   50.00000   50.00000   50.00000   90.00000   90.00000   90.00000
LATT -1
SFAC C  
C      1  0.5142690000000  0.4889460000000  0.5394780000000 1.0
C      1  0.5022800000000  0.5300750000000  0.4390270000000 1.0
C      1  0.4674580000000  0.4836710000000  0.5260510000000 1.0
C      1  0.4722400000000  0.5179540000000  0.4938020000000 1.0
C      1  0.5074090000000  0.5134130000000  0.5260320000000 1.0
C      1  0.4441230000000  0.5101340000000  0.4963200000000 1.0
C      1  0.5005430000000  0.4605500000000  0.5699630000000 1.0
C      1  0.4786400000000  0.5404280000000  0.4760840000000 1.0
C      1  0.4777500000000  0.5128670000000  0.5228180000000 1.0
C      1  0.5569890000000  0.5074360000000  0.5264410000000 1.0
C      1  0.5563910000000  0.5336600000000  0.4883800000000 1.0
C      1  0.5252980000000  0.4590420000000  0.4799190000000 1.0
C      1  0.4534020000000  0.4794640000000  0.4521620000000 1.0
C      1  0.4770980000000  0.4493620000000  0.4814100000000 1.0
C      1  0.5722880000000  0.4881310000000  0.4581250000000 1.0
C      1  0.5460340000000  0.4582760000000  0.5223070000000 1.0
C      1  0.5154850000000  0.5598190000000  0.5040810000000 1.0
C      1  0.5662670000000  0.4846940000000  0.4846000000000 1.0
C      1  0.4619540000000  0.5058450000000  0.4424490000000 1.0
C      1  0.5667570000000  0.5088980000000  0.5004900000000 1.0
C      1  0.5427420000000  0.5481670000000  0.5085660000000 1.0
C      1  0.5202670000000  0.4633500000000  0.4518070000000 1.0
C      1  0.4754820000000  0.5298890000000  0.4499550000000 1.0
C      1  0.4940370000000  0.4680150000000  0.5247070000000 1.0
C      1  0.5296110000000  0.4389260000000  0.5347290000000 1.0
C      1  0.4595080000000  0.5121290000000  0.5622490000000 1.0
C      1  0.5501410000000  0.5028740000000  0.4508740000000 1.0
C      1  0.4811100000000  0.5524430000000  0.5430740000000 1.0
C      1  0.5211250000000  0.5428390000000  0.4569120000000 1.0
C      1  0.4845210000000  0.4320130000000  0.4624360000000 1.0
C      1  0.5053150000000  0.4467190000000  0.5453270000000 1.0
C      1  0.4992020000000  0.5365670000000  0.5613370000000 1.0
C      1  0.4592070000000  0.5308610000000  0.5380330000000 1.0
C      1  0.5429110000000  0.4838470000000  0.5352260000000 1.0
C      1  0.5455330000000  0.5333240000000  0.5329950000000 1.0
C      1  0.4355190000000  0.5242110000000  0.5194690000000 1.0
C      1  0.4230630000000  0.4948310000000  0.5416450000000 1.0
C      1  0.4483810000000  0.4875970000000  0.5490810000000 1.0
C      1  0.4952210000000  0.4959040000000  0.4864890000000 1.0
C      1  0.5220390000000  0.5293720000000  0.5469400000000 1.0
C      1  0.4544500000000  0.4673400000000  0.4780800000000 1.0
C      1  0.5281780000000  0.4882990000000  0.4389600000000 1.0
C      1  0.4946190000000  0.4514730000000  0.4454080000000 1.0
C      1  0.4963090000000  0.5635480000000  0.5234080000000 1.0
C      1  0.4117200000000  0.5165620000000  0.5300010000000 1.0
C      1  0.4495970000000  0.4816510000000  0.5007720000000 1.0
C      1  0.5071290000000  0.5041240000000  0.4281500000000 1.0
C      1  0.4986320000000  0.4655210000000  0.4950800000000 1.0
C      1  0.4863970000000  0.5121580000000  0.5710210000000 1.0
C      1  0.4740750000000  0.4669520000000  0.4328760000000 1.0
C      1  0.5051960000000  0.5533760000000  0.4782590000000 1.0
C      1  0.4816430000000  0.4923420000000  0.4247850000000 1.0
C      1  0.5463410000000  0.5305360000000  0.4619650000000 1.0
C      1  0.5494890000000  0.4623780000000  0.4939820000000 1.0
C      1  0.5019530000000  0.4878700000000  0.5673390000000 1.0
C      1  0.5166610000000  0.5093270000000  0.4981230000000 1.0
END
