TITL C-86697-241-9 -35.1412768711437 125000 -212.033280018583 0 0 32 (C1) n - 1
REM
REM in /rds/project/t2_vol4/rds-t2-cs072/BORA/CARBON/from-Arr/AIRSS/Generating-Clusters/GAP-ML-2020/Higher-Symm/SD-CG/HFTN-CG
REM
REM
REM
REM
REM
REM ./C.cell (b20cbc046b6831c77cfcea5457e17084)
REM AIRSS Version 0.9.1 bugfix July 2018 build 013d7b7c2542+ Fri, 06 Jul 2018 19:26:36 +0100
REM compiler GCC version 9.3.0
REM options -cpp -mtune=generic -march=x86-64 -g -O0
REM seed -698731759 -592137172 96791752 -138738805 -432371862 -735970149 630930271 1539632564 -1342447079 -1487473134 317402855 1449160608 1155377873 -1252838768 -630788660 1141100209 1109602408 -1670268328 1914402277 -1067256817 -1320006800 -1846180912 -1544739521 1616279596 -2140112603 1997008864 1086203449 -1162064095 -1801120807 -832722272 1933653468 1770114144 233705068
REM
CELL 1.54180   50.00000   50.00000   50.00000   90.00000   90.00000   90.00000
LATT -1
SFAC C  
C      1  0.5000340000000  0.5337590000000  0.4625010000000 1.0
C      1  0.5254980000000  0.4906750000000  0.4613910000000 1.0
C      1  0.4796230000000  0.4948180000000  0.4451850000000 1.0
C      1  0.5018120000000  0.5328020000000  0.5435130000000 1.0
C      1  0.5257660000000  0.4894540000000  0.5453190000000 1.0
C      1  0.4793550000000  0.4950380000000  0.5595540000000 1.0
C      1  0.5473060000000  0.5020430000000  0.5309970000000 1.0
C      1  0.4701780000000  0.4616880000000  0.5278930000000 1.0
C      1  0.4772840000000  0.5362330000000  0.5282090000000 1.0
C      1  0.5460940000000  0.5033440000000  0.4768710000000 1.0
C      1  0.4701660000000  0.4615930000000  0.4768350000000 1.0
C      1  0.4742230000000  0.5364120000000  0.4757230000000 1.0
C      1  0.4650730000000  0.5112970000000  0.5169710000000 1.0
C      1  0.5419880000000  0.5286380000000  0.5194190000000 1.0
C      1  0.4978110000000  0.4570970000000  0.5175700000000 1.0
C      1  0.4638150000000  0.5113670000000  0.4878410000000 1.0
C      1  0.5401880000000  0.5291600000000  0.4897570000000 1.0
C      1  0.4979460000000  0.4569200000000  0.4869510000000 1.0
C      1  0.5622360000000  0.4846560000000  0.5149460000000 1.0
C      1  0.4506240000000  0.4464850000000  0.5153690000000 1.0
C      1  0.4751430000000  0.5566710000000  0.5099670000000 1.0
C      1  0.5639690000000  0.4855310000000  0.4898550000000 1.0
C      1  0.4507900000000  0.4464470000000  0.4897000000000 1.0
C      1  0.4675200000000  0.5613350000000  0.4863580000000 1.0
C      1  0.4655430000000  0.4886850000000  0.4685290000000 1.0
C      1  0.5220430000000  0.5447270000000  0.4757520000000 1.0
C      1  0.5180040000000  0.4651940000000  0.4704110000000 1.0
C      1  0.4657860000000  0.4888450000000  0.5360330000000 1.0
C      1  0.5260060000000  0.5440350000000  0.5357420000000 1.0
C      1  0.5174170000000  0.4655700000000  0.5342020000000 1.0
C      1  0.5038010000000  0.5073430000000  0.4507260000000 1.0
C      1  0.5040830000000  0.5064480000000  0.5553520000000 1.0
END
