TITL C-86693-246-3 -0.00206234666900601 125000 -75.9873473108279 0 0 12 (C1) n - 1
REM
REM in /rds/project/t2_vol4/rds-t2-cs072/BORA/CARBON/from-Arr/AIRSS/Generating-Clusters/GAP-ML-2020/Higher-Symm/SD-CG/HFTN-CG
REM
REM
REM
REM
REM
REM ./C.cell (b20cbc046b6831c77cfcea5457e17084)
REM AIRSS Version 0.9.1 bugfix July 2018 build 013d7b7c2542+ Fri, 06 Jul 2018 19:26:36 +0100
REM compiler GCC version 9.3.0
REM options -cpp -mtune=generic -march=x86-64 -g -O0
REM seed -1264335237 2089484388 2113323231 -412913106 -1396026539 -1153641957 -1911542922 1866696303 1313851285 2031418865 -1089299215 1957099554 1880334879 -1701981649 -1735116731 -1143946156 243896137 1983827910 1179345786 -1619152905 1968049613 284384323 668457611 -975363387 515025238 1963773346 -959663663 -2072273118 -1091583475 -14402361 -1272167798 1823811059 183391557
REM
CELL 1.54180   50.00000   50.00000   50.00000   90.00000   90.00000   90.00000
LATT -1
SFAC C  
C      1  0.5016510000000  0.5417150000000  0.5353980000000 1.0
C      1  0.5126580000000  0.5211370000000  0.5192690000000 1.0
C      1  0.5250610000000  0.5297570000000  0.4968270000000 1.0
C      1  0.5238590000000  0.5431990000000  0.4747840000000 1.0
C      1  0.4981520000000  0.5464070000000  0.4692700000000 1.0
C      1  0.4718450000000  0.5505440000000  0.5030420000000 1.0
C      1  0.4791180000000  0.5518340000000  0.5275710000000 1.0
C      1  0.4735800000000  0.5477210000000  0.4775860000000 1.0
C      1  0.5022480000000  0.4961460000000  0.5152810000000 1.0
C      1  0.4977520000000  0.4490000000000  0.4984110000000 1.0
C      1  0.4986220000000  0.4741840000000  0.5046330000000 1.0
C      1  0.5017990000000  0.4245660000000  0.4944020000000 1.0
END
