TITL C-86708-168-7 -12.8713078816622 125000 -393.105297073758 0 0 56 (C1) n - 1
REM
REM in /rds/project/t2_vol4/rds-t2-cs072/BORA/CARBON/from-Arr/AIRSS/Generating-Clusters/GAP-ML-2020/Higher-Symm/SD-CG/HFTN-CG
REM
REM
REM
REM
REM
REM ./C.cell (b20cbc046b6831c77cfcea5457e17084)
REM AIRSS Version 0.9.1 bugfix July 2018 build 013d7b7c2542+ Fri, 06 Jul 2018 19:26:36 +0100
REM compiler GCC version 9.3.0
REM options -cpp -mtune=generic -march=x86-64 -g -O0
REM seed -992474758 -806612872 -1154504706 946442027 1526734370 -877537352 1582336698 -1791997772 1046124205 648958672 -1715915882 -2057285908 -761456947 -381466350 348362179 -958643405 -115639109 2096657803 1377710154 -74257435 1291541930 -600636947 1169169529 310224443 -1724827470 -1448295271 -152154074 -1378635 745868826 1111179196 -2006029538 -1890190353 -974796395
REM
CELL 1.54180   50.00000   50.00000   50.00000   90.00000   90.00000   90.00000
LATT -1
SFAC C  
C      1  0.4642860000000  0.5464350000000  0.5115670000000 1.0
C      1  0.4586830000000  0.5444510000000  0.4818790000000 1.0
C      1  0.4582400000000  0.5284270000000  0.4592380000000 1.0
C      1  0.4606850000000  0.5009410000000  0.4477230000000 1.0
C      1  0.4605870000000  0.4738280000000  0.4514250000000 1.0
C      1  0.4591630000000  0.4524090000000  0.4717510000000 1.0
C      1  0.4623810000000  0.4537520000000  0.4997320000000 1.0
C      1  0.4516250000000  0.4772700000000  0.5134250000000 1.0
C      1  0.4626440000000  0.4823590000000  0.5401260000000 1.0
C      1  0.4640690000000  0.5085500000000  0.5499910000000 1.0
C      1  0.4672840000000  0.5342010000000  0.5358440000000 1.0
C      1  0.4903960000000  0.4407810000000  0.5382470000000 1.0
C      1  0.4806670000000  0.4636400000000  0.5524090000000 1.0
C      1  0.4831460000000  0.5164680000000  0.5702980000000 1.0
C      1  0.4874700000000  0.5422240000000  0.5568490000000 1.0
C      1  0.4823300000000  0.5697460000000  0.5060010000000 1.0
C      1  0.4762190000000  0.5681960000000  0.4783580000000 1.0
C      1  0.4758150000000  0.5381900000000  0.4370500000000 1.0
C      1  0.4790960000000  0.5120560000000  0.4265440000000 1.0
C      1  0.4792570000000  0.4559170000000  0.4357720000000 1.0
C      1  0.4763990000000  0.4354000000000  0.4560250000000 1.0
C      1  0.4832770000000  0.4368910000000  0.5112170000000 1.0
C      1  0.5541740000000  0.5286080000000  0.5471790000000 1.0
C      1  0.5501150000000  0.5461140000000  0.5251960000000 1.0
C      1  0.5592390000000  0.5444950000000  0.4989570000000 1.0
C      1  0.5536770000000  0.5335260000000  0.4730370000000 1.0
C      1  0.5420810000000  0.5167600000000  0.4539960000000 1.0
C      1  0.5396230000000  0.4881300000000  0.4507510000000 1.0
C      1  0.5412140000000  0.4634460000000  0.4664040000000 1.0
C      1  0.5471020000000  0.4551610000000  0.4929000000000 1.0
C      1  0.5526350000000  0.4588040000000  0.5220480000000 1.0
C      1  0.5477630000000  0.4740150000000  0.5463930000000 1.0
C      1  0.5504300000000  0.5007870000000  0.5549470000000 1.0
C      1  0.5380700000000  0.4335580000000  0.5274940000000 1.0
C      1  0.5260000000000  0.4595410000000  0.5608880000000 1.0
C      1  0.5308930000000  0.5102990000000  0.5757400000000 1.0
C      1  0.5343440000000  0.5370130000000  0.5673770000000 1.0
C      1  0.5253090000000  0.5608300000000  0.5296610000000 1.0
C      1  0.5218460000000  0.5720800000000  0.4822540000000 1.0
C      1  0.5468780000000  0.5601210000000  0.4793490000000 1.0
C      1  0.5211390000000  0.5292070000000  0.4368400000000 1.0
C      1  0.5200150000000  0.4841380000000  0.4298800000000 1.0
C      1  0.5214230000000  0.4453060000000  0.4525840000000 1.0
C      1  0.5317200000000  0.4301960000000  0.5006870000000 1.0
C      1  0.5019070000000  0.4294580000000  0.4661910000000 1.0
C      1  0.5046480000000  0.4263720000000  0.4936690000000 1.0
C      1  0.5180330000000  0.4367190000000  0.5463230000000 1.0
C      1  0.5023510000000  0.4729320000000  0.5690210000000 1.0
C      1  0.5044930000000  0.4995330000000  0.5773300000000 1.0
C      1  0.5138670000000  0.5520710000000  0.5545130000000 1.0
C      1  0.5108200000000  0.5720700000000  0.5087810000000 1.0
C      1  0.5007680000000  0.5676170000000  0.4638620000000 1.0
C      1  0.5015120000000  0.5493840000000  0.4426680000000 1.0
C      1  0.5070490000000  0.5080470000000  0.4237210000000 1.0
C      1  0.5072190000000  0.4596060000000  0.4326610000000 1.0
C      1  0.4353950000000  0.4973340000000  0.5000640000000 1.0
END
