TITL C-86708-168-3 -0.029015786950656 125000 -266.107182141151 0 0 39 (C1) n - 1
REM
REM in /rds/project/t2_vol4/rds-t2-cs072/BORA/CARBON/from-Arr/AIRSS/Generating-Clusters/GAP-ML-2020/Higher-Symm/SD-CG/HFTN-CG
REM
REM
REM
REM
REM
REM ./C.cell (b20cbc046b6831c77cfcea5457e17084)
REM AIRSS Version 0.9.1 bugfix July 2018 build 013d7b7c2542+ Fri, 06 Jul 2018 19:26:36 +0100
REM compiler GCC version 9.3.0
REM options -cpp -mtune=generic -march=x86-64 -g -O0
REM seed -1170732236 -2076264215 -1387750892 837987212 -549035307 968312801 1435291455 948179927 1060730112 -711184980 2031921724 1870040952 -448209246 1689799306 94877872 -1807152594 -1655018758 348215559 1734162830 1254253887 1975653266 1769141186 183713848 -1124803095 267518449 697462851 -414266938 1808298774 1743664888 -289149833 -1343587819 401465067 -760385593
REM
CELL 1.54180   50.00000   50.00000   50.00000   90.00000   90.00000   90.00000
LATT -1
SFAC C  
C      1  0.4536810000000  0.5470500000000  0.4950570000000 1.0
C      1  0.4936710000000  0.5523390000000  0.4671080000000 1.0
C      1  0.5309170000000  0.5520170000000  0.4860750000000 1.0
C      1  0.5344100000000  0.5488870000000  0.5340220000000 1.0
C      1  0.4860690000000  0.5525290000000  0.5304610000000 1.0
C      1  0.5289190000000  0.4549960000000  0.4997100000000 1.0
C      1  0.5065450000000  0.4566130000000  0.4571620000000 1.0
C      1  0.4623580000000  0.4562880000000  0.4774170000000 1.0
C      1  0.4837030000000  0.4551230000000  0.5215450000000 1.0
C      1  0.5234890000000  0.4592030000000  0.5472260000000 1.0
C      1  0.5196340000000  0.5388610000000  0.4623530000000 1.0
C      1  0.5435530000000  0.5402820000000  0.5088840000000 1.0
C      1  0.5092690000000  0.5401330000000  0.5440020000000 1.0
C      1  0.4616160000000  0.5389610000000  0.5206270000000 1.0
C      1  0.4681910000000  0.5401910000000  0.4716930000000 1.0
C      1  0.4803160000000  0.4662800000000  0.4587360000000 1.0
C      1  0.4621090000000  0.4657520000000  0.5042360000000 1.0
C      1  0.4960630000000  0.4667030000000  0.5446200000000 1.0
C      1  0.5386990000000  0.4668760000000  0.5237700000000 1.0
C      1  0.5279100000000  0.4662450000000  0.4725710000000 1.0
C      1  0.4892640000000  0.4934960000000  0.5549250000000 1.0
C      1  0.4483490000000  0.4919880000000  0.5068890000000 1.0
C      1  0.4775930000000  0.4944160000000  0.4493580000000 1.0
C      1  0.5398550000000  0.4924380000000  0.4658360000000 1.0
C      1  0.5482370000000  0.4941430000000  0.5284990000000 1.0
C      1  0.5113950000000  0.5132180000000  0.5552640000000 1.0
C      1  0.5547360000000  0.5130870000000  0.5071530000000 1.0
C      1  0.5228890000000  0.5126300000000  0.4521170000000 1.0
C      1  0.4600740000000  0.5130080000000  0.4638220000000 1.0
C      1  0.4543700000000  0.5114940000000  0.5284420000000 1.0
C      1  0.5376080000000  0.5031470000000  0.5529210000000 1.0
C      1  0.4635900000000  0.5022490000000  0.5524380000000 1.0
C      1  0.4414750000000  0.5032740000000  0.4823050000000 1.0
C      1  0.5008840000000  0.5035780000000  0.4380280000000 1.0
C      1  0.5590330000000  0.5024320000000  0.4822940000000 1.0
C      1  0.5058530000000  0.5674970000000  0.4896340000000 1.0
C      1  0.5043020000000  0.4394350000000  0.5068320000000 1.0
C      1  0.4944610000000  0.5735310000000  0.5127900000000 1.0
C      1  0.4958230000000  0.4205200000000  0.4906470000000 1.0
END
