TITL C-86710-245-6 -0.0524543319283954 125000 -209.568742754967 0 0 32 (C1) n - 1
REM
REM in /rds/project/t2_vol4/rds-t2-cs072/BORA/CARBON/from-Arr/AIRSS/Generating-Clusters/GAP-ML-2020/Higher-Symm/SD-CG/HFTN-CG
REM
REM
REM
REM
REM
REM ./C.cell (b20cbc046b6831c77cfcea5457e17084)
REM AIRSS Version 0.9.1 bugfix July 2018 build 013d7b7c2542+ Fri, 06 Jul 2018 19:26:36 +0100
REM compiler GCC version 9.3.0
REM options -cpp -mtune=generic -march=x86-64 -g -O0
REM seed -1985448272 -1494254363 248745513 221677083 -1959097172 -109096493 -1087810227 -1275843805 -1679641184 -625777429 1307519359 -1346682827 -1950991445 281614403 1496242961 702001568 -1362146176 1300592987 -1781511245 -35500518 1116915876 -670421850 -1670546011 454571022 -1628950405 -245168983 1776254700 1281319767 916966982 966085626 1381328334 -1181249741 720298979
REM
CELL 1.54180   50.00000   50.00000   50.00000   90.00000   90.00000   90.00000
LATT -1
SFAC C  
C      1  0.5155940000000  0.4613850000000  0.5225050000000 1.0
C      1  0.4766240000000  0.4651630000000  0.5147480000000 1.0
C      1  0.4828360000000  0.4783410000000  0.4872550000000 1.0
C      1  0.5102460000000  0.4698110000000  0.4753430000000 1.0
C      1  0.5290690000000  0.4656060000000  0.4964290000000 1.0
C      1  0.5217860000000  0.5369650000000  0.5025660000000 1.0
C      1  0.5028740000000  0.5362920000000  0.5244300000000 1.0
C      1  0.4793690000000  0.5224910000000  0.5126830000000 1.0
C      1  0.4798470000000  0.5358790000000  0.4845400000000 1.0
C      1  0.5071290000000  0.5234990000000  0.4806350000000 1.0
C      1  0.4447580000000  0.5259510000000  0.4560060000000 1.0
C      1  0.5345890000000  0.5275910000000  0.4374400000000 1.0
C      1  0.5678400000000  0.5193820000000  0.5020640000000 1.0
C      1  0.5205770000000  0.5206950000000  0.5666380000000 1.0
C      1  0.4344270000000  0.5233010000000  0.5337800000000 1.0
C      1  0.5198380000000  0.5126580000000  0.4550820000000 1.0
C      1  0.5724620000000  0.4932060000000  0.4973060000000 1.0
C      1  0.5253590000000  0.4947190000000  0.5607360000000 1.0
C      1  0.4573470000000  0.5090430000000  0.5279290000000 1.0
C      1  0.4437860000000  0.4988630000000  0.4582840000000 1.0
C      1  0.4134110000000  0.5373370000000  0.5357580000000 1.0
C      1  0.4608410000000  0.5440550000000  0.4670390000000 1.0
C      1  0.5492450000000  0.5418580000000  0.4225150000000 1.0
C      1  0.5493400000000  0.5367660000000  0.5043430000000 1.0
C      1  0.5094950000000  0.5379740000000  0.5508760000000 1.0
C      1  0.5165270000000  0.4857450000000  0.4550040000000 1.0
C      1  0.5556160000000  0.4740410000000  0.4947530000000 1.0
C      1  0.5239490000000  0.4753160000000  0.5451560000000 1.0
C      1  0.4626180000000  0.4824790000000  0.5305430000000 1.0
C      1  0.4606290000000  0.4861000000000  0.4727700000000 1.0
C      1  0.4929110000000  0.4448080000000  0.5226800000000 1.0
C      1  0.4961290000000  0.5023840000000  0.4985900000000 1.0
END
