TITL C-87975-8784-7 -0.203432950010414 125000 -442.130956235561 0 0 65 (C1) n - 1
REM
REM in /rds/project/t2_vol4/rds-t2-cs072/BORA/CARBON/from-Arr/AIRSS/Generating-Clusters/GAP-ML-2020/Higher-Symm/SD-CG/HFTN-CG
REM
REM
REM
REM
REM
REM ./C.cell (b20cbc046b6831c77cfcea5457e17084)
REM AIRSS Version 0.9.1 bugfix July 2018 build 013d7b7c2542+ Fri, 06 Jul 2018 19:26:36 +0100
REM compiler GCC version 9.3.0
REM options -cpp -mtune=generic -march=x86-64 -g -O0
REM seed 1409618574 929375484 -1112756197 -1271218903 1698214491 1157058475 -681250165 15238278 -804475075 1430410163 935099053 531397530 -833171603 1233390637 7164344 1938989823 806899582 1503298712 -2022594551 -626864484 -2093442383 32751991 258991964 1687260720 -870953579 -591511044 -2006081299 -211720313 -1091287097 -540580558 -712944016 -114943328 1309145012
REM
CELL 1.54180   50.00000   50.00000   50.00000   90.00000   90.00000   90.00000
LATT -1
SFAC C  
C      1  0.5606220000000  0.4738410000000  0.4829740000000 1.0
C      1  0.5614680000000  0.5260730000000  0.4749760000000 1.0
C      1  0.5634670000000  0.5032610000000  0.5480960000000 1.0
C      1  0.4407910000000  0.4642900000000  0.4942970000000 1.0
C      1  0.4339790000000  0.5393880000000  0.4775680000000 1.0
C      1  0.4413070000000  0.4938910000000  0.5329130000000 1.0
C      1  0.5371560000000  0.5686660000000  0.4783520000000 1.0
C      1  0.5179950000000  0.4890140000000  0.5735720000000 1.0
C      1  0.5188490000000  0.4458430000000  0.4571980000000 1.0
C      1  0.4784250000000  0.5695160000000  0.4724870000000 1.0
C      1  0.4630440000000  0.4793640000000  0.5720600000000 1.0
C      1  0.4597850000000  0.4472470000000  0.4519610000000 1.0
C      1  0.4710180000000  0.4906100000000  0.4435960000000 1.0
C      1  0.4760820000000  0.5523360000000  0.5170550000000 1.0
C      1  0.4688010000000  0.4500060000000  0.5358510000000 1.0
C      1  0.5181540000000  0.4901940000000  0.4435000000000 1.0
C      1  0.5250910000000  0.5542280000000  0.5200420000000 1.0
C      1  0.5219500000000  0.4595070000000  0.5360270000000 1.0
C      1  0.5054410000000  0.4644330000000  0.4415860000000 1.0
C      1  0.5190180000000  0.5715900000000  0.4987140000000 1.0
C      1  0.5083780000000  0.4666330000000  0.5599510000000 1.0
C      1  0.4767440000000  0.4633140000000  0.4385210000000 1.0
C      1  0.4900580000000  0.5686160000000  0.4975260000000 1.0
C      1  0.4796400000000  0.4613040000000  0.5603690000000 1.0
C      1  0.5230070000000  0.5250770000000  0.5553610000000 1.0
C      1  0.5261830000000  0.4331900000000  0.4958900000000 1.0
C      1  0.5182020000000  0.5389600000000  0.4534580000000 1.0
C      1  0.4785710000000  0.5181330000000  0.5530810000000 1.0
C      1  0.4811410000000  0.4404770000000  0.4896050000000 1.0
C      1  0.4730030000000  0.5355780000000  0.4519710000000 1.0
C      1  0.4534080000000  0.5529380000000  0.4658410000000 1.0
C      1  0.4552330000000  0.5008180000000  0.5571150000000 1.0
C      1  0.4540920000000  0.4437790000000  0.4780500000000 1.0
C      1  0.5447700000000  0.5475880000000  0.4628680000000 1.0
C      1  0.5426160000000  0.5046860000000  0.5641740000000 1.0
C      1  0.5371200000000  0.4547210000000  0.4796040000000 1.0
C      1  0.5124060000000  0.5228330000000  0.4791980000000 1.0
C      1  0.5175890000000  0.5086610000000  0.5255870000000 1.0
C      1  0.5175200000000  0.4765040000000  0.4904040000000 1.0
C      1  0.4821100000000  0.5192200000000  0.4796680000000 1.0
C      1  0.4878380000000  0.5066680000000  0.5250630000000 1.0
C      1  0.4882540000000  0.4720070000000  0.4901110000000 1.0
C      1  0.5122730000000  0.5500470000000  0.5452300000000 1.0
C      1  0.5136020000000  0.4371250000000  0.5206560000000 1.0
C      1  0.5100710000000  0.5157540000000  0.4345230000000 1.0
C      1  0.4840950000000  0.5469140000000  0.5440460000000 1.0
C      1  0.4850630000000  0.4345530000000  0.5184520000000 1.0
C      1  0.4820920000000  0.5150090000000  0.4336710000000 1.0
C      1  0.4433140000000  0.4896660000000  0.4816810000000 1.0
C      1  0.4434600000000  0.5136520000000  0.5130160000000 1.0
C      1  0.4503520000000  0.4684250000000  0.5212920000000 1.0
C      1  0.5543280000000  0.4992420000000  0.4713700000000 1.0
C      1  0.5565540000000  0.5241870000000  0.5022570000000 1.0
C      1  0.5581840000000  0.4829060000000  0.5092020000000 1.0
C      1  0.4719040000000  0.4919380000000  0.4731280000000 1.0
C      1  0.4707190000000  0.5253390000000  0.5075120000000 1.0
C      1  0.4800300000000  0.4801310000000  0.5164390000000 1.0
C      1  0.5254740000000  0.4972000000000  0.4708820000000 1.0
C      1  0.5278610000000  0.5283330000000  0.5061230000000 1.0
C      1  0.5295240000000  0.4815640000000  0.5177890000000 1.0
C      1  0.4939060000000  0.5564490000000  0.4522840000000 1.0
C      1  0.5017270000000  0.5124620000000  0.5710020000000 1.0
C      1  0.5049990000000  0.4290810000000  0.4758940000000 1.0
C      1  0.4305730000000  0.5144360000000  0.4881240000000 1.0
C      1  0.5685790000000  0.5058740000000  0.5213670000000 1.0
END
