TITL C-87986-8819-1 -47.8170393218915 125000 -850.751238627838 0 0 122 (C1) n - 1
REM
REM in /rds/project/t2_vol4/rds-t2-cs072/BORA/CARBON/from-Arr/AIRSS/Generating-Clusters/GAP-ML-2020/Higher-Symm/SD-CG/HFTN-CG
REM
REM
REM
REM
REM
REM ./C.cell (b20cbc046b6831c77cfcea5457e17084)
REM AIRSS Version 0.9.1 bugfix July 2018 build 013d7b7c2542+ Fri, 06 Jul 2018 19:26:36 +0100
REM compiler GCC version 9.3.0
REM options -cpp -mtune=generic -march=x86-64 -g -O0
REM seed -776657263 1863963981 -1822226467 1526156701 539556285 -211877075 -1313242348 -157335086 -79230479 1025442922 1140115695 1680067563 897767934 -704941888 1087904502 -543805024 -1135666697 388367717 1787175353 -1677570834 -1011776633 962802116 456315103 1588011205 1816056209 -1622216341 985940590 2009326702 -339015056 884525956 302742590 -576839467 109876142
REM
CELL 1.54180   50.00000   50.00000   50.00000   90.00000   90.00000   90.00000
LATT -1
SFAC C  
C      1  0.4108850000000  0.5222610000000  0.5356000000000 1.0
C      1  0.4657080000000  0.4768370000000  0.4110860000000 1.0
C      1  0.5878930000000  0.5268690000000  0.4659450000000 1.0
C      1  0.5354590000000  0.4740950000000  0.5879750000000 1.0
C      1  0.5453640000000  0.5097260000000  0.4269850000000 1.0
C      1  0.5734770000000  0.4930590000000  0.5457470000000 1.0
C      1  0.4547080000000  0.5053690000000  0.5728230000000 1.0
C      1  0.4276390000000  0.4919630000000  0.4551020000000 1.0
C      1  0.5033770000000  0.5208050000000  0.5514120000000 1.0
C      1  0.4497600000000  0.4771700000000  0.5035350000000 1.0
C      1  0.4960820000000  0.5220220000000  0.4515980000000 1.0
C      1  0.5497370000000  0.4799560000000  0.4961550000000 1.0
C      1  0.5205650000000  0.4984960000000  0.4166790000000 1.0
C      1  0.5833640000000  0.5046080000000  0.5210200000000 1.0
C      1  0.4795010000000  0.4945210000000  0.5834350000000 1.0
C      1  0.4163970000000  0.5024100000000  0.4798650000000 1.0
C      1  0.5115900000000  0.4700300000000  0.4735870000000 1.0
C      1  0.5224780000000  0.5308320000000  0.5115480000000 1.0
C      1  0.4896650000000  0.4680240000000  0.5225780000000 1.0
C      1  0.4735590000000  0.5310510000000  0.4899930000000 1.0
C      1  0.5275000000000  0.5907600000000  0.4949730000000 1.0
C      1  0.5085900000000  0.4093770000000  0.5275550000000 1.0
C      1  0.4682980000000  0.5897390000000  0.5089630000000 1.0
C      1  0.4945980000000  0.4100870000000  0.4683470000000 1.0
C      1  0.5490630000000  0.4570410000000  0.5689700000000 1.0
C      1  0.4288140000000  0.5403720000000  0.5493410000000 1.0
C      1  0.4525600000000  0.4582870000000  0.4290560000000 1.0
C      1  0.5688850000000  0.5443560000000  0.4528840000000 1.0
C      1  0.4112640000000  0.5381800000000  0.5111640000000 1.0
C      1  0.4906410000000  0.4617830000000  0.4114590000000 1.0
C      1  0.5857930000000  0.5413940000000  0.4911520000000 1.0
C      1  0.5107230000000  0.4587330000000  0.5858650000000 1.0
C      1  0.5502930000000  0.5386670000000  0.4324560000000 1.0
C      1  0.5691520000000  0.4638680000000  0.5503760000000 1.0
C      1  0.4484250000000  0.5340890000000  0.5687410000000 1.0
C      1  0.4328270000000  0.4635080000000  0.4486230000000 1.0
C      1  0.4868210000000  0.4689700000000  0.4588440000000 1.0
C      1  0.5360030000000  0.5333010000000  0.4867190000000 1.0
C      1  0.5146650000000  0.4671290000000  0.5359740000000 1.0
C      1  0.4588340000000  0.5307920000000  0.5147570000000 1.0
C      1  0.4447300000000  0.5586670000000  0.4229490000000 1.0
C      1  0.5796800000000  0.4438920000000  0.4450730000000 1.0
C      1  0.5526810000000  0.5585660000000  0.5799120000000 1.0
C      1  0.4227820000000  0.4386960000000  0.5530350000000 1.0
C      1  0.4954630000000  0.5090680000000  0.4255890000000 1.0
C      1  0.5755340000000  0.4933900000000  0.4956500000000 1.0
C      1  0.5045370000000  0.5068450000000  0.5766710000000 1.0
C      1  0.4242380000000  0.4906490000000  0.5046850000000 1.0
C      1  0.5862740000000  0.5326470000000  0.5177840000000 1.0
C      1  0.4837940000000  0.4665840000000  0.5864210000000 1.0
C      1  0.4117700000000  0.5301750000000  0.4842060000000 1.0
C      1  0.5173000000000  0.4706510000000  0.4119980000000 1.0
C      1  0.5071890000000  0.5516830000000  0.5530870000000 1.0
C      1  0.4489800000000  0.4460860000000  0.5072500000000 1.0
C      1  0.4903410000000  0.5530720000000  0.4500140000000 1.0
C      1  0.5521130000000  0.4490690000000  0.4904480000000 1.0
C      1  0.4838630000000  0.5701790000000  0.5551740000000 1.0
C      1  0.4475850000000  0.4276510000000  0.4838980000000 1.0
C      1  0.5130880000000  0.5722150000000  0.4482030000000 1.0
C      1  0.5545320000000  0.4299080000000  0.5131680000000 1.0
C      1  0.4239210000000  0.5492420000000  0.4668500000000 1.0
C      1  0.5354100000000  0.4520820000000  0.4239660000000 1.0
C      1  0.5735780000000  0.5508310000000  0.5357320000000 1.0
C      1  0.4665520000000  0.4478480000000  0.5736370000000 1.0
C      1  0.4412930000000  0.4576870000000  0.5620630000000 1.0
C      1  0.4363290000000  0.5396990000000  0.4417350000000 1.0
C      1  0.5605210000000  0.4622520000000  0.4361730000000 1.0
C      1  0.5621740000000  0.5403050000000  0.5609030000000 1.0
C      1  0.4348520000000  0.5530270000000  0.5217340000000 1.0
C      1  0.4806980000000  0.4468130000000  0.4352830000000 1.0
C      1  0.5605450000000  0.5542150000000  0.4813060000000 1.0
C      1  0.5210830000000  0.4461550000000  0.5607080000000 1.0
C      1  0.4418370000000  0.5773370000000  0.5065950000000 1.0
C      1  0.4965480000000  0.4227110000000  0.4419270000000 1.0
C      1  0.5541080000000  0.5787370000000  0.4968060000000 1.0
C      1  0.5063550000000  0.4212850000000  0.5541440000000 1.0
C      1  0.5685940000000  0.4420690000000  0.5325760000000 1.0
C      1  0.4645790000000  0.5569360000000  0.5684800000000 1.0
C      1  0.4339490000000  0.4404740000000  0.4645610000000 1.0
C      1  0.5326920000000  0.5606910000000  0.4338660000000 1.0
C      1  0.4711050000000  0.4843050000000  0.4792670000000 1.0
C      1  0.5227240000000  0.5167970000000  0.4682350000000 1.0
C      1  0.5320780000000  0.4848970000000  0.5226730000000 1.0
C      1  0.4788950000000  0.5141480000000  0.5297190000000 1.0
C      1  0.5245720000000  0.4273340000000  0.4358150000000 1.0
C      1  0.5606110000000  0.5748080000000  0.5247750000000 1.0
C      1  0.4782900000000  0.4242140000000  0.5607070000000 1.0
C      1  0.4357130000000  0.5736420000000  0.4784350000000 1.0
C      1  0.5794390000000  0.5005440000000  0.4677520000000 1.0
C      1  0.5327370000000  0.5004440000000  0.5798810000000 1.0
C      1  0.4207260000000  0.4967200000000  0.5326880000000 1.0
C      1  0.4677960000000  0.5022750000000  0.4214460000000 1.0
C      1  0.4812060000000  0.4126180000000  0.5155890000000 1.0
C      1  0.4805470000000  0.5862410000000  0.4817710000000 1.0
C      1  0.5215540000000  0.4148320000000  0.4806700000000 1.0
C      1  0.5154930000000  0.5862510000000  0.5221360000000 1.0
C      1  0.4832840000000  0.5557740000000  0.4780200000000 1.0
C      1  0.5241740000000  0.4456380000000  0.4834660000000 1.0
C      1  0.5134920000000  0.5553180000000  0.5249720000000 1.0
C      1  0.4771650000000  0.4431990000000  0.5136320000000 1.0
C      1  0.4663120000000  0.4860350000000  0.5292900000000 1.0
C      1  0.4702620000000  0.5123750000000  0.4670780000000 1.0
C      1  0.5340070000000  0.4890740000000  0.4701420000000 1.0
C      1  0.5292050000000  0.5125140000000  0.5343390000000 1.0
C      1  0.4724220000000  0.4105510000000  0.4864480000000 1.0
C      1  0.5095890000000  0.5893740000000  0.4728630000000 1.0
C      1  0.5305850000000  0.4118730000000  0.5096530000000 1.0
C      1  0.4864320000000  0.5881360000000  0.5310330000000 1.0
C      1  0.5399110000000  0.4185530000000  0.4582660000000 1.0
C      1  0.5381140000000  0.5831970000000  0.5402880000000 1.0
C      1  0.4630080000000  0.4151570000000  0.5382720000000 1.0
C      1  0.4580930000000  0.5830590000000  0.4633210000000 1.0
C      1  0.4483600000000  0.5116630000000  0.4434200000000 1.0
C      1  0.5582290000000  0.4901740000000  0.4479030000000 1.0
C      1  0.5520310000000  0.5117940000000  0.5586740000000 1.0
C      1  0.4427740000000  0.4863540000000  0.5516260000000 1.0
C      1  0.5322850000000  0.5668480000000  0.5630590000000 1.0
C      1  0.4396190000000  0.4306900000000  0.5325140000000 1.0
C      1  0.4646950000000  0.5676370000000  0.4400050000000 1.0
C      1  0.5626420000000  0.4347250000000  0.4649560000000 1.0
C      1  0.4956870000000  0.4845270000000  0.4972450000000 1.0
C      1  0.4966420000000  0.5150660000000  0.5049990000000 1.0
END
