TITL C-87972-8860-12 -0.141104814232051 125000 -121.708985131938 0 0 19 (C1) n - 1
REM
REM in /rds/project/t2_vol4/rds-t2-cs072/BORA/CARBON/from-Arr/AIRSS/Generating-Clusters/GAP-ML-2020/Higher-Symm/SD-CG/HFTN-CG
REM
REM
REM
REM
REM
REM ./C.cell (b20cbc046b6831c77cfcea5457e17084)
REM AIRSS Version 0.9.1 bugfix July 2018 build 013d7b7c2542+ Fri, 06 Jul 2018 19:26:36 +0100
REM compiler GCC version 9.3.0
REM options -cpp -mtune=generic -march=x86-64 -g -O0
REM seed 1087264265 2005696430 -1223416685 -1703946175 64479621 -237052015 -1791241608 -249626013 -865531305 1610305868 1804303787 -812131551 -1405740124 737211983 -1389305837 2017395579 -1397185361 -139146746 414029295 -450757680 1275530099 1904355334 683526990 -540573605 931547519 -1365318514 -1341807040 -1290428708 -1207304631 540419042 34161283 826461417 -1490291192
REM
CELL 1.54180   50.00000   50.00000   50.00000   90.00000   90.00000   90.00000
LATT -1
SFAC C  
C      1  0.4665010000000  0.4985680000000  0.5243320000000 1.0
C      1  0.4662750000000  0.4770740000000  0.4896720000000 1.0
C      1  0.4698640000000  0.4989040000000  0.4717050000000 1.0
C      1  0.4698500000000  0.5248560000000  0.4834280000000 1.0
C      1  0.4721380000000  0.5240420000000  0.5118480000000 1.0
C      1  0.4823660000000  0.4952660000000  0.4482300000000 1.0
C      1  0.4814830000000  0.5455590000000  0.4696380000000 1.0
C      1  0.4855140000000  0.5437350000000  0.5244590000000 1.0
C      1  0.4840210000000  0.4859100000000  0.5413770000000 1.0
C      1  0.4843520000000  0.4563380000000  0.4917620000000 1.0
C      1  0.5038040000000  0.4460500000000  0.5041780000000 1.0
C      1  0.5022020000000  0.5022740000000  0.4343550000000 1.0
C      1  0.5009840000000  0.5506910000000  0.4544320000000 1.0
C      1  0.5053710000000  0.5574540000000  0.5313760000000 1.0
C      1  0.5041490000000  0.4714940000000  0.5466170000000 1.0
C      1  0.5526030000000  0.5011880000000  0.4987580000000 1.0
C      1  0.4499170000000  0.4815840000000  0.5110150000000 1.0
C      1  0.5164350000000  0.4681200000000  0.5195900000000 1.0
C      1  0.5341760000000  0.4862120000000  0.5084910000000 1.0
END
