TITL C-87985-8875-6 0.712269117840872 125000 -822.986372904275 0 0 117 (C1) n - 1
REM
REM in /rds/project/t2_vol4/rds-t2-cs072/BORA/CARBON/from-Arr/AIRSS/Generating-Clusters/GAP-ML-2020/Higher-Symm/SD-CG/HFTN-CG
REM
REM
REM
REM
REM
REM ./C.cell (b20cbc046b6831c77cfcea5457e17084)
REM AIRSS Version 0.9.1 bugfix July 2018 build 013d7b7c2542+ Fri, 06 Jul 2018 19:26:36 +0100
REM compiler GCC version 9.3.0
REM options -cpp -mtune=generic -march=x86-64 -g -O0
REM seed -695491454 152391018 1161992283 -983097116 -299727603 -2134683089 -3819139 52947452 768990257 -1003651276 1931969664 1814753760 985313606 208661237 -275475979 1577836983 -1257136230 -1125967677 235159473 517281371 -2029710708 1464787383 544028569 -1668684759 1713653996 396918433 324558199 -231945437 1690143758 1262011531 1078408820 6819429 1563060650
REM
CELL 1.54180   50.00000   50.00000   50.00000   90.00000   90.00000   90.00000
LATT -1
SFAC C  
C      1  0.4960450000000  0.4301390000000  0.4439990000000 1.0
C      1  0.5056310000000  0.4298440000000  0.5415080000000 1.0
C      1  0.5021240000000  0.5204200000000  0.5813730000000 1.0
C      1  0.5040530000000  0.5823760000000  0.5040040000000 1.0
C      1  0.5001110000000  0.5286090000000  0.4215610000000 1.0
C      1  0.4707260000000  0.5634180000000  0.4316780000000 1.0
C      1  0.4682690000000  0.4528210000000  0.4158600000000 1.0
C      1  0.4724860000000  0.4084250000000  0.5172490000000 1.0
C      1  0.4720360000000  0.4862270000000  0.5901940000000 1.0
C      1  0.4730240000000  0.5838520000000  0.5391770000000 1.0
C      1  0.4423270000000  0.5665990000000  0.4738370000000 1.0
C      1  0.4407080000000  0.4947920000000  0.4294990000000 1.0
C      1  0.4414930000000  0.4301990000000  0.4820030000000 1.0
C      1  0.4436310000000  0.4605360000000  0.5581730000000 1.0
C      1  0.4434270000000  0.5452980000000  0.5547850000000 1.0
C      1  0.5660840000000  0.4391490000000  0.5004200000000 1.0
C      1  0.5791170000000  0.4856370000000  0.5549500000000 1.0
C      1  0.5790800000000  0.5389110000000  0.5416150000000 1.0
C      1  0.5648500000000  0.5586250000000  0.4736680000000 1.0
C      1  0.5641570000000  0.4928640000000  0.4408440000000 1.0
C      1  0.4680430000000  0.4346640000000  0.4371160000000 1.0
C      1  0.4764560000000  0.4343200000000  0.5300670000000 1.0
C      1  0.4755000000000  0.5096780000000  0.5726250000000 1.0
C      1  0.4757450000000  0.5725060000000  0.5124490000000 1.0
C      1  0.4730060000000  0.5341500000000  0.4348740000000 1.0
C      1  0.4641510000000  0.4624980000000  0.5768480000000 1.0
C      1  0.4632430000000  0.5647510000000  0.5582030000000 1.0
C      1  0.4621040000000  0.5757930000000  0.4560370000000 1.0
C      1  0.4607140000000  0.4802900000000  0.4160960000000 1.0
C      1  0.4594360000000  0.4111000000000  0.4919070000000 1.0
C      1  0.4478880000000  0.5224050000000  0.5705260000000 1.0
C      1  0.4475710000000  0.5745260000000  0.5003420000000 1.0
C      1  0.4450840000000  0.5227180000000  0.4293740000000 1.0
C      1  0.4439890000000  0.4362300000000  0.4539450000000 1.0
C      1  0.4480650000000  0.4380270000000  0.5422720000000 1.0
C      1  0.5163880000000  0.5518280000000  0.4266600000000 1.0
C      1  0.5142240000000  0.4471640000000  0.4286100000000 1.0
C      1  0.5194570000000  0.4150480000000  0.5204640000000 1.0
C      1  0.5166790000000  0.4964970000000  0.5888740000000 1.0
C      1  0.5191860000000  0.5815930000000  0.5290880000000 1.0
C      1  0.5123430000000  0.5453940000000  0.5730810000000 1.0
C      1  0.5127340000000  0.5794810000000  0.4772920000000 1.0
C      1  0.5108250000000  0.5030590000000  0.4189980000000 1.0
C      1  0.5045270000000  0.4200750000000  0.4680150000000 1.0
C      1  0.5156300000000  0.4454910000000  0.5627130000000 1.0
C      1  0.5345560000000  0.5591900000000  0.4698260000000 1.0
C      1  0.5334440000000  0.4925610000000  0.4374600000000 1.0
C      1  0.5257280000000  0.4341340000000  0.4805010000000 1.0
C      1  0.5409540000000  0.4606280000000  0.5645470000000 1.0
C      1  0.5387970000000  0.5494170000000  0.5608690000000 1.0
C      1  0.4998820000000  0.5841190000000  0.5493760000000 1.0
C      1  0.4980220000000  0.5725640000000  0.4331180000000 1.0
C      1  0.4966790000000  0.4591830000000  0.4100510000000 1.0
C      1  0.4984280000000  0.4002010000000  0.5085210000000 1.0
C      1  0.4985190000000  0.4765920000000  0.5953670000000 1.0
C      1  0.4766780000000  0.5312270000000  0.4676450000000 1.0
C      1  0.4787370000000  0.4816110000000  0.4613540000000 1.0
C      1  0.4779920000000  0.4559400000000  0.5069290000000 1.0
C      1  0.4815630000000  0.4938450000000  0.5428500000000 1.0
C      1  0.4792220000000  0.5399510000000  0.5198950000000 1.0
C      1  0.5771880000000  0.4521140000000  0.5230920000000 1.0
C      1  0.5623350000000  0.5032250000000  0.5692920000000 1.0
C      1  0.5679470000000  0.5589330000000  0.5249430000000 1.0
C      1  0.5667350000000  0.5411440000000  0.4503760000000 1.0
C      1  0.5628790000000  0.4644640000000  0.4494910000000 1.0
C      1  0.5613650000000  0.5312530000000  0.5624930000000 1.0
C      1  0.5775610000000  0.5529350000000  0.4977980000000 1.0
C      1  0.5773660000000  0.5144170000000  0.4530810000000 1.0
C      1  0.5739110000000  0.4572270000000  0.4755120000000 1.0
C      1  0.5663690000000  0.4603740000000  0.5495030000000 1.0
C      1  0.5279460000000  0.5287120000000  0.4799140000000 1.0
C      1  0.5292520000000  0.4999830000000  0.4687650000000 1.0
C      1  0.5243290000000  0.4605170000000  0.4920090000000 1.0
C      1  0.5358080000000  0.4988680000000  0.5172570000000 1.0
C      1  0.5313460000000  0.5255660000000  0.5094660000000 1.0
C      1  0.4276760000000  0.4364810000000  0.5244220000000 1.0
C      1  0.4285650000000  0.5035870000000  0.5672110000000 1.0
C      1  0.4280020000000  0.5656500000000  0.5170430000000 1.0
C      1  0.4261080000000  0.5364260000000  0.4432180000000 1.0
C      1  0.4261190000000  0.4561470000000  0.4482140000000 1.0
C      1  0.5008580000000  0.4722090000000  0.5031910000000 1.0
C      1  0.5050470000000  0.4942400000000  0.5255180000000 1.0
C      1  0.5014180000000  0.5240930000000  0.5128080000000 1.0
C      1  0.4987640000000  0.5211160000000  0.4819210000000 1.0
C      1  0.5006230000000  0.4900200000000  0.4763700000000 1.0
C      1  0.4300540000000  0.5398380000000  0.5278050000000 1.0
C      1  0.4283920000000  0.5389850000000  0.4709850000000 1.0
C      1  0.4278600000000  0.4833670000000  0.4548550000000 1.0
C      1  0.4289440000000  0.4515400000000  0.5006370000000 1.0
C      1  0.4309470000000  0.4853250000000  0.5460650000000 1.0
C      1  0.4108180000000  0.5189840000000  0.5161890000000 1.0
C      1  0.4098370000000  0.5207190000000  0.4873610000000 1.0
C      1  0.4095050000000  0.4937650000000  0.4769650000000 1.0
C      1  0.4096790000000  0.4755390000000  0.4992880000000 1.0
C      1  0.4110710000000  0.4910870000000  0.5234680000000 1.0
C      1  0.5405420000000  0.4865410000000  0.5776750000000 1.0
C      1  0.5427710000000  0.5671070000000  0.5379080000000 1.0
C      1  0.5398900000000  0.5506060000000  0.4416860000000 1.0
C      1  0.5362510000000  0.4627590000000  0.4369120000000 1.0
C      1  0.5408830000000  0.4246010000000  0.5019850000000 1.0
C      1  0.4557440000000  0.5232550000000  0.5130100000000 1.0
C      1  0.4540300000000  0.5198880000000  0.4822740000000 1.0
C      1  0.4546660000000  0.4889770000000  0.4760170000000 1.0
C      1  0.4550830000000  0.4735550000000  0.5027080000000 1.0
C      1  0.4572310000000  0.4948810000000  0.5255260000000 1.0
C      1  0.5900850000000  0.5069440000000  0.4780750000000 1.0
C      1  0.5908960000000  0.4788680000000  0.4862980000000 1.0
C      1  0.5949080000000  0.4937090000000  0.5331910000000 1.0
C      1  0.5934960000000  0.5203770000000  0.5257450000000 1.0
C      1  0.5914180000000  0.5272650000000  0.4984000000000 1.0
C      1  0.4934920000000  0.4544640000000  0.5790920000000 1.0
C      1  0.4918560000000  0.5645130000000  0.5677590000000 1.0
C      1  0.4917680000000  0.5831230000000  0.4584600000000 1.0
C      1  0.4903090000000  0.4862550000000  0.4097150000000 1.0
C      1  0.4872980000000  0.4033910000000  0.4824600000000 1.0
C      1  0.5939430000000  0.4735010000000  0.5136510000000 1.0
C      1  0.5415480000000  0.4838560000000  0.4921950000000 1.0
END
