TITL C-87984-8769-10 -9.12460022314798 125000 -765.363386853495 0 0 110 (C1) n - 1
REM
REM in /rds/project/t2_vol4/rds-t2-cs072/BORA/CARBON/from-Arr/AIRSS/Generating-Clusters/GAP-ML-2020/Higher-Symm/SD-CG/HFTN-CG
REM
REM
REM
REM
REM
REM ./C.cell (b20cbc046b6831c77cfcea5457e17084)
REM AIRSS Version 0.9.1 bugfix July 2018 build 013d7b7c2542+ Fri, 06 Jul 2018 19:26:36 +0100
REM compiler GCC version 9.3.0
REM options -cpp -mtune=generic -march=x86-64 -g -O0
REM seed 1588811986 -1653492801 -1599631218 -2137792344 -915244764 -1524332248 -1547321615 -1462741912 1448416284 -1616825705 648419052 1321924455 1669591551 -2067417767 1494975000 -1238053771 557207064 -1600698823 -671092321 622750749 1370143524 1838792331 243975194 -1264721412 -1317284461 276495704 1665207232 297110197 478985847 -835139954 513602284 -1465524851 1238893217
REM
CELL 1.54180   50.00000   50.00000   50.00000   90.00000   90.00000   90.00000
LATT -1
SFAC C  
C      1  0.4355910000000  0.4342790000000  0.4988740000000 1.0
C      1  0.4358480000000  0.4622450000000  0.4498760000000 1.0
C      1  0.4334570000000  0.5143190000000  0.4378960000000 1.0
C      1  0.4321780000000  0.5578180000000  0.4709500000000 1.0
C      1  0.4362060000000  0.5540460000000  0.5265930000000 1.0
C      1  0.4379870000000  0.5124070000000  0.5600480000000 1.0
C      1  0.4364030000000  0.4579560000000  0.5480310000000 1.0
C      1  0.5495310000000  0.5789730000000  0.4765070000000 1.0
C      1  0.5504780000000  0.5704990000000  0.5453780000000 1.0
C      1  0.5556280000000  0.5056780000000  0.5759780000000 1.0
C      1  0.5545440000000  0.4379900000000  0.5516670000000 1.0
C      1  0.5475730000000  0.4188370000000  0.4854890000000 1.0
C      1  0.5503030000000  0.4617100000000  0.4337170000000 1.0
C      1  0.5519310000000  0.5315970000000  0.4270490000000 1.0
C      1  0.5061430000000  0.5285690000000  0.5411420000000 1.0
C      1  0.5028470000000  0.4964520000000  0.5439490000000 1.0
C      1  0.5040600000000  0.4444020000000  0.5178700000000 1.0
C      1  0.4993300000000  0.4472390000000  0.4870560000000 1.0
C      1  0.5095160000000  0.4783480000000  0.4417230000000 1.0
C      1  0.5051460000000  0.5264100000000  0.4543400000000 1.0
C      1  0.5062860000000  0.5540460000000  0.4939370000000 1.0
C      1  0.4255940000000  0.5314370000000  0.5411750000000 1.0
C      1  0.4269440000000  0.4858120000000  0.5516930000000 1.0
C      1  0.4249920000000  0.4491320000000  0.5224890000000 1.0
C      1  0.4254880000000  0.4505120000000  0.4754730000000 1.0
C      1  0.4230710000000  0.4881010000000  0.4466790000000 1.0
C      1  0.4215440000000  0.5339800000000  0.4563650000000 1.0
C      1  0.4237280000000  0.5533010000000  0.4994730000000 1.0
C      1  0.4040300000000  0.5197860000000  0.4741040000000 1.0
C      1  0.4051580000000  0.5315600000000  0.4998490000000 1.0
C      1  0.4059360000000  0.5184540000000  0.5252810000000 1.0
C      1  0.4075060000000  0.4908350000000  0.5313050000000 1.0
C      1  0.4065040000000  0.4687110000000  0.5135840000000 1.0
C      1  0.4063950000000  0.4693450000000  0.4853130000000 1.0
C      1  0.4046240000000  0.4919460000000  0.4679780000000 1.0
C      1  0.4776300000000  0.4381930000000  0.4317480000000 1.0
C      1  0.4785450000000  0.5169640000000  0.4090010000000 1.0
C      1  0.4770280000000  0.5796890000000  0.4554650000000 1.0
C      1  0.4776480000000  0.5850050000000  0.5349760000000 1.0
C      1  0.4823280000000  0.5247550000000  0.5855490000000 1.0
C      1  0.4828020000000  0.4459080000000  0.5719550000000 1.0
C      1  0.4781880000000  0.4044500000000  0.5070330000000 1.0
C      1  0.5796000000000  0.4609530000000  0.5011060000000 1.0
C      1  0.5788020000000  0.4780230000000  0.4748980000000 1.0
C      1  0.5769830000000  0.5075030000000  0.4671920000000 1.0
C      1  0.5769650000000  0.5341500000000  0.4833130000000 1.0
C      1  0.5795020000000  0.5430090000000  0.5126300000000 1.0
C      1  0.5835340000000  0.5259520000000  0.5357240000000 1.0
C      1  0.5818020000000  0.4727090000000  0.5266010000000 1.0
C      1  0.4625530000000  0.4468050000000  0.5547390000000 1.0
C      1  0.4553120000000  0.4144050000000  0.5021390000000 1.0
C      1  0.4628210000000  0.4593610000000  0.4393890000000 1.0
C      1  0.4609630000000  0.5176600000000  0.4293380000000 1.0
C      1  0.4527710000000  0.5740160000000  0.4611460000000 1.0
C      1  0.4630850000000  0.5623880000000  0.5339840000000 1.0
C      1  0.4590100000000  0.5195710000000  0.5773940000000 1.0
C      1  0.5217280000000  0.4529280000000  0.4352680000000 1.0
C      1  0.5244360000000  0.5345210000000  0.4168260000000 1.0
C      1  0.5215920000000  0.5868950000000  0.4730280000000 1.0
C      1  0.5223180000000  0.5744110000000  0.5497160000000 1.0
C      1  0.5270650000000  0.5050980000000  0.5836520000000 1.0
C      1  0.5270960000000  0.4353270000000  0.5588220000000 1.0
C      1  0.5211020000000  0.4078890000000  0.4862180000000 1.0
C      1  0.5646320000000  0.5563830000000  0.4675040000000 1.0
C      1  0.5654330000000  0.5674880000000  0.5208940000000 1.0
C      1  0.5690710000000  0.5292940000000  0.5624940000000 1.0
C      1  0.5710640000000  0.4616420000000  0.5518670000000 1.0
C      1  0.5657950000000  0.4326130000000  0.5034980000000 1.0
C      1  0.5668810000000  0.4582980000000  0.4566200000000 1.0
C      1  0.5651790000000  0.5088190000000  0.4383000000000 1.0
C      1  0.5033620000000  0.4237830000000  0.4692760000000 1.0
C      1  0.5207690000000  0.4941100000000  0.4194460000000 1.0
C      1  0.5177230000000  0.5524550000000  0.4409680000000 1.0
C      1  0.5169430000000  0.5813450000000  0.5039490000000 1.0
C      1  0.5200640000000  0.5473670000000  0.5651080000000 1.0
C      1  0.5117940000000  0.4838650000000  0.5706760000000 1.0
C      1  0.5202030000000  0.4218240000000  0.5305970000000 1.0
C      1  0.5058120000000  0.5153430000000  0.4067550000000 1.0
C      1  0.5042540000000  0.5784700000000  0.4515930000000 1.0
C      1  0.5045150000000  0.5869280000000  0.5311490000000 1.0
C      1  0.5095270000000  0.5292780000000  0.5863730000000 1.0
C      1  0.5092400000000  0.4539920000000  0.5722520000000 1.0
C      1  0.5057300000000  0.4027920000000  0.5112520000000 1.0
C      1  0.5032350000000  0.4318570000000  0.4415540000000 1.0
C      1  0.4831960000000  0.5389320000000  0.5000330000000 1.0
C      1  0.4816330000000  0.5394480000000  0.5283620000000 1.0
C      1  0.4804960000000  0.4837680000000  0.5298960000000 1.0
C      1  0.4810690000000  0.4550180000000  0.5329020000000 1.0
C      1  0.4819620000000  0.4689540000000  0.4816830000000 1.0
C      1  0.4821010000000  0.4803680000000  0.4535810000000 1.0
C      1  0.4787830000000  0.5127350000000  0.4553990000000 1.0
C      1  0.5494440000000  0.4886300000000  0.4247310000000 1.0
C      1  0.5484160000000  0.5531050000000  0.4451350000000 1.0
C      1  0.5475890000000  0.5810150000000  0.5046760000000 1.0
C      1  0.5507880000000  0.5491580000000  0.5642790000000 1.0
C      1  0.5654720000000  0.4813600000000  0.5694980000000 1.0
C      1  0.5514440000000  0.4242620000000  0.5264860000000 1.0
C      1  0.5486290000000  0.4430560000000  0.4724110000000 1.0
C      1  0.5239430000000  0.5319650000000  0.4950820000000 1.0
C      1  0.5304050000000  0.5271250000000  0.5215260000000 1.0
C      1  0.5263380000000  0.4868370000000  0.5286460000000 1.0
C      1  0.5261000000000  0.4651430000000  0.5133170000000 1.0
C      1  0.5277840000000  0.4638010000000  0.4847750000000 1.0
C      1  0.5261510000000  0.4875000000000  0.4682380000000 1.0
C      1  0.5197130000000  0.5130450000000  0.4751450000000 1.0
C      1  0.4700950000000  0.5197330000000  0.4838810000000 1.0
C      1  0.4717160000000  0.4842650000000  0.5031720000000 1.0
C      1  0.5466370000000  0.5050560000000  0.5260890000000 1.0
C      1  0.5760710000000  0.5005310000000  0.5262830000000 1.0
C      1  0.4536430000000  0.5028350000000  0.4969280000000 1.0
END
