TITL C-87976-8858-6 846.053019480388 125000 -527.949707398142 0 0 78 (C1) n - 1
REM
REM in /rds/project/t2_vol4/rds-t2-cs072/BORA/CARBON/from-Arr/AIRSS/Generating-Clusters/GAP-ML-2020/Higher-Symm/SD-CG/HFTN-CG
REM
REM
REM
REM
REM
REM ./C.cell (b20cbc046b6831c77cfcea5457e17084)
REM AIRSS Version 0.9.1 bugfix July 2018 build 013d7b7c2542+ Fri, 06 Jul 2018 19:26:36 +0100
REM compiler GCC version 9.3.0
REM options -cpp -mtune=generic -march=x86-64 -g -O0
REM seed 2140166418 -173914762 -485661407 -826942102 -1294841400 1801669844 -1191047458 -1388764224 -676736747 652130432 1320455179 1232083814 -257262742 813438433 -939436333 -351684558 -120441035 1886217798 -1822790310 1234165744 -1912299967 -494769465 593484428 -1499643735 176528988 34324879 -2066310734 -1599927146 758872295 -1558139045 -1847979820 -175015642 1935224121
REM
CELL 1.54180   50.00000   50.00000   50.00000   90.00000   90.00000   90.00000
LATT -1
SFAC C  
C      1  0.5089700000000  0.5317470000000  0.5155090000000 1.0
C      1  0.4936530000000  0.4679280000000  0.5156050000000 1.0
C      1  0.5092490000000  0.4682100000000  0.4901560000000 1.0
C      1  0.4940940000000  0.5313980000000  0.4896560000000 1.0
C      1  0.5335580000000  0.5072270000000  0.5159320000000 1.0
C      1  0.4711480000000  0.4921920000000  0.5146350000000 1.0
C      1  0.4714560000000  0.5091120000000  0.4904980000000 1.0
C      1  0.5326470000000  0.4910800000000  0.4901180000000 1.0
C      1  0.5436300000000  0.5652950000000  0.5091540000000 1.0
C      1  0.4578240000000  0.4352480000000  0.5072140000000 1.0
C      1  0.5439880000000  0.4331130000000  0.4983810000000 1.0
C      1  0.4584430000000  0.5657350000000  0.4992050000000 1.0
C      1  0.5644930000000  0.5462320000000  0.5097710000000 1.0
C      1  0.4372980000000  0.4539030000000  0.5045790000000 1.0
C      1  0.4382850000000  0.5472580000000  0.5015330000000 1.0
C      1  0.5638770000000  0.4517420000000  0.4994500000000 1.0
C      1  0.5221370000000  0.5877380000000  0.4671180000000 1.0
C      1  0.4810180000000  0.4101440000000  0.4673110000000 1.0
C      1  0.5108070000000  0.4042720000000  0.5089990000000 1.0
C      1  0.4904560000000  0.5966090000000  0.5052600000000 1.0
C      1  0.5857970000000  0.5185740000000  0.4791780000000 1.0
C      1  0.4103960000000  0.4819750000000  0.4825850000000 1.0
C      1  0.4088560000000  0.5178820000000  0.5209580000000 1.0
C      1  0.5950160000000  0.4818850000000  0.5116880000000 1.0
C      1  0.4890140000000  0.5304160000000  0.5373540000000 1.0
C      1  0.5113020000000  0.4700590000000  0.5389870000000 1.0
C      1  0.4905080000000  0.4711680000000  0.4676770000000 1.0
C      1  0.5109740000000  0.5277000000000  0.4660260000000 1.0
C      1  0.5322530000000  0.4884550000000  0.5382910000000 1.0
C      1  0.4696950000000  0.5114590000000  0.5363490000000 1.0
C      1  0.4709560000000  0.4899910000000  0.4685530000000 1.0
C      1  0.5312640000000  0.5091970000000  0.4669930000000 1.0
C      1  0.4684740000000  0.5869850000000  0.5143530000000 1.0
C      1  0.5336130000000  0.4138270000000  0.5157350000000 1.0
C      1  0.4661340000000  0.4196090000000  0.4861290000000 1.0
C      1  0.5371300000000  0.5793660000000  0.4863980000000 1.0
C      1  0.5845190000000  0.4590110000000  0.5174740000000 1.0
C      1  0.4171500000000  0.5421390000000  0.5202680000000 1.0
C      1  0.4187980000000  0.4577280000000  0.4835420000000 1.0
C      1  0.5821440000000  0.5419120000000  0.4888550000000 1.0
C      1  0.4500060000000  0.5270840000000  0.4561480000000 1.0
C      1  0.5490310000000  0.4704490000000  0.4529290000000 1.0
C      1  0.4477500000000  0.4755620000000  0.5482720000000 1.0
C      1  0.5478610000000  0.5283040000000  0.5538770000000 1.0
C      1  0.5278060000000  0.4518940000000  0.4517820000000 1.0
C      1  0.4708490000000  0.5455640000000  0.4530340000000 1.0
C      1  0.4692860000000  0.4573640000000  0.5516360000000 1.0
C      1  0.5270970000000  0.5477340000000  0.5541710000000 1.0
C      1  0.4575350000000  0.4999440000000  0.4456880000000 1.0
C      1  0.5420170000000  0.4972190000000  0.4437880000000 1.0
C      1  0.4546140000000  0.5020580000000  0.5579530000000 1.0
C      1  0.5405690000000  0.5011110000000  0.5628770000000 1.0
C      1  0.5015650000000  0.4621900000000  0.4434030000000 1.0
C      1  0.4967020000000  0.5350360000000  0.4426750000000 1.0
C      1  0.4949380000000  0.4665120000000  0.5619640000000 1.0
C      1  0.5001760000000  0.5390460000000  0.5620690000000 1.0
C      1  0.5310640000000  0.4896810000000  0.5853660000000 1.0
C      1  0.4632780000000  0.5121030000000  0.5821230000000 1.0
C      1  0.5302470000000  0.5064180000000  0.4203250000000 1.0
C      1  0.4635270000000  0.4861840000000  0.4235520000000 1.0
C      1  0.4867220000000  0.5291450000000  0.5843970000000 1.0
C      1  0.5039020000000  0.4816850000000  0.5848650000000 1.0
C      1  0.5072110000000  0.5235380000000  0.4195940000000 1.0
C      1  0.4898030000000  0.4764870000000  0.4211930000000 1.0
C      1  0.4765860000000  0.4456540000000  0.5258390000000 1.0
C      1  0.5229880000000  0.5559800000000  0.5260190000000 1.0
C      1  0.4796980000000  0.5578160000000  0.4798360000000 1.0
C      1  0.5220380000000  0.4407240000000  0.4797510000000 1.0
C      1  0.4427860000000  0.4793730000000  0.5179530000000 1.0
C      1  0.5566550000000  0.5239170000000  0.5263480000000 1.0
C      1  0.5588050000000  0.4752140000000  0.4813110000000 1.0
C      1  0.4439010000000  0.5224010000000  0.4866430000000 1.0
C      1  0.4253770000000  0.5004810000000  0.5017530000000 1.0
C      1  0.5822450000000  0.4930240000000  0.4872770000000 1.0
C      1  0.5031100000000  0.4179000000000  0.4838040000000 1.0
C      1  0.4985690000000  0.5812110000000  0.4817760000000 1.0
C      1  0.4856180000000  0.5022080000000  0.5952150000000 1.0
C      1  0.5070450000000  0.4962670000000  0.4087820000000 1.0
END
