TITL C-87959-8898-5 -71.1540463542613 125000 -719.574900206386 0 0 104 (Oh) n - 1
REM
REM in /rds/project/t2_vol4/rds-t2-cs072/BORA/CARBON/from-Arr/AIRSS/Generating-Clusters/GAP-ML-2020/Higher-Symm/SD-CG/HFTN-CG
REM
REM
REM
REM
REM
REM ./C.cell (b20cbc046b6831c77cfcea5457e17084)
REM AIRSS Version 0.9.1 bugfix July 2018 build 013d7b7c2542+ Fri, 06 Jul 2018 19:26:36 +0100
REM compiler GCC version 9.3.0
REM options -cpp -mtune=generic -march=x86-64 -g -O0
REM seed 1773519763 448945551 -431676707 1476897725 -1026968761 1793295470 2020503708 2131386474 1036382936 167168050 8132301 -92128681 1896698456 2129954068 -369460493 207988075 -1554131862 658784660 -1483132327 1958309730 1917333463 -313282615 -329040771 -721073027 -1557776520 -1451264548 995202575 224757415 -749407250 -572910061 -1235186116 1811715987 1066306125
REM
CELL 1.54180   50.00000   50.00000   50.00000   90.00000   90.00000   90.00000
LATT -1
SFAC C  
C      1  0.4543400000000  0.5452840000000  0.4338810000000 1.0
C      1  0.5468240000000  0.4345560000000  0.4539260000000 1.0
C      1  0.4344330000000  0.4529230000000  0.5447360000000 1.0
C      1  0.5467250000000  0.4549230000000  0.4338340000000 1.0
C      1  0.4545350000000  0.4530080000000  0.5650930000000 1.0
C      1  0.5448920000000  0.5453890000000  0.5662880000000 1.0
C      1  0.4539900000000  0.5653730000000  0.4542470000000 1.0
C      1  0.5447930000000  0.5657560000000  0.5461960000000 1.0
C      1  0.4548850000000  0.4329190000000  0.5447260000000 1.0
C      1  0.5652460000000  0.5457510000000  0.5461860000000 1.0
C      1  0.4339860000000  0.5449210000000  0.4539830000000 1.0
C      1  0.5668280000000  0.4550080000000  0.4541910000000 1.0
C      1  0.4535210000000  0.5443790000000  0.5657140000000 1.0
C      1  0.5462570000000  0.4339290000000  0.5453010000000 1.0
C      1  0.4350000000000  0.4535500000000  0.4533620000000 1.0
C      1  0.5459060000000  0.4540180000000  0.5656670000000 1.0
C      1  0.4553540000000  0.4539130000000  0.4332600000000 1.0
C      1  0.5457110000000  0.5462940000000  0.4344550000000 1.0
C      1  0.4534220000000  0.5647460000000  0.5456220000000 1.0
C      1  0.5453610000000  0.5663830000000  0.4548220000000 1.0
C      1  0.4554530000000  0.4335460000000  0.4533520000000 1.0
C      1  0.5658140000000  0.5463780000000  0.4548110000000 1.0
C      1  0.4334190000000  0.5442940000000  0.5453570000000 1.0
C      1  0.5662600000000  0.4543800000000  0.5455650000000 1.0
C      1  0.5147670000000  0.4840670000000  0.5971760000000 1.0
C      1  0.4838670000000  0.5967860000000  0.5154230000000 1.0
C      1  0.5974560000000  0.5159130000000  0.4854070000000 1.0
C      1  0.4842690000000  0.5138970000000  0.5971920000000 1.0
C      1  0.5156420000000  0.5155680000000  0.4025610000000 1.0
C      1  0.4858140000000  0.4850710000000  0.4021670000000 1.0
C      1  0.5161920000000  0.4023080000000  0.5142890000000 1.0
C      1  0.4862160000000  0.4021820000000  0.4839350000000 1.0
C      1  0.5142170000000  0.5973270000000  0.4854480000000 1.0
C      1  0.4029780000000  0.4835960000000  0.4839770000000 1.0
C      1  0.5976030000000  0.4855430000000  0.5153660000000 1.0
C      1  0.4024560000000  0.5135520000000  0.5143460000000 1.0
C      1  0.5159770000000  0.4854050000000  0.4023560000000 1.0
C      1  0.4840540000000  0.5969930000000  0.4852590000000 1.0
C      1  0.5972680000000  0.5157060000000  0.5155710000000 1.0
C      1  0.4854790000000  0.5152340000000  0.4023720000000 1.0
C      1  0.5144320000000  0.5142300000000  0.5973810000000 1.0
C      1  0.4846040000000  0.4837340000000  0.5969870000000 1.0
C      1  0.5163790000000  0.4025150000000  0.4841250000000 1.0
C      1  0.4860290000000  0.4019750000000  0.5140990000000 1.0
C      1  0.5140300000000  0.5971200000000  0.5156130000000 1.0
C      1  0.4027910000000  0.4833890000000  0.5141410000000 1.0
C      1  0.5977900000000  0.4857500000000  0.4852020000000 1.0
C      1  0.4026430000000  0.5137590000000  0.4841820000000 1.0
C      1  0.4854620000000  0.4492690000000  0.5144630000000 1.0
C      1  0.4499380000000  0.5143240000000  0.4844370000000 1.0
C      1  0.5157260000000  0.4850380000000  0.4496530000000 1.0
C      1  0.5145970000000  0.5498250000000  0.5153340000000 1.0
C      1  0.4845370000000  0.5496980000000  0.4848950000000 1.0
C      1  0.5158970000000  0.4498110000000  0.4844040000000 1.0
C      1  0.5504960000000  0.4851850000000  0.4848620000000 1.0
C      1  0.4500860000000  0.4838690000000  0.5144810000000 1.0
C      1  0.5499730000000  0.5152250000000  0.5153160000000 1.0
C      1  0.4851430000000  0.5149510000000  0.4496690000000 1.0
C      1  0.5147680000000  0.5145980000000  0.5500850000000 1.0
C      1  0.4848560000000  0.4840160000000  0.5496890000000 1.0
C      1  0.4856490000000  0.4494760000000  0.4842140000000 1.0
C      1  0.4497500000000  0.5141170000000  0.5146860000000 1.0
C      1  0.5151040000000  0.4843500000000  0.5498790000000 1.0
C      1  0.5147850000000  0.5500330000000  0.4850850000000 1.0
C      1  0.4843490000000  0.5494910000000  0.5151440000000 1.0
C      1  0.5157090000000  0.4496030000000  0.5146530000000 1.0
C      1  0.5503080000000  0.4849770000000  0.5151110000000 1.0
C      1  0.4502740000000  0.4840770000000  0.4842320000000 1.0
C      1  0.5501600000000  0.5154320000000  0.4850670000000 1.0
C      1  0.4845200000000  0.5142630000000  0.5498950000000 1.0
C      1  0.5153900000000  0.5152860000000  0.4498590000000 1.0
C      1  0.4854780000000  0.4847040000000  0.4494630000000 1.0
C      1  0.4262510000000  0.4721140000000  0.4722230000000 1.0
C      1  0.4739840000000  0.4729640000000  0.4250820000000 1.0
C      1  0.4742160000000  0.4252010000000  0.4721990000000 1.0
C      1  0.5743290000000  0.5275570000000  0.4735240000000 1.0
C      1  0.4253200000000  0.5255440000000  0.5263900000000 1.0
C      1  0.5745920000000  0.4733890000000  0.5269590000000 1.0
C      1  0.5271860000000  0.5273580000000  0.4257860000000 1.0
C      1  0.4724630000000  0.5257430000000  0.5741280000000 1.0
C      1  0.5268590000000  0.4725390000000  0.5741000000000 1.0
C      1  0.5263650000000  0.5744700000000  0.4735480000000 1.0
C      1  0.4722320000000  0.5735060000000  0.5270100000000 1.0
C      1  0.5276810000000  0.4254270000000  0.5263380000000 1.0
C      1  0.4259170000000  0.4717450000000  0.5260240000000 1.0
C      1  0.4730600000000  0.4719440000000  0.5737620000000 1.0
C      1  0.4738820000000  0.4248320000000  0.5260000000000 1.0
C      1  0.5739950000000  0.5271870000000  0.5273250000000 1.0
C      1  0.4256540000000  0.5259130000000  0.4725890000000 1.0
C      1  0.5749260000000  0.4737580000000  0.4731580000000 1.0
C      1  0.5262620000000  0.5263370000000  0.5744660000000 1.0
C      1  0.4733870000000  0.5267630000000  0.4254480000000 1.0
C      1  0.5277830000000  0.4735590000000  0.4254200000000 1.0
C      1  0.5260310000000  0.5741010000000  0.5273490000000 1.0
C      1  0.4725660000000  0.5738750000000  0.4732090000000 1.0
C      1  0.5280150000000  0.4257960000000  0.4725370000000 1.0
C      1  0.4749490000000  0.4739000000000  0.5247420000000 1.0
C      1  0.4747020000000  0.5248420000000  0.4744880000000 1.0
C      1  0.5258590000000  0.4748070000000  0.4744620000000 1.0
C      1  0.5249830000000  0.5250540000000  0.5254030000000 1.0
C      1  0.4752630000000  0.4742470000000  0.4741440000000 1.0
C      1  0.4743880000000  0.5244950000000  0.5250850000000 1.0
C      1  0.5255440000000  0.4744590000000  0.5250600000000 1.0
C      1  0.5252970000000  0.5254020000000  0.4748060000000 1.0
END
