TITL C-87958-8796-9 0.169284574931746 125000 -242.577744849965 0 0 36 (Th) n - 1
REM
REM in /rds/project/t2_vol4/rds-t2-cs072/BORA/CARBON/from-Arr/AIRSS/Generating-Clusters/GAP-ML-2020/Higher-Symm/SD-CG/HFTN-CG
REM
REM
REM
REM
REM
REM ./C.cell (b20cbc046b6831c77cfcea5457e17084)
REM AIRSS Version 0.9.1 bugfix July 2018 build 013d7b7c2542+ Fri, 06 Jul 2018 19:26:36 +0100
REM compiler GCC version 9.3.0
REM options -cpp -mtune=generic -march=x86-64 -g -O0
REM seed -1326599013 861870577 501980614 -82987944 -1605575924 879609829 1480132018 -662408127 -121353545 -1402701342 10775435 815361097 -1525224357 792951011 712587081 733670132 -1631659321 -774015832 1779366040 227006281 229376276 -626312164 -1335467268 1792092817 622519023 1966737936 -809242614 -1112610557 -1576292594 243322920 1796440435 1989978279 -57091916
REM
CELL 1.54180   50.00000   50.00000   50.00000   90.00000   90.00000   90.00000
LATT -1
SFAC C  
C      1  0.5239720000000  0.5291520000000  0.5459700000000 1.0
C      1  0.5291520000000  0.5459700000000  0.5239720000000 1.0
C      1  0.5459700000000  0.5239720000000  0.5291520000000 1.0
C      1  0.5239720000000  0.4708480000000  0.4540300000000 1.0
C      1  0.4760270000000  0.5291520000000  0.4540300000000 1.0
C      1  0.4760280000000  0.4708480000000  0.5459700000000 1.0
C      1  0.5291520000000  0.4540300000000  0.4760270000000 1.0
C      1  0.4708480000000  0.5459700000000  0.4760280000000 1.0
C      1  0.4708480000000  0.4540300000000  0.5239720000000 1.0
C      1  0.5459700000000  0.4760280000000  0.4708480000000 1.0
C      1  0.4540300000000  0.5239720000000  0.4708480000000 1.0
C      1  0.4540300000000  0.4760270000000  0.5291520000000 1.0
C      1  0.5239730000000  0.4708480000000  0.5459700000000 1.0
C      1  0.4708480000000  0.5459700000000  0.5239730000000 1.0
C      1  0.5459700000000  0.5239730000000  0.4708480000000 1.0
C      1  0.5239720000000  0.5291520000000  0.4540300000000 1.0
C      1  0.4760280000000  0.4708480000000  0.4540300000000 1.0
C      1  0.4760280000000  0.5291520000000  0.5459700000000 1.0
C      1  0.4708480000000  0.4540300000000  0.4760280000000 1.0
C      1  0.5291520000000  0.5459700000000  0.4760280000000 1.0
C      1  0.5291520000000  0.4540300000000  0.5239720000000 1.0
C      1  0.5459700000000  0.4760280000000  0.5291520000000 1.0
C      1  0.4540300000000  0.5239720000000  0.5291520000000 1.0
C      1  0.4540300000000  0.4760280000000  0.4708480000000 1.0
C      1  0.4858950000000  0.5515070000000  0.5000000000000 1.0
C      1  0.5515070000000  0.5000000000000  0.4858950000000 1.0
C      1  0.5000000000000  0.4858950000000  0.5515070000000 1.0
C      1  0.4858950000000  0.4484930000000  0.5000000000000 1.0
C      1  0.5141050000000  0.5515070000000  0.5000000000000 1.0
C      1  0.5141050000000  0.4484930000000  0.5000000000000 1.0
C      1  0.5515070000000  0.5000000000000  0.5141050000000 1.0
C      1  0.4484930000000  0.5000000000000  0.5141050000000 1.0
C      1  0.4484930000000  0.5000000000000  0.4858950000000 1.0
C      1  0.5000000000000  0.5141050000000  0.4484930000000 1.0
C      1  0.5000000000000  0.4858950000000  0.4484930000000 1.0
C      1  0.5000000000000  0.5141050000000  0.5515070000000 1.0
END
