TITL C-87958-8796-123 113.661610138931 125000 -482.21512825864 0 0 71 (C1) n - 1
REM
REM in /rds/project/t2_vol4/rds-t2-cs072/BORA/CARBON/from-Arr/AIRSS/Generating-Clusters/GAP-ML-2020/Higher-Symm/SD-CG/HFTN-CG
REM
REM
REM
REM
REM
REM ./C.cell (b20cbc046b6831c77cfcea5457e17084)
REM AIRSS Version 0.9.1 bugfix July 2018 build 013d7b7c2542+ Fri, 06 Jul 2018 19:26:36 +0100
REM compiler GCC version 9.3.0
REM options -cpp -mtune=generic -march=x86-64 -g -O0
REM seed -568291881 -1239865059 -83392439 -1781982301 -2032738710 -327139853 674683857 -168090904 1673478523 158288894 1369241305 1490238327 1769008679 -1394399720 1858896486 1262066905 -2050602646 -1614025232 702781902 1531342538 577437582 1754251148 -374130033 -275874120 -306945706 -2128926236 -409138748 1987437984 -854559975 -2077076953 1664912424 -1824404916 379173708
REM
CELL 1.54180   50.00000   50.00000   50.00000   90.00000   90.00000   90.00000
LATT -1
SFAC C  
C      1  0.4069120000000  0.4920440000000  0.5239510000000 1.0
C      1  0.5851450000000  0.5087440000000  0.5293190000000 1.0
C      1  0.4539250000000  0.4883300000000  0.4918330000000 1.0
C      1  0.5488920000000  0.5119520000000  0.4951070000000 1.0
C      1  0.5851800000000  0.4814370000000  0.5290860000000 1.0
C      1  0.4017960000000  0.5160140000000  0.5180460000000 1.0
C      1  0.5495570000000  0.4852310000000  0.4976330000000 1.0
C      1  0.4535920000000  0.5151890000000  0.4904400000000 1.0
C      1  0.4868090000000  0.4616030000000  0.5228150000000 1.0
C      1  0.5160610000000  0.5393810000000  0.5258450000000 1.0
C      1  0.4859970000000  0.4524010000000  0.4791080000000 1.0
C      1  0.5165690000000  0.5447110000000  0.4800000000000 1.0
C      1  0.5165420000000  0.4555730000000  0.5235110000000 1.0
C      1  0.4853680000000  0.5422550000000  0.5230330000000 1.0
C      1  0.5148450000000  0.4559230000000  0.4788410000000 1.0
C      1  0.4878970000000  0.5498080000000  0.4775390000000 1.0
C      1  0.4476360000000  0.5309340000000  0.5487970000000 1.0
C      1  0.5642650000000  0.4670760000000  0.5435900000000 1.0
C      1  0.4595080000000  0.5363850000000  0.4462010000000 1.0
C      1  0.5404680000000  0.4696230000000  0.4446040000000 1.0
C      1  0.5650060000000  0.5221430000000  0.5455760000000 1.0
C      1  0.4578700000000  0.4734130000000  0.5545410000000 1.0
C      1  0.5428140000000  0.5334300000000  0.4463260000000 1.0
C      1  0.4562480000000  0.4650450000000  0.4491210000000 1.0
C      1  0.4884530000000  0.4779500000000  0.5494080000000 1.0
C      1  0.5179110000000  0.5205760000000  0.5486330000000 1.0
C      1  0.4836710000000  0.4597860000000  0.4509200000000 1.0
C      1  0.5143300000000  0.5279540000000  0.4530830000000 1.0
C      1  0.5170580000000  0.4664210000000  0.5506280000000 1.0
C      1  0.4751780000000  0.5276630000000  0.5455730000000 1.0
C      1  0.5116880000000  0.4733820000000  0.4525380000000 1.0
C      1  0.4868880000000  0.5415590000000  0.4495210000000 1.0
C      1  0.5836850000000  0.4598300000000  0.5074410000000 1.0
C      1  0.4188720000000  0.5365760000000  0.5087420000000 1.0
C      1  0.5710440000000  0.4689300000000  0.4844130000000 1.0
C      1  0.4313600000000  0.5325380000000  0.4833730000000 1.0
C      1  0.4235360000000  0.4707530000000  0.5162820000000 1.0
C      1  0.5836290000000  0.5321050000000  0.5103180000000 1.0
C      1  0.4312340000000  0.4709560000000  0.4888040000000 1.0
C      1  0.5718140000000  0.5280400000000  0.4856610000000 1.0
C      1  0.5507380000000  0.4905120000000  0.4295950000000 1.0
C      1  0.4464630000000  0.5134810000000  0.4365350000000 1.0
C      1  0.5416560000000  0.4796630000000  0.5549660000000 1.0
C      1  0.4342440000000  0.5134240000000  0.5667790000000 1.0
C      1  0.4445800000000  0.4881760000000  0.4384940000000 1.0
C      1  0.5542490000000  0.5159300000000  0.4275110000000 1.0
C      1  0.4426950000000  0.4895020000000  0.5711680000000 1.0
C      1  0.5422060000000  0.5082130000000  0.5541820000000 1.0
C      1  0.5404010000000  0.5556050000000  0.5170890000000 1.0
C      1  0.4635260000000  0.4443860000000  0.5186050000000 1.0
C      1  0.5398430000000  0.5594840000000  0.4873440000000 1.0
C      1  0.4623100000000  0.4393370000000  0.4902710000000 1.0
C      1  0.4623150000000  0.5592590000000  0.5143090000000 1.0
C      1  0.5388590000000  0.4390350000000  0.5120830000000 1.0
C      1  0.4636610000000  0.5639410000000  0.4862640000000 1.0
C      1  0.5376120000000  0.4395310000000  0.4827470000000 1.0
C      1  0.4440610000000  0.4587500000000  0.5330640000000 1.0
C      1  0.5636810000000  0.5455570000000  0.5280400000000 1.0
C      1  0.4422640000000  0.4502920000000  0.4733730000000 1.0
C      1  0.5581890000000  0.5466750000000  0.4693860000000 1.0
C      1  0.5629670000000  0.4455750000000  0.5237240000000 1.0
C      1  0.4391710000000  0.5468710000000  0.5263070000000 1.0
C      1  0.5562780000000  0.4534860000000  0.4657900000000 1.0
C      1  0.4444760000000  0.5525350000000  0.4684740000000 1.0
C      1  0.5228670000000  0.4757970000000  0.5005040000000 1.0
C      1  0.4800210000000  0.5247520000000  0.4960030000000 1.0
C      1  0.5222410000000  0.5225440000000  0.5001550000000 1.0
C      1  0.4807410000000  0.4786420000000  0.4974870000000 1.0
C      1  0.4931900000000  0.5072770000000  0.5521470000000 1.0
C      1  0.5072380000000  0.5006280000000  0.4623280000000 1.0
C      1  0.5010130000000  0.5008440000000  0.4919190000000 1.0
END
