TITL C-87986-8819-2 1047.79972390689 125000 -313.904951387447 0 0 46 (Cs) n - 1
REM
REM in /rds/project/t2_vol4/rds-t2-cs072/BORA/CARBON/from-Arr/AIRSS/Generating-Clusters/GAP-ML-2020/Higher-Symm/SD-CG/HFTN-CG
REM
REM
REM
REM
REM
REM ./C.cell (b20cbc046b6831c77cfcea5457e17084)
REM AIRSS Version 0.9.1 bugfix July 2018 build 013d7b7c2542+ Fri, 06 Jul 2018 19:26:36 +0100
REM compiler GCC version 9.3.0
REM options -cpp -mtune=generic -march=x86-64 -g -O0
REM seed -436321756 1754313252 -324818456 -538000469 1670022945 1624193606 239763206 1045167720 1033135228 2006539470 -1797161802 -1695039867 -1322691678 1027448564 676592112 688816590 1662599949 -122382253 -613628289 -596353578 -815351992 252767449 1888759017 -1442539415 -66704910 1460383354 -785310747 -1278856474 84528753 1712773973 -405788318 -307841102 982872410
REM
CELL 1.54180   50.00000   50.00000   50.00000   90.00000   90.00000   90.00000
LATT -1
SFAC C  
C      1  0.5601050000000  0.5163430000000  0.5005490000000 1.0
C      1  0.5465300000000  0.5410070000000  0.5005430000000 1.0
C      1  0.5023760000000  0.5734660000000  0.4953540000000 1.0
C      1  0.4740210000000  0.5705210000000  0.4938060000000 1.0
C      1  0.4337200000000  0.5358740000000  0.4938500000000 1.0
C      1  0.4292510000000  0.5084610000000  0.4930360000000 1.0
C      1  0.4562600000000  0.4752570000000  0.5100700000000 1.0
C      1  0.4698670000000  0.4346670000000  0.4930550000000 1.0
C      1  0.4954170000000  0.4237770000000  0.4938790000000 1.0
C      1  0.5462500000000  0.4392900000000  0.4938400000000 1.0
C      1  0.5639080000000  0.4616710000000  0.4953830000000 1.0
C      1  0.5082830000000  0.4248110000000  0.4688010000000 1.0
C      1  0.5356320000000  0.4331140000000  0.4690550000000 1.0
C      1  0.5660800000000  0.4770910000000  0.4723060000000 1.0
C      1  0.5650340000000  0.5052320000000  0.4754360000000 1.0
C      1  0.5397860000000  0.5511050000000  0.4754240000000 1.0
C      1  0.5165710000000  0.5670440000000  0.4722830000000 1.0
C      1  0.4631280000000  0.5648450000000  0.4690220000000 1.0
C      1  0.4414820000000  0.5461810000000  0.4687700000000 1.0
C      1  0.4342790000000  0.4914210000000  0.4712470000000 1.0
C      1  0.4442140000000  0.4686200000000  0.4841850000000 1.0
C      1  0.4581650000000  0.4480230000000  0.4712580000000 1.0
C      1  0.5061820000000  0.5480620000000  0.4510380000000 1.0
C      1  0.4786670000000  0.5472380000000  0.4494040000000 1.0
C      1  0.4558210000000  0.5293010000000  0.4491120000000 1.0
C      1  0.4521020000000  0.5014740000000  0.4493410000000 1.0
C      1  0.4715450000000  0.4836520000000  0.4420600000000 1.0
C      1  0.4761980000000  0.4576940000000  0.4493520000000 1.0
C      1  0.5016980000000  0.4459480000000  0.4491330000000 1.0
C      1  0.5290750000000  0.4556540000000  0.4494270000000 1.0
C      1  0.5444910000000  0.4784600000000  0.4510560000000 1.0
C      1  0.5448290000000  0.5083050000000  0.4531140000000 1.0
C      1  0.5315770000000  0.5323820000000  0.4531080000000 1.0
C      1  0.5496750000000  0.5000770000000  0.5226400000000 1.0
C      1  0.5305160000000  0.5161340000000  0.5364360000000 1.0
C      1  0.5272030000000  0.5409050000000  0.5226290000000 1.0
C      1  0.5036740000000  0.5553310000000  0.5188740000000 1.0
C      1  0.4746310000000  0.5505800000000  0.5168670000000 1.0
C      1  0.4547470000000  0.5311400000000  0.5168870000000 1.0
C      1  0.4485000000000  0.5024880000000  0.5149010000000 1.0
C      1  0.4751140000000  0.4541340000000  0.5149140000000 1.0
C      1  0.5026620000000  0.4440840000000  0.5169090000000 1.0
C      1  0.5297240000000  0.4504820000000  0.5168930000000 1.0
C      1  0.5492750000000  0.4724790000000  0.5188960000000 1.0
C      1  0.5131930000000  0.5066040000000  0.5546070000000 1.0
C      1  0.4946880000000  0.4964220000000  0.5676520000000 1.0
END
