TITL C-87956-8769-3 23.1252019752241 125000 -901.06415463713 0 0 129 (C1) n - 1
REM
REM in /rds/project/t2_vol4/rds-t2-cs072/BORA/CARBON/from-Arr/AIRSS/Generating-Clusters/GAP-ML-2020/Higher-Symm/SD-CG/HFTN-CG
REM
REM
REM
REM
REM
REM ./C.cell (b20cbc046b6831c77cfcea5457e17084)
REM AIRSS Version 0.9.1 bugfix July 2018 build 013d7b7c2542+ Fri, 06 Jul 2018 19:26:36 +0100
REM compiler GCC version 9.3.0
REM options -cpp -mtune=generic -march=x86-64 -g -O0
REM seed 620561852 1341698432 -602661519 -1641951579 650368646 1322434369 1017112829 763535276 1035354174 1109047339 565954106 1960655532 -1848542363 -1009168497 -108251617 1124096453 825591323 -1369885401 1110601833 -218599987 1108294226 1905400058 -1524715528 -1791018425 -1226724171 -892825393 373187473 -1032935184 -1988549300 777879930 -312528480 -2104566399 -1080392109
REM
CELL 1.54180   50.00000   50.00000   50.00000   90.00000   90.00000   90.00000
LATT -1
SFAC C  
C      1  0.5871910000000  0.5332770000000  0.4551400000000 1.0
C      1  0.5903550000000  0.4441090000000  0.4889770000000 1.0
C      1  0.5891360000000  0.5193390000000  0.5592110000000 1.0
C      1  0.4115040000000  0.5398360000000  0.4570710000000 1.0
C      1  0.4150720000000  0.4464440000000  0.4926670000000 1.0
C      1  0.4078290000000  0.5229570000000  0.5497430000000 1.0
C      1  0.4062410000000  0.5211270000000  0.4789830000000 1.0
C      1  0.4021050000000  0.4726060000000  0.4907540000000 1.0
C      1  0.3980590000000  0.5120740000000  0.5249560000000 1.0
C      1  0.6083830000000  0.5167030000000  0.4659640000000 1.0
C      1  0.6038090000000  0.4704280000000  0.4802750000000 1.0
C      1  0.5961460000000  0.5100280000000  0.5107220000000 1.0
C      1  0.4514130000000  0.5206140000000  0.4184840000000 1.0
C      1  0.4549370000000  0.4105300000000  0.5158540000000 1.0
C      1  0.4494150000000  0.5596620000000  0.5609300000000 1.0
C      1  0.5469330000000  0.5230860000000  0.4171230000000 1.0
C      1  0.5464720000000  0.4145720000000  0.5241790000000 1.0
C      1  0.5433350000000  0.5545180000000  0.5600390000000 1.0
C      1  0.4044280000000  0.4919500000000  0.4709460000000 1.0
C      1  0.4024260000000  0.4845360000000  0.5177760000000 1.0
C      1  0.4038470000000  0.5319540000000  0.5049420000000 1.0
C      1  0.6005270000000  0.4887140000000  0.4590220000000 1.0
C      1  0.5938860000000  0.4832410000000  0.5036140000000 1.0
C      1  0.6132340000000  0.5229560000000  0.4924160000000 1.0
C      1  0.5272700000000  0.4388460000000  0.4848670000000 1.0
C      1  0.5178930000000  0.5142590000000  0.5776080000000 1.0
C      1  0.5244710000000  0.5504960000000  0.4515810000000 1.0
C      1  0.4770070000000  0.4384170000000  0.4839660000000 1.0
C      1  0.4699170000000  0.5149460000000  0.5687950000000 1.0
C      1  0.4742730000000  0.5516030000000  0.4514150000000 1.0
C      1  0.5125020000000  0.4197130000000  0.5563930000000 1.0
C      1  0.5126790000000  0.5858370000000  0.5415210000000 1.0
C      1  0.5135400000000  0.4908470000000  0.4054940000000 1.0
C      1  0.4843300000000  0.4194850000000  0.5519030000000 1.0
C      1  0.4835500000000  0.5859900000000  0.5413660000000 1.0
C      1  0.4841590000000  0.4890880000000  0.4058780000000 1.0
C      1  0.5482450000000  0.5489260000000  0.4315110000000 1.0
C      1  0.5476570000000  0.4180640000000  0.4955760000000 1.0
C      1  0.5438820000000  0.5264310000000  0.5685660000000 1.0
C      1  0.4517410000000  0.5474780000000  0.4309800000000 1.0
C      1  0.4548220000000  0.4178830000000  0.4879920000000 1.0
C      1  0.4461730000000  0.5347910000000  0.5759390000000 1.0
C      1  0.4462310000000  0.4326270000000  0.5312260000000 1.0
C      1  0.4414080000000  0.5672400000000  0.5334760000000 1.0
C      1  0.4440940000000  0.4949360000000  0.4286270000000 1.0
C      1  0.5526010000000  0.4356350000000  0.5423160000000 1.0
C      1  0.5520790000000  0.5626890000000  0.5349650000000 1.0
C      1  0.5564660000000  0.4965030000000  0.4242700000000 1.0
C      1  0.5233970000000  0.5736540000000  0.5663380000000 1.0
C      1  0.5228230000000  0.5181830000000  0.4044560000000 1.0
C      1  0.5267740000000  0.4005880000000  0.5390460000000 1.0
C      1  0.4734130000000  0.5725270000000  0.5647160000000 1.0
C      1  0.4723510000000  0.5152100000000  0.4006320000000 1.0
C      1  0.4764680000000  0.4002420000000  0.5309180000000 1.0
C      1  0.4930530000000  0.5580450000000  0.5799700000000 1.0
C      1  0.4839420000000  0.5375560000000  0.3904700000000 1.0
C      1  0.4961750000000  0.3825380000000  0.5242150000000 1.0
C      1  0.5133330000000  0.5726160000000  0.5917310000000 1.0
C      1  0.5024780000000  0.5372470000000  0.4103030000000 1.0
C      1  0.5186840000000  0.3746520000000  0.5338860000000 1.0
C      1  0.5728470000000  0.4217680000000  0.4821930000000 1.0
C      1  0.5714610000000  0.5195070000000  0.5806980000000 1.0
C      1  0.5737030000000  0.5560110000000  0.4427100000000 1.0
C      1  0.4318110000000  0.4298610000000  0.4746500000000 1.0
C      1  0.4199580000000  0.5223330000000  0.5759240000000 1.0
C      1  0.4263150000000  0.5575490000000  0.4403520000000 1.0
C      1  0.5428260000000  0.5294980000000  0.4709320000000 1.0
C      1  0.5484200000000  0.4639530000000  0.4871710000000 1.0
C      1  0.5501250000000  0.5092750000000  0.5421910000000 1.0
C      1  0.4568010000000  0.5375620000000  0.4735910000000 1.0
C      1  0.4574130000000  0.4633100000000  0.4924380000000 1.0
C      1  0.4520900000000  0.5084970000000  0.5416890000000 1.0
C      1  0.5323290000000  0.5792200000000  0.5214860000000 1.0
C      1  0.5349130000000  0.4772650000000  0.4194530000000 1.0
C      1  0.5315200000000  0.4407470000000  0.5612460000000 1.0
C      1  0.4633450000000  0.5825050000000  0.5210010000000 1.0
C      1  0.4643420000000  0.4752860000000  0.4216850000000 1.0
C      1  0.4631630000000  0.4395750000000  0.5535430000000 1.0
C      1  0.5202790000000  0.4855190000000  0.5164210000000 1.0
C      1  0.5047020000000  0.5285360000000  0.5346280000000 1.0
C      1  0.5023230000000  0.5085660000000  0.4602060000000 1.0
C      1  0.4988400000000  0.4684140000000  0.5129600000000 1.0
C      1  0.4838870000000  0.5279650000000  0.5165660000000 1.0
C      1  0.4822320000000  0.5012910000000  0.4770950000000 1.0
C      1  0.4396300000000  0.4454050000000  0.4524190000000 1.0
C      1  0.4187160000000  0.4961760000000  0.5713640000000 1.0
C      1  0.4218010000000  0.5658240000000  0.4655200000000 1.0
C      1  0.5766130000000  0.4388820000000  0.4619340000000 1.0
C      1  0.5797500000000  0.4947600000000  0.5717670000000 1.0
C      1  0.5765630000000  0.5584770000000  0.4693140000000 1.0
C      1  0.4344670000000  0.4527600000000  0.5146000000000 1.0
C      1  0.4311690000000  0.5281080000000  0.5325690000000 1.0
C      1  0.4339510000000  0.5201830000000  0.4666880000000 1.0
C      1  0.5733190000000  0.4625970000000  0.5082920000000 1.0
C      1  0.5771270000000  0.5221730000000  0.5301610000000 1.0
C      1  0.5665520000000  0.5143060000000  0.4616100000000 1.0
C      1  0.5716850000000  0.4887260000000  0.4484780000000 1.0
C      1  0.5657710000000  0.4591490000000  0.5361120000000 1.0
C      1  0.5667560000000  0.5469490000000  0.5177650000000 1.0
C      1  0.4311820000000  0.4927630000000  0.4555030000000 1.0
C      1  0.4222940000000  0.4717240000000  0.5317840000000 1.0
C      1  0.4278910000000  0.5502780000000  0.5130060000000 1.0
C      1  0.5159530000000  0.4426120000000  0.4559200000000 1.0
C      1  0.5105160000000  0.4866090000000  0.5771690000000 1.0
C      1  0.5143530000000  0.5708390000000  0.4716260000000 1.0
C      1  0.4870570000000  0.4413550000000  0.4561530000000 1.0
C      1  0.4805950000000  0.4860660000000  0.5735290000000 1.0
C      1  0.4851830000000  0.5736730000000  0.4710220000000 1.0
C      1  0.5586230000000  0.4621920000000  0.4573420000000 1.0
C      1  0.5569850000000  0.4811910000000  0.5546310000000 1.0
C      1  0.5560900000000  0.5517220000000  0.4896500000000 1.0
C      1  0.4449480000000  0.4695510000000  0.4655350000000 1.0
C      1  0.4376470000000  0.4829430000000  0.5535500000000 1.0
C      1  0.4418530000000  0.5602130000000  0.4870710000000 1.0
C      1  0.4792950000000  0.5271520000000  0.4887170000000 1.0
C      1  0.4761250000000  0.4833380000000  0.5015030000000 1.0
C      1  0.4685590000000  0.5047620000000  0.5197490000000 1.0
C      1  0.5255770000000  0.5078860000000  0.4752950000000 1.0
C      1  0.5336310000000  0.4878050000000  0.4924080000000 1.0
C      1  0.5243090000000  0.5098070000000  0.5287820000000 1.0
C      1  0.5329590000000  0.5718640000000  0.4937080000000 1.0
C      1  0.5351200000000  0.4569270000000  0.4401200000000 1.0
C      1  0.5317740000000  0.4686060000000  0.5687600000000 1.0
C      1  0.4650070000000  0.5787890000000  0.4923360000000 1.0
C      1  0.4651740000000  0.4519480000000  0.4399570000000 1.0
C      1  0.4614680000000  0.4665140000000  0.5639400000000 1.0
C      1  0.4954810000000  0.5300300000000  0.5678430000000 1.0
C      1  0.5017960000000  0.4436040000000  0.4995870000000 1.0
C      1  0.4992670000000  0.5377000000000  0.4416860000000 1.0
END
