TITL C-87961-8881-12 -3.37037720726448 125000 -197.410786166336 0 0 30 (C5v) n - 1
REM
REM in /rds/project/t2_vol4/rds-t2-cs072/BORA/CARBON/from-Arr/AIRSS/Generating-Clusters/GAP-ML-2020/Higher-Symm/SD-CG/HFTN-CG
REM
REM
REM
REM
REM
REM ./C.cell (b20cbc046b6831c77cfcea5457e17084)
REM AIRSS Version 0.9.1 bugfix July 2018 build 013d7b7c2542+ Fri, 06 Jul 2018 19:26:36 +0100
REM compiler GCC version 9.3.0
REM options -cpp -mtune=generic -march=x86-64 -g -O0
REM seed 876253024 -1444785396 -543895037 156024195 -318530035 400666720 -899431492 -1943061962 16305781 -984752582 535358106 -580189046 203741419 1193881676 823678640 -1625706358 -130226225 -1532731916 -1768702820 1736940040 1317412117 -50799864 1226681906 -667494428 -2010076756 -122512835 -1221251063 -1402956618 -482501975 -567768444 1432840800 -851031339 -823799795
REM
CELL 1.54180   50.00000   50.00000   50.00000   90.00000   90.00000   90.00000
LATT -1
SFAC C  
C      1  0.4870330000000  0.5128430000000  0.4383140000000 1.0
C      1  0.4870740000000  0.4452900000000  0.4687270000000 1.0
C      1  0.4871280000000  0.4533400000000  0.5423720000000 1.0
C      1  0.4871210000000  0.5258680000000  0.5574740000000 1.0
C      1  0.4870620000000  0.5626430000000  0.4931620000000 1.0
C      1  0.4645410000000  0.5682030000000  0.5084060000000 1.0
C      1  0.4644970000000  0.5290390000000  0.4377430000000 1.0
C      1  0.4645290000000  0.4497310000000  0.4531540000000 1.0
C      1  0.4645930000000  0.4398810000000  0.5333420000000 1.0
C      1  0.4646000000000  0.5131000000000  0.5674900000000 1.0
C      1  0.5260470000000  0.5318850000000  0.5297110000000 1.0
C      1  0.5260060000000  0.5381330000000  0.4788490000000 1.0
C      1  0.5260020000000  0.4916920000000  0.4571900000000 1.0
C      1  0.5260400000000  0.4567410000000  0.4946650000000 1.0
C      1  0.5260670000000  0.4815820000000  0.5394860000000 1.0
C      1  0.5005920000000  0.4889500000000  0.4431320000000 1.0
C      1  0.5006430000000  0.4425010000000  0.4929360000000 1.0
C      1  0.5006800000000  0.4755140000000  0.5525020000000 1.0
C      1  0.5006520000000  0.5423660000000  0.5395110000000 1.0
C      1  0.5005980000000  0.5506700000000  0.4719170000000 1.0
C      1  0.5346440000000  0.5076060000000  0.5390700000000 1.0
C      1  0.5346090000000  0.5395390000000  0.5048300000000 1.0
C      1  0.5345840000000  0.5168430000000  0.4638790000000 1.0
C      1  0.5346030000000  0.4708830000000  0.4728100000000 1.0
C      1  0.5346400000000  0.4651740000000  0.5192800000000 1.0
C      1  0.4871320000000  0.4975280000000  0.5629810000000 1.0
C      1  0.4870850000000  0.5591230000000  0.5218160000000 1.0
C      1  0.4870350000000  0.5390070000000  0.4505160000000 1.0
C      1  0.4870520000000  0.4649800000000  0.4476150000000 1.0
C      1  0.4871120000000  0.4393450000000  0.5171220000000 1.0
END
