TITL C-87979-8829-11 13.1430523522056 125000 -293.923866673123 0 0 45 (D3h) n - 1
REM
REM in /rds/project/t2_vol4/rds-t2-cs072/BORA/CARBON/from-Arr/AIRSS/Generating-Clusters/GAP-ML-2020/Higher-Symm/SD-CG/HFTN-CG
REM
REM
REM
REM
REM
REM ./C.cell (b20cbc046b6831c77cfcea5457e17084)
REM AIRSS Version 0.9.1 bugfix July 2018 build 013d7b7c2542+ Fri, 06 Jul 2018 19:26:36 +0100
REM compiler GCC version 9.3.0
REM options -cpp -mtune=generic -march=x86-64 -g -O0
REM seed -1740100524 1565057176 52898571 -61610840 777772772 428367064 498491144 -1242448822 -1093046751 1880815399 -1758296605 500554757 -1401897061 -1461125325 -198945322 1192619661 -858869452 255751941 1776628760 1838749737 1239315060 -1159694412 1441069597 1867456844 -402962072 971647533 1664738142 -1755757161 -1695714689 -1046874660 648319514 -2023980023 449990077
REM
CELL 1.54180   50.00000   50.00000   50.00000   90.00000   90.00000   90.00000
LATT -1
SFAC C  
C      1  0.4857410000000  0.4749290000000  0.5448120000000 1.0
C      1  0.5459940000000  0.4750260000000  0.4899760000000 1.0
C      1  0.4683790000000  0.4749010000000  0.4652130000000 1.0
C      1  0.4856650000000  0.5221210000000  0.5448110000000 1.0
C      1  0.5459180000000  0.5222170000000  0.4899760000000 1.0
C      1  0.4683030000000  0.5220920000000  0.4652120000000 1.0
C      1  0.5141700000000  0.4749750000000  0.5448640000000 1.0
C      1  0.4541190000000  0.4748780000000  0.4898070000000 1.0
C      1  0.5318250000000  0.4750030000000  0.4653300000000 1.0
C      1  0.5140940000000  0.5221660000000  0.5448640000000 1.0
C      1  0.4540430000000  0.5220690000000  0.4898060000000 1.0
C      1  0.5317490000000  0.5221940000000  0.4653290000000 1.0
C      1  0.5252260000000  0.4230710000000  0.5291750000000 1.0
C      1  0.5128350000000  0.4230500000000  0.4636730000000 1.0
C      1  0.4623040000000  0.4229690000000  0.5071540000000 1.0
C      1  0.5249820000000  0.5741060000000  0.5291740000000 1.0
C      1  0.5125920000000  0.5740860000000  0.4636710000000 1.0
C      1  0.4620610000000  0.5740050000000  0.5071530000000 1.0
C      1  0.4749100000000  0.4229900000000  0.5290820000000 1.0
C      1  0.4875420000000  0.4230090000000  0.4636260000000 1.0
C      1  0.5379130000000  0.4230910000000  0.5072940000000 1.0
C      1  0.4746670000000  0.5740250000000  0.5290810000000 1.0
C      1  0.4872990000000  0.5740450000000  0.4636250000000 1.0
C      1  0.5376690000000  0.5741260000000  0.5072930000000 1.0
C      1  0.5151280000000  0.4520840000000  0.4736850000000 1.0
C      1  0.4697580000000  0.4520110000000  0.5001220000000 1.0
C      1  0.5153380000000  0.4520850000000  0.5261950000000 1.0
C      1  0.5149780000000  0.5450590000000  0.4736840000000 1.0
C      1  0.4696080000000  0.5449860000000  0.5001210000000 1.0
C      1  0.5151890000000  0.5450600000000  0.5261940000000 1.0
C      1  0.4851190000000  0.4520360000000  0.4736290000000 1.0
C      1  0.5303910000000  0.4521090000000  0.5002340000000 1.0
C      1  0.4847150000000  0.4520360000000  0.5261380000000 1.0
C      1  0.4849690000000  0.5450110000000  0.4736280000000 1.0
C      1  0.5302410000000  0.5450840000000  0.5002330000000 1.0
C      1  0.4845650000000  0.5450110000000  0.5261370000000 1.0
C      1  0.5536330000000  0.4986340000000  0.5037760000000 1.0
C      1  0.5237240000000  0.4985850000000  0.4517520000000 1.0
C      1  0.4463540000000  0.4984610000000  0.5035780000000 1.0
C      1  0.5299220000000  0.4985960000000  0.5446700000000 1.0
C      1  0.4764540000000  0.4985090000000  0.4516650000000 1.0
C      1  0.4699130000000  0.4985000000000  0.5445590000000 1.0
C      1  0.5001160000000  0.4985470000000  0.4371840000000 1.0
C      1  0.4455420000000  0.4984600000000  0.5313070000000 1.0
C      1  0.5543420000000  0.4986350000000  0.5315080000000 1.0
END
