TITL C-87959-8898-1 0.0975565773256475 125000 -390.33104540797 0 0 58 (C3) n - 1
REM
REM in /rds/project/t2_vol4/rds-t2-cs072/BORA/CARBON/from-Arr/AIRSS/Generating-Clusters/GAP-ML-2020/Higher-Symm/SD-CG/HFTN-CG
REM
REM
REM
REM
REM
REM ./C.cell (b20cbc046b6831c77cfcea5457e17084)
REM AIRSS Version 0.9.1 bugfix July 2018 build 013d7b7c2542+ Fri, 06 Jul 2018 19:26:36 +0100
REM compiler GCC version 9.3.0
REM options -cpp -mtune=generic -march=x86-64 -g -O0
REM seed 1163854913 1189712231 -368600897 -477299475 -236175293 -625783298 -1734029525 -272872521 -993152622 31251321 1139662822 -1866074094 1355019292 1344111417 1982787396 306235638 -1174856425 539885306 63518573 1910213892 -312206603 587114923 -1845353851 274104843 1055295147 827701612 -447362026 1750943546 813912277 -1441568041 39341810 2050927465 753670547
REM
CELL 1.54180   50.00000   50.00000   50.00000   90.00000   90.00000   90.00000
LATT -1
SFAC C  
C      1  0.5569520000000  0.5256330000000  0.5078780000000 1.0
C      1  0.4654200000000  0.5257100000000  0.5449420000000 1.0
C      1  0.4790880000000  0.5257460000000  0.4471410000000 1.0
C      1  0.4805250000000  0.5367180000000  0.5212670000000 1.0
C      1  0.4920610000000  0.5367310000000  0.4720580000000 1.0
C      1  0.5289090000000  0.5366750000000  0.5066530000000 1.0
C      1  0.4353850000000  0.4716880000000  0.5005280000000 1.0
C      1  0.5324600000000  0.4716160000000  0.4433440000000 1.0
C      1  0.5334450000000  0.4715560000000  0.5560060000000 1.0
C      1  0.5147490000000  0.4223930000000  0.4925950000000 1.0
C      1  0.4995490000000  0.4223970000000  0.5160470000000 1.0
C      1  0.4868390000000  0.4224230000000  0.4911580000000 1.0
C      1  0.5200420000000  0.4960980000000  0.4323960000000 1.0
C      1  0.5491850000000  0.4960060000000  0.5507220000000 1.0
C      1  0.4321410000000  0.4961460000000  0.5167980000000 1.0
C      1  0.5394410000000  0.5557340000000  0.4627240000000 1.0
C      1  0.5133410000000  0.5557150000000  0.5523500000000 1.0
C      1  0.4487720000000  0.5558170000000  0.4849340000000 1.0
C      1  0.4663500000000  0.4788210000000  0.5495960000000 1.0
C      1  0.4744980000000  0.4788660000000  0.4456260000000 1.0
C      1  0.5604650000000  0.4787460000000  0.5046670000000 1.0
C      1  0.5656320000000  0.4906920000000  0.4784100000000 1.0
C      1  0.4865300000000  0.4907290000000  0.5671970000000 1.0
C      1  0.4491890000000  0.4908260000000  0.4543000000000 1.0
C      1  0.5400370000000  0.4595750000000  0.5083500000000 1.0
C      1  0.4733360000000  0.4596340000000  0.5300660000000 1.0
C      1  0.4878800000000  0.4596540000000  0.4614430000000 1.0
C      1  0.4939730000000  0.5071120000000  0.4773000000000 1.0
C      1  0.5233540000000  0.5070660000000  0.5056920000000 1.0
C      1  0.4840750000000  0.5071010000000  0.5169410000000 1.0
C      1  0.5170800000000  0.4644380000000  0.4667310000000 1.0
C      1  0.5208680000000  0.4644010000000  0.5309930000000 1.0
C      1  0.4633210000000  0.4644760000000  0.5021430000000 1.0
C      1  0.5581520000000  0.5008430000000  0.5238600000000 1.0
C      1  0.4509300000000  0.5009480000000  0.5379940000000 1.0
C      1  0.4923010000000  0.5009560000000  0.4380690000000 1.0
C      1  0.5648090000000  0.5190900000000  0.4815500000000 1.0
C      1  0.4842790000000  0.5191310000000  0.5649110000000 1.0
C      1  0.4523520000000  0.5192220000000  0.4534900000000 1.0
C      1  0.4309900000000  0.4852730000000  0.4751610000000 1.0
C      1  0.5566540000000  0.4851530000000  0.4522200000000 1.0
C      1  0.5136890000000  0.4851360000000  0.5725180000000 1.0
C      1  0.4752610000000  0.5514590000000  0.4940860000000 1.0
C      1  0.5182620000000  0.5514210000000  0.4810880000000 1.0
C      1  0.5080180000000  0.5514090000000  0.5248270000000 1.0
C      1  0.4741200000000  0.4463090000000  0.4819950000000 1.0
C      1  0.5290920000000  0.4462490000000  0.4861590000000 1.0
C      1  0.4979990000000  0.4462580000000  0.5316840000000 1.0
C      1  0.5087160000000  0.4967340000000  0.5271170000000 1.0
C      1  0.4728190000000  0.4967890000000  0.4935530000000 1.0
C      1  0.5198350000000  0.4967480000000  0.4792470000000 1.0
C      1  0.4387220000000  0.5313390000000  0.4758160000000 1.0
C      1  0.5523130000000  0.5312300000000  0.4585830000000 1.0
C      1  0.5104420000000  0.5312180000000  0.5655720000000 1.0
C      1  0.5295910000000  0.5094060000000  0.5684650000000 1.0
C      1  0.4265980000000  0.5095540000000  0.4909560000000 1.0
C      1  0.5452200000000  0.5094560000000  0.4405160000000 1.0
C      1  0.5005290000000  0.5665120000000  0.5000080000000 1.0
END
