TITL C-87980-3875-4 -0.0472367250565564 125000 -511.836190867561 0 0 72 (C1) n - 1
REM
REM in /rds/project/t2_vol4/rds-t2-cs072/BORA/CARBON/from-Arr/AIRSS/Generating-Clusters/GAP-ML-2020/Higher-Symm/SD-CG/HFTN-CG
REM
REM
REM
REM
REM
REM ./C.cell (b20cbc046b6831c77cfcea5457e17084)
REM AIRSS Version 0.9.1 bugfix July 2018 build 013d7b7c2542+ Fri, 06 Jul 2018 19:26:36 +0100
REM compiler GCC version 9.3.0
REM options -cpp -mtune=generic -march=x86-64 -g -O0
REM seed 286298874 759816430 -896442392 1416249331 380005546 1724789122 961854424 1526665448 -837223997 2026798978 -763390013 -749069283 -2028184623 316538187 925065870 343046721 1507387590 -1069875400 -617658859 159130062 818016455 -378640765 -1386092776 -550314339 1523333462 1781830211 1946573715 931530826 1423008439 -1680540806 -2076667613 -1582313045 1204456732
REM
CELL 1.54180   50.00000   50.00000   50.00000   90.00000   90.00000   90.00000
LATT -1
SFAC C  
C      1  0.5396250000000  0.4715120000000  0.5542890000000 1.0
C      1  0.5397120000000  0.4420750000000  0.4875350000000 1.0
C      1  0.5365750000000  0.4959290000000  0.4387080000000 1.0
C      1  0.5368730000000  0.5586440000000  0.4736990000000 1.0
C      1  0.5366340000000  0.5447630000000  0.5443170000000 1.0
C      1  0.5115480000000  0.5143430000000  0.5693100000000 1.0
C      1  0.5115900000000  0.4435250000000  0.5300760000000 1.0
C      1  0.5135620000000  0.4505330000000  0.4496690000000 1.0
C      1  0.5134590000000  0.5363910000000  0.4358270000000 1.0
C      1  0.5130710000000  0.5744450000000  0.5106080000000 1.0
C      1  0.5373420000000  0.5411570000000  0.4513980000000 1.0
C      1  0.5365290000000  0.5606680000000  0.5207420000000 1.0
C      1  0.5337440000000  0.4997780000000  0.5563910000000 1.0
C      1  0.5376130000000  0.4455810000000  0.5158440000000 1.0
C      1  0.5352490000000  0.4696110000000  0.4499860000000 1.0
C      1  0.5001720000000  0.4106080000000  0.4769870000000 1.0
C      1  0.4871860000000  0.4689550000000  0.4137350000000 1.0
C      1  0.4886900000000  0.5665150000000  0.4683980000000 1.0
C      1  0.4887650000000  0.5545640000000  0.5524020000000 1.0
C      1  0.5003410000000  0.4510350000000  0.5796940000000 1.0
C      1  0.5025890000000  0.5155410000000  0.4854200000000 1.0
C      1  0.5020180000000  0.5159630000000  0.5159020000000 1.0
C      1  0.5131050000000  0.4943980000000  0.5308370000000 1.0
C      1  0.4969880000000  0.4743370000000  0.4918690000000 1.0
C      1  0.5078590000000  0.4904350000000  0.4706850000000 1.0
C      1  0.4626750000000  0.5120830000000  0.5605160000000 1.0
C      1  0.4626650000000  0.4489350000000  0.5265280000000 1.0
C      1  0.4637070000000  0.4593280000000  0.4563630000000 1.0
C      1  0.4645350000000  0.5321010000000  0.4469220000000 1.0
C      1  0.4625980000000  0.5656150000000  0.5107130000000 1.0
C      1  0.4510970000000  0.4852320000000  0.4551330000000 1.0
C      1  0.4476570000000  0.5424880000000  0.4684640000000 1.0
C      1  0.4477350000000  0.5457610000000  0.5262420000000 1.0
C      1  0.4485350000000  0.4918280000000  0.5461420000000 1.0
C      1  0.4476290000000  0.4550460000000  0.5028200000000 1.0
C      1  0.5514510000000  0.5519680000000  0.4976930000000 1.0
C      1  0.5514680000000  0.5201090000000  0.5451090000000 1.0
C      1  0.5539970000000  0.4639820000000  0.5306380000000 1.0
C      1  0.5520370000000  0.4627360000000  0.4723070000000 1.0
C      1  0.5519160000000  0.5162150000000  0.4524670000000 1.0
C      1  0.5161590000000  0.4540420000000  0.5570720000000 1.0
C      1  0.5169800000000  0.4326130000000  0.4716410000000 1.0
C      1  0.5131990000000  0.5089690000000  0.4283910000000 1.0
C      1  0.5131790000000  0.5729630000000  0.4818450000000 1.0
C      1  0.5125710000000  0.5409930000000  0.5596430000000 1.0
C      1  0.4892590000000  0.5489950000000  0.4441490000000 1.0
C      1  0.4884210000000  0.5694710000000  0.5241730000000 1.0
C      1  0.4867620000000  0.5005180000000  0.5706440000000 1.0
C      1  0.4858680000000  0.4339040000000  0.5195900000000 1.0
C      1  0.4874720000000  0.4575730000000  0.4391120000000 1.0
C      1  0.4336180000000  0.5249270000000  0.5126810000000 1.0
C      1  0.4334520000000  0.4980620000000  0.5230840000000 1.0
C      1  0.4335610000000  0.4794300000000  0.5010440000000 1.0
C      1  0.4352570000000  0.4949090000000  0.4768230000000 1.0
C      1  0.4338080000000  0.5229830000000  0.4838800000000 1.0
C      1  0.4643780000000  0.5047850000000  0.4386170000000 1.0
C      1  0.4627230000000  0.5638580000000  0.4821610000000 1.0
C      1  0.4632600000000  0.5386520000000  0.5501530000000 1.0
C      1  0.4629910000000  0.4672850000000  0.5481000000000 1.0
C      1  0.4614790000000  0.4440540000000  0.4801610000000 1.0
C      1  0.5655070000000  0.4831010000000  0.4864170000000 1.0
C      1  0.5654820000000  0.5098320000000  0.4761260000000 1.0
C      1  0.5653710000000  0.5275880000000  0.4986580000000 1.0
C      1  0.5660620000000  0.5117340000000  0.5226660000000 1.0
C      1  0.5667410000000  0.4838910000000  0.5153140000000 1.0
C      1  0.4853350000000  0.5350770000000  0.4720050000000 1.0
C      1  0.4870710000000  0.5389540000000  0.5273040000000 1.0
C      1  0.4852480000000  0.4714530000000  0.5666430000000 1.0
C      1  0.4834810000000  0.4274340000000  0.4914600000000 1.0
C      1  0.4882970000000  0.4943030000000  0.4248920000000 1.0
C      1  0.5121680000000  0.4708190000000  0.5154480000000 1.0
C      1  0.4848680000000  0.4993400000000  0.5011600000000 1.0
END
