TITL C-87978-8782-3 0.0289850084222405 125000 -299.532411657269 0 0 44 (C1) n - 1
REM
REM in /rds/project/t2_vol4/rds-t2-cs072/BORA/CARBON/from-Arr/AIRSS/Generating-Clusters/GAP-ML-2020/Higher-Symm/SD-CG/HFTN-CG
REM
REM
REM
REM
REM
REM ./C.cell (b20cbc046b6831c77cfcea5457e17084)
REM AIRSS Version 0.9.1 bugfix July 2018 build 013d7b7c2542+ Fri, 06 Jul 2018 19:26:36 +0100
REM compiler GCC version 9.3.0
REM options -cpp -mtune=generic -march=x86-64 -g -O0
REM seed -423546711 -2144439136 1986544346 1156305596 -734325231 1035424997 72757895 1432901434 1293479562 -1928956101 1949238990 -133352515 376482383 -1385188304 -1408120767 120833571 -624881446 -279588012 -1644130745 -821929153 542766288 1440171854 -2037145462 1607455758 -1260916786 -1049878115 896560308 -1100425416 -1305594853 679807376 685589753 846916001 -1482132838
REM
CELL 1.54180   50.00000   50.00000   50.00000   90.00000   90.00000   90.00000
LATT -1
SFAC C  
C      1  0.4600070000000  0.5355580000000  0.5332250000000 1.0
C      1  0.4844680000000  0.5483360000000  0.5372660000000 1.0
C      1  0.5075280000000  0.5421950000000  0.5527980000000 1.0
C      1  0.5306810000000  0.5461890000000  0.5369570000000 1.0
C      1  0.5528110000000  0.5295550000000  0.5334750000000 1.0
C      1  0.5580390000000  0.5012220000000  0.5308920000000 1.0
C      1  0.5256500000000  0.4567900000000  0.5318970000000 1.0
C      1  0.4972850000000  0.4500190000000  0.5338270000000 1.0
C      1  0.4711930000000  0.4588150000000  0.5320850000000 1.0
C      1  0.4517100000000  0.4814700000000  0.5318880000000 1.0
C      1  0.4474930000000  0.5087840000000  0.5320080000000 1.0
C      1  0.4436060000000  0.5440980000000  0.5097480000000 1.0
C      1  0.4944150000000  0.5642850000000  0.5141130000000 1.0
C      1  0.5222830000000  0.5626070000000  0.5137820000000 1.0
C      1  0.5701000000000  0.5347500000000  0.5085620000000 1.0
C      1  0.5748190000000  0.5071200000000  0.5068140000000 1.0
C      1  0.5469730000000  0.4751170000000  0.5263760000000 1.0
C      1  0.5290860000000  0.4361060000000  0.5109350000000 1.0
C      1  0.5029380000000  0.4270340000000  0.5126020000000 1.0
C      1  0.4538900000000  0.4451970000000  0.5111200000000 1.0
C      1  0.4361840000000  0.4669900000000  0.5102550000000 1.0
C      1  0.4302030000000  0.5191090000000  0.5088310000000 1.0
C      1  0.5275210000000  0.4834280000000  0.4590410000000 1.0
C      1  0.5230460000000  0.4573340000000  0.4661100000000 1.0
C      1  0.4974190000000  0.4458260000000  0.4659030000000 1.0
C      1  0.4702310000000  0.4559920000000  0.4647870000000 1.0
C      1  0.4546360000000  0.4787550000000  0.4645350000000 1.0
C      1  0.4531480000000  0.5084690000000  0.4643170000000 1.0
C      1  0.4665640000000  0.5324960000000  0.4649290000000 1.0
C      1  0.4929860000000  0.5464630000000  0.4669240000000 1.0
C      1  0.5204480000000  0.5457030000000  0.4665550000000 1.0
C      1  0.5442760000000  0.5288720000000  0.4649120000000 1.0
C      1  0.5477430000000  0.5009680000000  0.4651660000000 1.0
C      1  0.4635040000000  0.4358680000000  0.4869000000000 1.0
C      1  0.4322100000000  0.4783330000000  0.4850180000000 1.0
C      1  0.4299010000000  0.5063170000000  0.4842900000000 1.0
C      1  0.4560200000000  0.5519480000000  0.4862010000000 1.0
C      1  0.4816910000000  0.5631420000000  0.4891850000000 1.0
C      1  0.5345600000000  0.5606170000000  0.4888270000000 1.0
C      1  0.5582060000000  0.5450970000000  0.4855630000000 1.0
C      1  0.5664570000000  0.4903110000000  0.4859140000000 1.0
C      1  0.5567050000000  0.4678830000000  0.4997080000000 1.0
C      1  0.5410360000000  0.4478670000000  0.4881530000000 1.0
C      1  0.4903280000000  0.4269640000000  0.4876040000000 1.0
END
