TITL C-87969-9976-6 -612.747773562243 125000 -150.719521558467 0 0 23 (C1) n - 1
REM
REM in /rds/project/t2_vol4/rds-t2-cs072/BORA/CARBON/from-Arr/AIRSS/Generating-Clusters/GAP-ML-2020/Higher-Symm/SD-CG/HFTN-CG
REM
REM
REM
REM
REM
REM ./C.cell (b20cbc046b6831c77cfcea5457e17084)
REM AIRSS Version 0.9.1 bugfix July 2018 build 013d7b7c2542+ Fri, 06 Jul 2018 19:26:36 +0100
REM compiler GCC version 9.3.0
REM options -cpp -mtune=generic -march=x86-64 -g -O0
REM seed -42862774 -1290552951 -1699538045 -1111654533 195341119 -171531576 319641726 1435203965 621451245 -1471323187 -98418518 -1606996207 -462293781 1601253681 -1135349286 -870563653 1560867008 -514698904 -274604235 -438017132 707830 -1065389733 1089971310 902923349 -154142164 1918931889 210598472 964784124 1174503696 -1515267328 -1307943081 -1551175364 -2142717378
REM
CELL 1.54180   50.00000   50.00000   50.00000   90.00000   90.00000   90.00000
LATT -1
SFAC C  
C      1  0.5527230000000  0.5144630000000  0.5372440000000 1.0
C      1  0.4625910000000  0.4857630000000  0.4649990000000 1.0
C      1  0.4597350000000  0.4744010000000  0.4926210000000 1.0
C      1  0.5482280000000  0.4981640000000  0.5152050000000 1.0
C      1  0.4913500000000  0.5560040000000  0.4684120000000 1.0
C      1  0.4607600000000  0.4490390000000  0.5031190000000 1.0
C      1  0.4847350000000  0.4825370000000  0.4486080000000 1.0
C      1  0.5279600000000  0.5167040000000  0.5442680000000 1.0
C      1  0.4891300000000  0.5359770000000  0.4875010000000 1.0
C      1  0.4970780000000  0.4660100000000  0.5322570000000 1.0
C      1  0.5243350000000  0.4620090000000  0.5304360000000 1.0
C      1  0.4654510000000  0.5197500000000  0.4907960000000 1.0
C      1  0.4869720000000  0.4936740000000  0.5292050000000 1.0
C      1  0.5294510000000  0.5007220000000  0.4662070000000 1.0
C      1  0.4509590000000  0.5108580000000  0.4685410000000 1.0
C      1  0.5468310000000  0.4708320000000  0.5218630000000 1.0
C      1  0.5050090000000  0.5154970000000  0.5296140000000 1.0
C      1  0.5085440000000  0.4911860000000  0.4544440000000 1.0
C      1  0.4959020000000  0.5737700000000  0.4509780000000 1.0
C      1  0.4780440000000  0.4475710000000  0.5222450000000 1.0
C      1  0.5341330000000  0.5115310000000  0.4920850000000 1.0
C      1  0.4678600000000  0.4966810000000  0.5085390000000 1.0
C      1  0.5109550000000  0.5252170000000  0.5024380000000 1.0
END
