TITL C-87965-8749-5 -452.670621369311 125000 -517.620409192481 0 0 75 (C1) n - 1
REM
REM in /rds/project/t2_vol4/rds-t2-cs072/BORA/CARBON/from-Arr/AIRSS/Generating-Clusters/GAP-ML-2020/Higher-Symm/SD-CG/HFTN-CG
REM
REM
REM
REM
REM
REM ./C.cell (b20cbc046b6831c77cfcea5457e17084)
REM AIRSS Version 0.9.1 bugfix July 2018 build 013d7b7c2542+ Fri, 06 Jul 2018 19:26:36 +0100
REM compiler GCC version 9.3.0
REM options -cpp -mtune=generic -march=x86-64 -g -O0
REM seed 1231287651 1058689727 1133037130 670211873 1199041365 781469898 -1377359203 -116148286 421371143 -156568055 1548282818 1035425029 50441209 -82215773 1334677697 -63316213 1617087217 -761531780 -458389192 -331527448 1298196159 -778288183 1819590939 -505814315 -2076789726 -879997721 -1142956424 1378476980 1625010398 -956774242 -1668736139 342711019 -409065072
REM
CELL 1.54180   50.00000   50.00000   50.00000   90.00000   90.00000   90.00000
LATT -1
SFAC C  
C      1  0.5038750000000  0.5060770000000  0.4256450000000 1.0
C      1  0.5220600000000  0.4934080000000  0.4989790000000 1.0
C      1  0.5258160000000  0.5401680000000  0.5086420000000 1.0
C      1  0.3955240000000  0.5299580000000  0.5028430000000 1.0
C      1  0.5836570000000  0.4851810000000  0.4878960000000 1.0
C      1  0.5018440000000  0.5323360000000  0.4356360000000 1.0
C      1  0.4742750000000  0.4660960000000  0.5619150000000 1.0
C      1  0.4763990000000  0.5618120000000  0.4673550000000 1.0
C      1  0.4622210000000  0.5072010000000  0.4448410000000 1.0
C      1  0.4766170000000  0.5363500000000  0.5141930000000 1.0
C      1  0.4843540000000  0.4262960000000  0.5276910000000 1.0
C      1  0.4912580000000  0.4322410000000  0.4784410000000 1.0
C      1  0.5794580000000  0.5118720000000  0.4753010000000 1.0
C      1  0.5378960000000  0.5347830000000  0.5584030000000 1.0
C      1  0.4563820000000  0.5397320000000  0.5514870000000 1.0
C      1  0.4784850000000  0.5335250000000  0.4535100000000 1.0
C      1  0.4441860000000  0.4478090000000  0.5322600000000 1.0
C      1  0.4695580000000  0.5806850000000  0.5125730000000 1.0
C      1  0.5752960000000  0.4873820000000  0.5149570000000 1.0
C      1  0.5201040000000  0.4333360000000  0.4807610000000 1.0
C      1  0.5454920000000  0.5454330000000  0.4879360000000 1.0
C      1  0.4382680000000  0.4671040000000  0.4626370000000 1.0
C      1  0.5487370000000  0.4435970000000  0.5278620000000 1.0
C      1  0.4818590000000  0.4904820000000  0.4325900000000 1.0
C      1  0.5626170000000  0.4501130000000  0.4629870000000 1.0
C      1  0.4679610000000  0.4419380000000  0.5464480000000 1.0
C      1  0.4735600000000  0.4281400000000  0.5009700000000 1.0
C      1  0.4988930000000  0.5412940000000  0.4955670000000 1.0
C      1  0.4212090000000  0.5324530000000  0.4956480000000 1.0
C      1  0.5497760000000  0.4833390000000  0.5539000000000 1.0
C      1  0.4899060000000  0.5186270000000  0.4778570000000 1.0
C      1  0.5214350000000  0.4659330000000  0.4410280000000 1.0
C      1  0.5351870000000  0.5594380000000  0.5478090000000 1.0
C      1  0.4967570000000  0.5053000000000  0.5694100000000 1.0
C      1  0.4671980000000  0.5143070000000  0.5574240000000 1.0
C      1  0.5312800000000  0.5135230000000  0.5197970000000 1.0
C      1  0.4380980000000  0.5060520000000  0.4891480000000 1.0
C      1  0.5140640000000  0.5185130000000  0.5494320000000 1.0
C      1  0.5119440000000  0.4261040000000  0.5298540000000 1.0
C      1  0.5126000000000  0.5016060000000  0.4748240000000 1.0
C      1  0.5459600000000  0.5164090000000  0.4392170000000 1.0
C      1  0.4298870000000  0.4817900000000  0.5063740000000 1.0
C      1  0.5282300000000  0.4935620000000  0.4306920000000 1.0
C      1  0.5713620000000  0.5154530000000  0.4487600000000 1.0
C      1  0.4804630000000  0.4924730000000  0.5162820000000 1.0
C      1  0.4574570000000  0.5703030000000  0.4864450000000 1.0
C      1  0.4869360000000  0.5179520000000  0.5342070000000 1.0
C      1  0.4423920000000  0.4953350000000  0.4609350000000 1.0
C      1  0.4383260000000  0.5552790000000  0.5013870000000 1.0
C      1  0.5265280000000  0.4669720000000  0.5629750000000 1.0
C      1  0.4571760000000  0.5556400000000  0.5264390000000 1.0
C      1  0.4467330000000  0.4392840000000  0.5045950000000 1.0
C      1  0.5236690000000  0.5653160000000  0.5239360000000 1.0
C      1  0.5018140000000  0.4782230000000  0.5079230000000 1.0
C      1  0.5038230000000  0.5663970000000  0.4799000000000 1.0
C      1  0.5566460000000  0.5126700000000  0.5501570000000 1.0
C      1  0.5069350000000  0.5820180000000  0.5069390000000 1.0
C      1  0.5633080000000  0.5133630000000  0.5207790000000 1.0
C      1  0.5275940000000  0.5395210000000  0.4448250000000 1.0
C      1  0.4324240000000  0.4594570000000  0.4898290000000 1.0
C      1  0.4518710000000  0.4470650000000  0.4508250000000 1.0
C      1  0.4790530000000  0.4455360000000  0.4560310000000 1.0
C      1  0.5353670000000  0.4470340000000  0.4590070000000 1.0
C      1  0.5303600000000  0.4300110000000  0.5078090000000 1.0
C      1  0.4996430000000  0.4773100000000  0.5700110000000 1.0
C      1  0.5629130000000  0.4684910000000  0.5327860000000 1.0
C      1  0.4672520000000  0.5111160000000  0.4972420000000 1.0
C      1  0.5673850000000  0.5291720000000  0.4947630000000 1.0
C      1  0.5299650000000  0.5567270000000  0.4668960000000 1.0
C      1  0.4365050000000  0.4751210000000  0.5343350000000 1.0
C      1  0.5281640000000  0.4422760000000  0.5483450000000 1.0
C      1  0.4541390000000  0.4868060000000  0.5553400000000 1.0
C      1  0.4874100000000  0.6003230000000  0.5147260000000 1.0
C      1  0.4932160000000  0.4645540000000  0.4403380000000 1.0
C      1  0.5829890000000  0.4614970000000  0.4724910000000 1.0
END
