TITL C-87983-8794-2 -0.14634560467969 125000 -177.000720100491 0 0 27 (C1) n - 1
REM
REM in /rds/project/t2_vol4/rds-t2-cs072/BORA/CARBON/from-Arr/AIRSS/Generating-Clusters/GAP-ML-2020/Higher-Symm/SD-CG/HFTN-CG
REM
REM
REM
REM
REM
REM ./C.cell (b20cbc046b6831c77cfcea5457e17084)
REM AIRSS Version 0.9.1 bugfix July 2018 build 013d7b7c2542+ Fri, 06 Jul 2018 19:26:36 +0100
REM compiler GCC version 9.3.0
REM options -cpp -mtune=generic -march=x86-64 -g -O0
REM seed 730685165 1269625517 317281469 -1105221126 -1726132428 -464020202 2020279853 -965646286 -521010639 -1245705167 971723986 1749371911 -59500831 1085734925 -1766770576 485667256 192990038 -1500683740 -1794117083 317755247 -161279936 -1449257127 -726361952 1841364423 -2085029656 96795024 1972913028 -1311136432 -504234586 -722133751 -628225841 -1947120793 -841521555
REM
CELL 1.54180   50.00000   50.00000   50.00000   90.00000   90.00000   90.00000
LATT -1
SFAC C  
C      1  0.5096630000000  0.5341460000000  0.4737270000000 1.0
C      1  0.5086960000000  0.4676380000000  0.5246920000000 1.0
C      1  0.5129020000000  0.4649450000000  0.4697140000000 1.0
C      1  0.5114500000000  0.5355580000000  0.5310390000000 1.0
C      1  0.4817890000000  0.4763390000000  0.5297610000000 1.0
C      1  0.4827250000000  0.5254750000000  0.4684310000000 1.0
C      1  0.4840610000000  0.5309730000000  0.5379140000000 1.0
C      1  0.4843730000000  0.4684740000000  0.4640180000000 1.0
C      1  0.4769920000000  0.4824660000000  0.4390960000000 1.0
C      1  0.4769410000000  0.5166320000000  0.5625470000000 1.0
C      1  0.4796850000000  0.5049210000000  0.4509470000000 1.0
C      1  0.4796950000000  0.4940850000000  0.5506090000000 1.0
C      1  0.5121990000000  0.5570560000000  0.4906350000000 1.0
C      1  0.5118740000000  0.4463610000000  0.5072200000000 1.0
C      1  0.5183290000000  0.4395910000000  0.4837140000000 1.0
C      1  0.5156170000000  0.5602870000000  0.5154420000000 1.0
C      1  0.5311990000000  0.4857530000000  0.5250790000000 1.0
C      1  0.5310080000000  0.5154750000000  0.4756850000000 1.0
C      1  0.5312760000000  0.5153740000000  0.5263250000000 1.0
C      1  0.5316820000000  0.4858030000000  0.4743610000000 1.0
C      1  0.4656470000000  0.4653160000000  0.4844200000000 1.0
C      1  0.4635400000000  0.5312180000000  0.5173250000000 1.0
C      1  0.4638060000000  0.5267540000000  0.4901680000000 1.0
C      1  0.4628110000000  0.4799280000000  0.5069710000000 1.0
C      1  0.5464420000000  0.4859200000000  0.5000640000000 1.0
C      1  0.5459200000000  0.5154810000000  0.5009170000000 1.0
C      1  0.4522280000000  0.5072280000000  0.5057000000000 1.0
END
