TITL C-87965-8749-1 -0.179669856482781 125000 -742.301304280307 0 0 108 (C1) n - 1
REM
REM in /rds/project/t2_vol4/rds-t2-cs072/BORA/CARBON/from-Arr/AIRSS/Generating-Clusters/GAP-ML-2020/Higher-Symm/SD-CG/HFTN-CG
REM
REM
REM
REM
REM
REM ./C.cell (b20cbc046b6831c77cfcea5457e17084)
REM AIRSS Version 0.9.1 bugfix July 2018 build 013d7b7c2542+ Fri, 06 Jul 2018 19:26:36 +0100
REM compiler GCC version 9.3.0
REM options -cpp -mtune=generic -march=x86-64 -g -O0
REM seed 436210727 1317191688 -2108282827 325127602 -750794764 162910571 41880203 1489665061 1304703184 -1058702301 1752998416 -1860517473 1661832835 -829052239 2111206819 677016793 -835671539 -931684657 789306576 -558452245 1740763497 1274534274 -171836398 1074344110 1388588133 -203103354 -1062182688 333349956 1716936918 -327183335 1014125162 -54768469 573119804
REM
CELL 1.54180   50.00000   50.00000   50.00000   90.00000   90.00000   90.00000
LATT -1
SFAC C  
C      1  0.5496320000000  0.4896210000000  0.4357290000000 1.0
C      1  0.5267370000000  0.5501840000000  0.4344010000000 1.0
C      1  0.4681690000000  0.5401470000000  0.4338990000000 1.0
C      1  0.4601750000000  0.4793310000000  0.4276280000000 1.0
C      1  0.5079180000000  0.4505230000000  0.4437720000000 1.0
C      1  0.5508070000000  0.4900970000000  0.5646680000000 1.0
C      1  0.5278550000000  0.5486530000000  0.5599830000000 1.0
C      1  0.4671860000000  0.5386230000000  0.5592370000000 1.0
C      1  0.4610140000000  0.4801990000000  0.5735040000000 1.0
C      1  0.5087700000000  0.4501420000000  0.5542900000000 1.0
C      1  0.5873090000000  0.4881570000000  0.5144950000000 1.0
C      1  0.5439730000000  0.5781210000000  0.5121490000000 1.0
C      1  0.4409560000000  0.5553970000000  0.5115560000000 1.0
C      1  0.4038980000000  0.4706280000000  0.4967580000000 1.0
C      1  0.5114140000000  0.4178710000000  0.5158110000000 1.0
C      1  0.5849590000000  0.4890270000000  0.4850250000000 1.0
C      1  0.5423090000000  0.5789660000000  0.4826570000000 1.0
C      1  0.4402540000000  0.5576710000000  0.4813200000000 1.0
C      1  0.4138440000000  0.4670450000000  0.4707970000000 1.0
C      1  0.5097740000000  0.4175110000000  0.4869590000000 1.0
C      1  0.4821270000000  0.4396010000000  0.4525660000000 1.0
C      1  0.5547640000000  0.4649120000000  0.4527220000000 1.0
C      1  0.5515560000000  0.5429920000000  0.4471630000000 1.0
C      1  0.4779260000000  0.5652460000000  0.4463090000000 1.0
C      1  0.4380870000000  0.4997010000000  0.4362400000000 1.0
C      1  0.4836400000000  0.4365850000000  0.5521920000000 1.0
C      1  0.5580990000000  0.4641990000000  0.5476310000000 1.0
C      1  0.5521810000000  0.5412870000000  0.5460660000000 1.0
C      1  0.4777750000000  0.5632150000000  0.5453750000000 1.0
C      1  0.4378670000000  0.4967420000000  0.5608860000000 1.0
C      1  0.5346930000000  0.4260950000000  0.4763660000000 1.0
C      1  0.5719670000000  0.5102540000000  0.4723540000000 1.0
C      1  0.5170170000000  0.5767520000000  0.4713300000000 1.0
C      1  0.4305560000000  0.5373510000000  0.4642950000000 1.0
C      1  0.4391260000000  0.4553250000000  0.4645180000000 1.0
C      1  0.5395410000000  0.4211260000000  0.5239900000000 1.0
C      1  0.5739860000000  0.5075190000000  0.5289490000000 1.0
C      1  0.5196580000000  0.5778560000000  0.5258070000000 1.0
C      1  0.4301500000000  0.5338350000000  0.5271210000000 1.0
C      1  0.4420070000000  0.4546230000000  0.5402960000000 1.0
C      1  0.5387830000000  0.4430560000000  0.5438330000000 1.0
C      1  0.5647090000000  0.5148940000000  0.5538600000000 1.0
C      1  0.5075590000000  0.5676460000000  0.5483460000000 1.0
C      1  0.4401410000000  0.5259350000000  0.5536960000000 1.0
C      1  0.4607310000000  0.4517440000000  0.5611080000000 1.0
C      1  0.5343200000000  0.4447300000000  0.4543040000000 1.0
C      1  0.5629610000000  0.5153510000000  0.4457380000000 1.0
C      1  0.5072430000000  0.5688630000000  0.4459760000000 1.0
C      1  0.4414700000000  0.5289290000000  0.4390900000000 1.0
C      1  0.4575820000000  0.4530500000000  0.4424850000000 1.0
C      1  0.5758720000000  0.4636660000000  0.5241020000000 1.0
C      1  0.5582510000000  0.5544600000000  0.5199980000000 1.0
C      1  0.4651180000000  0.5682600000000  0.5201380000000 1.0
C      1  0.4262480000000  0.4778880000000  0.5430310000000 1.0
C      1  0.4851150000000  0.4204250000000  0.5276610000000 1.0
C      1  0.5734400000000  0.4648180000000  0.4754420000000 1.0
C      1  0.5571710000000  0.5578770000000  0.4713460000000 1.0
C      1  0.4630800000000  0.5712740000000  0.4708210000000 1.0
C      1  0.4245860000000  0.4916600000000  0.4596870000000 1.0
C      1  0.4839510000000  0.4259570000000  0.4784020000000 1.0
C      1  0.4797440000000  0.4861440000000  0.5975980000000 1.0
C      1  0.5071140000000  0.4771690000000  0.5931110000000 1.0
C      1  0.5340480000000  0.4887570000000  0.5954710000000 1.0
C      1  0.5200690000000  0.5122450000000  0.5990390000000 1.0
C      1  0.4897770000000  0.5125690000000  0.6014130000000 1.0
C      1  0.4814350000000  0.4807400000000  0.4044070000000 1.0
C      1  0.5080750000000  0.4701150000000  0.4122290000000 1.0
C      1  0.5336410000000  0.4844500000000  0.4072600000000 1.0
C      1  0.5206290000000  0.5082350000000  0.4001070000000 1.0
C      1  0.4906940000000  0.5070390000000  0.3972330000000 1.0
C      1  0.5529470000000  0.4269870000000  0.4991020000000 1.0
C      1  0.5472780000000  0.5152030000000  0.4889620000000 1.0
C      1  0.5017080000000  0.5580640000000  0.4878130000000 1.0
C      1  0.4323810000000  0.5124270000000  0.4800430000000 1.0
C      1  0.4555720000000  0.4625670000000  0.4868110000000 1.0
C      1  0.5152170000000  0.4518250000000  0.5254170000000 1.0
C      1  0.5469740000000  0.5030110000000  0.5142400000000 1.0
C      1  0.5120510000000  0.5515470000000  0.5133920000000 1.0
C      1  0.4289210000000  0.5097850000000  0.5100200000000 1.0
C      1  0.4576430000000  0.4535880000000  0.5136070000000 1.0
C      1  0.5239630000000  0.4989250000000  0.5554740000000 1.0
C      1  0.5162340000000  0.5252800000000  0.5720200000000 1.0
C      1  0.4786800000000  0.5162840000000  0.5424520000000 1.0
C      1  0.4804840000000  0.4876540000000  0.5530430000000 1.0
C      1  0.5056670000000  0.4773140000000  0.5641210000000 1.0
C      1  0.5237510000000  0.5017040000000  0.4453950000000 1.0
C      1  0.5159930000000  0.5256210000000  0.4242420000000 1.0
C      1  0.4784060000000  0.5192470000000  0.4551760000000 1.0
C      1  0.4795030000000  0.4895760000000  0.4475230000000 1.0
C      1  0.5048950000000  0.4793060000000  0.4391770000000 1.0
C      1  0.5054590000000  0.4780870000000  0.5143540000000 1.0
C      1  0.5205380000000  0.5015960000000  0.5261790000000 1.0
C      1  0.5009680000000  0.5242940000000  0.5224050000000 1.0
C      1  0.4626660000000  0.5041180000000  0.5181700000000 1.0
C      1  0.4766740000000  0.4779430000000  0.5241730000000 1.0
C      1  0.5052930000000  0.4829070000000  0.4860390000000 1.0
C      1  0.5198180000000  0.5078110000000  0.4749140000000 1.0
C      1  0.4984620000000  0.5285610000000  0.4760940000000 1.0
C      1  0.4636180000000  0.5087120000000  0.4803450000000 1.0
C      1  0.4763090000000  0.4820930000000  0.4763160000000 1.0
C      1  0.5709420000000  0.4481990000000  0.4994030000000 1.0
C      1  0.4782100000000  0.5738770000000  0.4944190000000 1.0
C      1  0.4133680000000  0.4859100000000  0.5176040000000 1.0
C      1  0.4699840000000  0.4291100000000  0.5046760000000 1.0
C      1  0.5618700000000  0.5409380000000  0.4936300000000 1.0
C      1  0.4873110000000  0.5285340000000  0.4154990000000 1.0
C      1  0.4870310000000  0.5296700000000  0.5789490000000 1.0
C      1  0.4806380000000  0.5207390000000  0.5004400000000 1.0
END
