TITL C-89349-4128-8 -0.0844735740199391 125000 -831.418180130235 0 0 120 (Cs) n - 1
REM
REM in /rds/project/t2_vol4/rds-t2-cs072/BORA/CARBON/from-Arr/AIRSS/Generating-Clusters/GAP-ML-2020/Higher-Symm/SD-CG/HFTN-CG
REM
REM
REM
REM
REM
REM ./C.cell (b20cbc046b6831c77cfcea5457e17084)
REM AIRSS Version 0.9.1 bugfix July 2018 build 013d7b7c2542+ Fri, 06 Jul 2018 19:26:36 +0100
REM compiler GCC version 9.3.0
REM options -cpp -mtune=generic -march=x86-64 -g -O0
REM seed 1445267409 732348597 1345644118 -2007449123 847502442 -260974886 608134809 592057996 885706807 -781760375 820787945 2036817090 596459900 -453181462 1563424727 -667512201 174551673 -1003124193 1747344283 2082941953 -684169863 992121983 -716480536 -1576609129 -530556125 1505506609 -103408627 -1679558955 783204594 -2108750222 1569803128 -935882423 1290482415
REM
CELL 1.54180   50.00000   50.00000   50.00000   90.00000   90.00000   90.00000
LATT -1
SFAC C  
C      1  0.5263650000000  0.4665160000000  0.4714770000000 1.0
C      1  0.4736320000000  0.4665170000000  0.4714780000000 1.0
C      1  0.4851170000000  0.5540280000000  0.5055040000000 1.0
C      1  0.5148850000000  0.5540270000000  0.5055030000000 1.0
C      1  0.5538100000000  0.4283770000000  0.5116790000000 1.0
C      1  0.4461890000000  0.4283790000000  0.5116820000000 1.0
C      1  0.5135000000000  0.5237240000000  0.4231570000000 1.0
C      1  0.4864960000000  0.5237240000000  0.4231570000000 1.0
C      1  0.5541640000000  0.5137620000000  0.4902850000000 1.0
C      1  0.4458360000000  0.5137640000000  0.4902880000000 1.0
C      1  0.4330950000000  0.4681580000000  0.5443600000000 1.0
C      1  0.5669060000000  0.4681560000000  0.5443570000000 1.0
C      1  0.4642870000000  0.5832580000000  0.4686250000000 1.0
C      1  0.5357140000000  0.5832570000000  0.4686230000000 1.0
C      1  0.4859080000000  0.4775950000000  0.5864290000000 1.0
C      1  0.5140960000000  0.4775940000000  0.5864280000000 1.0
C      1  0.4477370000000  0.5787340000000  0.4931230000000 1.0
C      1  0.5522650000000  0.5787320000000  0.4931200000000 1.0
C      1  0.5533980000000  0.5683000000000  0.5499990000000 1.0
C      1  0.4466070000000  0.5683020000000  0.5500020000000 1.0
C      1  0.4048810000000  0.4918150000000  0.4962280000000 1.0
C      1  0.5951180000000  0.4918110000000  0.4962230000000 1.0
C      1  0.5260340000000  0.5829710000000  0.5086090000000 1.0
C      1  0.4739690000000  0.5829720000000  0.5086100000000 1.0
C      1  0.5149120000000  0.4945380000000  0.5062870000000 1.0
C      1  0.4850880000000  0.4945380000000  0.5062880000000 1.0
C      1  0.4857050000000  0.4223150000000  0.5378920000000 1.0
C      1  0.5142940000000  0.4223150000000  0.5378910000000 1.0
C      1  0.4845820000000  0.5202730000000  0.5441990000000 1.0
C      1  0.5154210000000  0.5202720000000  0.5441980000000 1.0
C      1  0.4727560000000  0.4466490000000  0.4277060000000 1.0
C      1  0.5272380000000  0.4466480000000  0.4277040000000 1.0
C      1  0.4258010000000  0.5213570000000  0.4695300000000 1.0
C      1  0.5741980000000  0.5213540000000  0.4695260000000 1.0
C      1  0.4444040000000  0.5005070000000  0.5802130000000 1.0
C      1  0.5556000000000  0.5005050000000  0.5802100000000 1.0
C      1  0.4353470000000  0.4878740000000  0.5005500000000 1.0
C      1  0.5646530000000  0.4878720000000  0.5005470000000 1.0
C      1  0.4742580000000  0.5118970000000  0.4817520000000 1.0
C      1  0.5257410000000  0.5118970000000  0.4817510000000 1.0
C      1  0.5558420000000  0.5067680000000  0.4276150000000 1.0
C      1  0.4441550000000  0.5067700000000  0.4276180000000 1.0
C      1  0.5554260000000  0.5336190000000  0.4207010000000 1.0
C      1  0.4445710000000  0.5336200000000  0.4207040000000 1.0
C      1  0.5327320000000  0.4389110000000  0.5526200000000 1.0
C      1  0.4672690000000  0.4389120000000  0.5526220000000 1.0
C      1  0.5280770000000  0.5031450000000  0.5896020000000 1.0
C      1  0.4719280000000  0.5031460000000  0.5896030000000 1.0
C      1  0.4355790000000  0.5431070000000  0.5474660000000 1.0
C      1  0.5644250000000  0.5431050000000  0.5474630000000 1.0
C      1  0.5142660000000  0.4711590000000  0.4173470000000 1.0
C      1  0.4857290000000  0.4711600000000  0.4173480000000 1.0
C      1  0.4745540000000  0.4972370000000  0.4296710000000 1.0
C      1  0.5254420000000  0.4972360000000  0.4296690000000 1.0
C      1  0.4861010000000  0.5886270000000  0.5361290000000 1.0
C      1  0.5139040000000  0.5886260000000  0.5361280000000 1.0
C      1  0.3992290000000  0.4704180000000  0.4780460000000 1.0
C      1  0.6007690000000  0.4704150000000  0.4780410000000 1.0
C      1  0.5325140000000  0.5452500000000  0.4308890000000 1.0
C      1  0.4674840000000  0.5452510000000  0.4308910000000 1.0
C      1  0.5158750000000  0.5403620000000  0.4774110000000 1.0
C      1  0.4841250000000  0.5403630000000  0.4774120000000 1.0
C      1  0.5144080000000  0.4423900000000  0.4548990000000 1.0
C      1  0.4855870000000  0.4423900000000  0.4549000000000 1.0
C      1  0.4742460000000  0.5289230000000  0.5734800000000 1.0
C      1  0.5257600000000  0.5289220000000  0.5734780000000 1.0
C      1  0.4715040000000  0.5383020000000  0.5244320000000 1.0
C      1  0.5284980000000  0.5383010000000  0.5244300000000 1.0
C      1  0.5502910000000  0.4329180000000  0.4328190000000 1.0
C      1  0.4497030000000  0.4329200000000  0.4328220000000 1.0
C      1  0.4735160000000  0.4180480000000  0.4666120000000 1.0
C      1  0.5264800000000  0.4180470000000  0.4666100000000 1.0
C      1  0.5577410000000  0.4742010000000  0.5707670000000 1.0
C      1  0.4422620000000  0.4742030000000  0.5707700000000 1.0
C      1  0.5954810000000  0.4443610000000  0.4848490000000 1.0
C      1  0.4045160000000  0.4443640000000  0.4848540000000 1.0
C      1  0.4440070000000  0.4882540000000  0.5279570000000 1.0
C      1  0.5559940000000  0.4882520000000  0.5279540000000 1.0
C      1  0.4863930000000  0.5952150000000  0.4842100000000 1.0
C      1  0.5136090000000  0.5952140000000  0.4842090000000 1.0
C      1  0.5285250000000  0.4147430000000  0.5135250000000 1.0
C      1  0.4714730000000  0.4147440000000  0.5135270000000 1.0
C      1  0.5891480000000  0.5426940000000  0.4833920000000 1.0
C      1  0.4108520000000  0.5426970000000  0.4833970000000 1.0
C      1  0.5563640000000  0.4665610000000  0.4782270000000 1.0
C      1  0.4436340000000  0.4665630000000  0.4782300000000 1.0
C      1  0.4843280000000  0.4928000000000  0.4596830000000 1.0
C      1  0.5156690000000  0.4927990000000  0.4596820000000 1.0
C      1  0.5781990000000  0.4757760000000  0.4594750000000 1.0
C      1  0.4217980000000  0.4757780000000  0.4594790000000 1.0
C      1  0.5695220000000  0.5576340000000  0.4987330000000 1.0
C      1  0.4304800000000  0.5576360000000  0.4987370000000 1.0
C      1  0.4463110000000  0.4231450000000  0.4597200000000 1.0
C      1  0.5536840000000  0.4231440000000  0.4597170000000 1.0
C      1  0.4250450000000  0.5010490000000  0.4478780000000 1.0
C      1  0.5749520000000  0.5010460000000  0.4478740000000 1.0
C      1  0.4721240000000  0.4973100000000  0.5311590000000 1.0
C      1  0.5278770000000  0.4973090000000  0.5311570000000 1.0
C      1  0.5139250000000  0.5565920000000  0.5750790000000 1.0
C      1  0.4860810000000  0.5565930000000  0.5750800000000 1.0
C      1  0.4444620000000  0.5265200000000  0.5681130000000 1.0
C      1  0.5555420000000  0.5265190000000  0.5681100000000 1.0
C      1  0.5289570000000  0.5583900000000  0.4562570000000 1.0
C      1  0.4710420000000  0.5583910000000  0.4562580000000 1.0
C      1  0.4671040000000  0.4596740000000  0.5733720000000 1.0
C      1  0.5328980000000  0.4596730000000  0.5733700000000 1.0
C      1  0.4719410000000  0.5755370000000  0.5577440000000 1.0
C      1  0.5280650000000  0.5755360000000  0.5577420000000 1.0
C      1  0.3993500000000  0.5180430000000  0.4884860000000 1.0
C      1  0.6006500000000  0.5180400000000  0.4884810000000 1.0
C      1  0.4857430000000  0.4080850000000  0.4899130000000 1.0
C      1  0.5142540000000  0.4080850000000  0.4899120000000 1.0
C      1  0.5141730000000  0.4661080000000  0.4976620000000 1.0
C      1  0.4858250000000  0.4661090000000  0.4976630000000 1.0
C      1  0.4436740000000  0.4424580000000  0.5363300000000 1.0
C      1  0.5563260000000  0.4424570000000  0.5363260000000 1.0
C      1  0.4333320000000  0.4374370000000  0.4852560000000 1.0
C      1  0.5666650000000  0.4374350000000  0.4852520000000 1.0
C      1  0.5568930000000  0.5355860000000  0.5148810000000 1.0
C      1  0.4431090000000  0.5355880000000  0.5148840000000 1.0
END
