TITL C-89149-4161-6 -44.9493377756638 125000 -838.334652773805 0 0 120 (Ci) n - 1
REM
REM in /rds/project/t2_vol4/rds-t2-cs072/BORA/CARBON/from-Arr/AIRSS/Generating-Clusters/GAP-ML-2020/Higher-Symm/SD-CG/HFTN-CG
REM
REM
REM
REM
REM
REM ./C.cell (b20cbc046b6831c77cfcea5457e17084)
REM AIRSS Version 0.9.1 bugfix July 2018 build 013d7b7c2542+ Fri, 06 Jul 2018 19:26:36 +0100
REM compiler GCC version 9.3.0
REM options -cpp -mtune=generic -march=x86-64 -g -O0
REM seed -1196778236 -100254054 1308830119 -222345111 2114481696 -50399391 526174609 -503847830 -424083764 1082993049 691553938 -763432573 -808448300 1421612018 1993507769 -1153826786 1309340930 152188712 24148807 -2052894761 -2116746367 255290715 1545006365 -403346200 -2039087575 -948761538 1508413108 668853864 -1095133283 -2021751425 -741353862 -385625189 1681825135
REM
CELL 1.54180   50.00000   50.00000   50.00000   90.00000   90.00000   90.00000
LATT -1
SFAC C  
C      1  0.4659450000000  0.5147800000000  0.4743840000000 1.0
C      1  0.5340550000000  0.4852200000000  0.5256160000000 1.0
C      1  0.4939530000000  0.5352860000000  0.5157690000000 1.0
C      1  0.5060470000000  0.4647140000000  0.4842310000000 1.0
C      1  0.4725010000000  0.4197090000000  0.5305190000000 1.0
C      1  0.5274990000000  0.5802910000000  0.4694810000000 1.0
C      1  0.4765290000000  0.4568920000000  0.4264120000000 1.0
C      1  0.5234710000000  0.5431080000000  0.5735880000000 1.0
C      1  0.4353960000000  0.5125800000000  0.4831790000000 1.0
C      1  0.5646040000000  0.4874200000000  0.5168210000000 1.0
C      1  0.4347700000000  0.5361630000000  0.5436820000000 1.0
C      1  0.5652300000000  0.4638370000000  0.4563180000000 1.0
C      1  0.4783190000000  0.5730600000000  0.5468990000000 1.0
C      1  0.5216810000000  0.4269400000000  0.4531020000000 1.0
C      1  0.4523150000000  0.5793770000000  0.4960100000000 1.0
C      1  0.5476850000000  0.4206230000000  0.5039900000000 1.0
C      1  0.4535840000000  0.4915420000000  0.5375990000000 1.0
C      1  0.5464160000000  0.5084580000000  0.4624010000000 1.0
C      1  0.4477750000000  0.5119530000000  0.5804340000000 1.0
C      1  0.5522250000000  0.4880470000000  0.4195660000000 1.0
C      1  0.4832650000000  0.4928160000000  0.5379450000000 1.0
C      1  0.5167350000000  0.5071840000000  0.4620550000000 1.0
C      1  0.6104390000000  0.4785490000000  0.5240240000000 1.0
C      1  0.3895610000000  0.5214510000000  0.4759760000000 1.0
C      1  0.5643210000000  0.5077700000000  0.4372450000000 1.0
C      1  0.4356790000000  0.4922300000000  0.5627550000000 1.0
C      1  0.4889750000000  0.4066300000000  0.5110450000000 1.0
C      1  0.5110250000000  0.5933700000000  0.4889550000000 1.0
C      1  0.4638060000000  0.5885360000000  0.4710320000000 1.0
C      1  0.5361940000000  0.4114640000000  0.5289680000000 1.0
C      1  0.4169090000000  0.5425590000000  0.4502970000000 1.0
C      1  0.5830910000000  0.4574410000000  0.5497030000000 1.0
C      1  0.5536180000000  0.5372070000000  0.4702650000000 1.0
C      1  0.4463820000000  0.4627930000000  0.5297350000000 1.0
C      1  0.5720780000000  0.4778950000000  0.5682300000000 1.0
C      1  0.4279220000000  0.5221050000000  0.4317700000000 1.0
C      1  0.4787830000000  0.5367370000000  0.4601290000000 1.0
C      1  0.5212170000000  0.4632630000000  0.5398710000000 1.0
C      1  0.5458240000000  0.4238990000000  0.5526450000000 1.0
C      1  0.4541760000000  0.5761010000000  0.4473550000000 1.0
C      1  0.5306640000000  0.4974150000000  0.4046550000000 1.0
C      1  0.4693360000000  0.5025850000000  0.5953450000000 1.0
C      1  0.5072150000000  0.5344330000000  0.4606420000000 1.0
C      1  0.4927850000000  0.4655670000000  0.5393580000000 1.0
C      1  0.3971310000000  0.4984850000000  0.4673170000000 1.0
C      1  0.6028690000000  0.5015150000000  0.5326830000000 1.0
C      1  0.4791330000000  0.4475960000000  0.4927990000000 1.0
C      1  0.5208670000000  0.5524040000000  0.5072010000000 1.0
C      1  0.5634660000000  0.5044080000000  0.5638820000000 1.0
C      1  0.4365340000000  0.4955920000000  0.4361180000000 1.0
C      1  0.4937130000000  0.4233420000000  0.4591430000000 1.0
C      1  0.5062870000000  0.5766580000000  0.5408570000000 1.0
C      1  0.4870040000000  0.4202900000000  0.4867960000000 1.0
C      1  0.5129960000000  0.5797100000000  0.5132040000000 1.0
C      1  0.4688010000000  0.5525560000000  0.4350850000000 1.0
C      1  0.5311990000000  0.4474440000000  0.5649150000000 1.0
C      1  0.4841920000000  0.4999470000000  0.4087360000000 1.0
C      1  0.5158080000000  0.5000530000000  0.5912640000000 1.0
C      1  0.5018270000000  0.4825240000000  0.4610800000000 1.0
C      1  0.4981730000000  0.5174760000000  0.5389200000000 1.0
C      1  0.4876040000000  0.4892080000000  0.5097240000000 1.0
C      1  0.5123960000000  0.5107920000000  0.4902760000000 1.0
C      1  0.5285890000000  0.5518620000000  0.4772530000000 1.0
C      1  0.4714110000000  0.4481380000000  0.5227470000000 1.0
C      1  0.4916160000000  0.5947550000000  0.4673660000000 1.0
C      1  0.5083840000000  0.4052450000000  0.5326340000000 1.0
C      1  0.5748000000000  0.5008300000000  0.4907890000000 1.0
C      1  0.4252000000000  0.4991700000000  0.5092110000000 1.0
C      1  0.4632470000000  0.4541500000000  0.5773070000000 1.0
C      1  0.5367530000000  0.5458500000000  0.4226930000000 1.0
C      1  0.5038900000000  0.4729720000000  0.5946900000000 1.0
C      1  0.4961100000000  0.5270280000000  0.4053100000000 1.0
C      1  0.4965620000000  0.5431010000000  0.5836560000000 1.0
C      1  0.5034380000000  0.4568990000000  0.4163440000000 1.0
C      1  0.4908160000000  0.5529640000000  0.4159230000000 1.0
C      1  0.5091840000000  0.4470360000000  0.5840770000000 1.0
C      1  0.5695630000000  0.4405030000000  0.5032770000000 1.0
C      1  0.4304370000000  0.5594970000000  0.4967230000000 1.0
C      1  0.4647640000000  0.4862690000000  0.4288350000000 1.0
C      1  0.5352360000000  0.5137310000000  0.5711650000000 1.0
C      1  0.4301620000000  0.4712330000000  0.5070390000000 1.0
C      1  0.5698380000000  0.5287670000000  0.4929610000000 1.0
C      1  0.5697890000000  0.4349780000000  0.5618590000000 1.0
C      1  0.4302110000000  0.5650220000000  0.4381410000000 1.0
C      1  0.4937150000000  0.5176040000000  0.5953980000000 1.0
C      1  0.5062850000000  0.4823960000000  0.4046020000000 1.0
C      1  0.5702120000000  0.4909750000000  0.4639360000000 1.0
C      1  0.4297880000000  0.5090250000000  0.5360640000000 1.0
C      1  0.4582730000000  0.5751040000000  0.5251750000000 1.0
C      1  0.5417260000000  0.4248960000000  0.4748250000000 1.0
C      1  0.4891330000000  0.4152480000000  0.5533670000000 1.0
C      1  0.5108670000000  0.5847520000000  0.4466330000000 1.0
C      1  0.4430350000000  0.5441520000000  0.4220600000000 1.0
C      1  0.5569650000000  0.4558480000000  0.5779400000000 1.0
C      1  0.4346280000000  0.4658250000000  0.4793030000000 1.0
C      1  0.5653720000000  0.5341750000000  0.5206970000000 1.0
C      1  0.4361120000000  0.5568190000000  0.5250140000000 1.0
C      1  0.5638880000000  0.4431810000000  0.4749860000000 1.0
C      1  0.4247760000000  0.4890470000000  0.4633830000000 1.0
C      1  0.5752240000000  0.5109530000000  0.5366170000000 1.0
C      1  0.4611060000000  0.4583940000000  0.4703690000000 1.0
C      1  0.5388940000000  0.5416060000000  0.5296310000000 1.0
C      1  0.4839210000000  0.5156810000000  0.4976360000000 1.0
C      1  0.5160790000000  0.4843190000000  0.5023640000000 1.0
C      1  0.5267680000000  0.5590730000000  0.5511770000000 1.0
C      1  0.4732320000000  0.4409270000000  0.4488230000000 1.0
C      1  0.4851930000000  0.4343450000000  0.5744130000000 1.0
C      1  0.5148070000000  0.5656550000000  0.4255870000000 1.0
C      1  0.4189080000000  0.5377530000000  0.4789570000000 1.0
C      1  0.5810920000000  0.4622470000000  0.5210430000000 1.0
C      1  0.4734870000000  0.5546640000000  0.5689490000000 1.0
C      1  0.5265130000000  0.4453360000000  0.4310510000000 1.0
C      1  0.5495830000000  0.4625570000000  0.4325220000000 1.0
C      1  0.4504170000000  0.5374430000000  0.5674780000000 1.0
C      1  0.5268090000000  0.5128360000000  0.5410250000000 1.0
C      1  0.4731910000000  0.4871640000000  0.4589750000000 1.0
C      1  0.5579740000000  0.5366240000000  0.4396370000000 1.0
C      1  0.4420260000000  0.4633760000000  0.5603630000000 1.0
C      1  0.4756780000000  0.4750350000000  0.5939220000000 1.0
C      1  0.5243220000000  0.5249650000000  0.4060780000000 1.0
END
