TITL C-89164-4153-2 -492.570947217552 125000 -298.414329301572 0 0 46 (C1) n - 1
REM
REM in /rds/project/t2_vol4/rds-t2-cs072/BORA/CARBON/from-Arr/AIRSS/Generating-Clusters/GAP-ML-2020/Higher-Symm/SD-CG/HFTN-CG
REM
REM
REM
REM
REM
REM ./C.cell (b20cbc046b6831c77cfcea5457e17084)
REM AIRSS Version 0.9.1 bugfix July 2018 build 013d7b7c2542+ Fri, 06 Jul 2018 19:26:36 +0100
REM compiler GCC version 9.3.0
REM options -cpp -mtune=generic -march=x86-64 -g -O0
REM seed -1606391183 -702159378 322401074 854788267 639500335 1719146719 161838623 -665208308 1290293296 613115244 1926735675 -337674096 2083223774 -1506370087 -621517009 -187144210 -1188690466 756305236 -751059785 -1245454766 -1634711973 -1972299816 480449654 -1456125445 -659072270 489039343 125973032 2078498236 327020508 -1961013663 137491157 -682463346 24118972
REM
CELL 1.54180   50.00000   50.00000   50.00000   90.00000   90.00000   90.00000
LATT -1
SFAC C  
C      1  0.5089560000000  0.4901720000000  0.5147270000000 1.0
C      1  0.4791590000000  0.4898490000000  0.5024750000000 1.0
C      1  0.5135800000000  0.4893720000000  0.4823450000000 1.0
C      1  0.5464620000000  0.4880440000000  0.4537250000000 1.0
C      1  0.5185850000000  0.4887730000000  0.5619830000000 1.0
C      1  0.4385960000000  0.4889170000000  0.4853650000000 1.0
C      1  0.4734880000000  0.4654590000000  0.5384170000000 1.0
C      1  0.4820950000000  0.4660690000000  0.4589860000000 1.0
C      1  0.5466680000000  0.4657230000000  0.5057490000000 1.0
C      1  0.5139310000000  0.5134520000000  0.5755920000000 1.0
C      1  0.4300350000000  0.5130650000000  0.4741480000000 1.0
C      1  0.5591600000000  0.5132710000000  0.4516860000000 1.0
C      1  0.5151920000000  0.5371770000000  0.5337540000000 1.0
C      1  0.4645430000000  0.5375620000000  0.4971960000000 1.0
C      1  0.5228960000000  0.5374950000000  0.4716230000000 1.0
C      1  0.4329040000000  0.4851180000000  0.5133970000000 1.0
C      1  0.5241200000000  0.4847000000000  0.4357960000000 1.0
C      1  0.5450710000000  0.4850890000000  0.5522050000000 1.0
C      1  0.5270920000000  0.5140740000000  0.5199090000000 1.0
C      1  0.4675940000000  0.5149140000000  0.5156490000000 1.0
C      1  0.5059520000000  0.5142350000000  0.4667940000000 1.0
C      1  0.4789020000000  0.5120140000000  0.5446510000000 1.0
C      1  0.4751360000000  0.5122200000000  0.4609540000000 1.0
C      1  0.5499100000000  0.5120460000000  0.4971560000000 1.0
C      1  0.5608230000000  0.4768120000000  0.5274410000000 1.0
C      1  0.4475370000000  0.4764250000000  0.5399310000000 1.0
C      1  0.4944060000000  0.4768810000000  0.4358630000000 1.0
C      1  0.5677900000000  0.5046020000000  0.5195930000000 1.0
C      1  0.4507390000000  0.5031890000000  0.5506820000000 1.0
C      1  0.4840310000000  0.5039590000000  0.4335770000000 1.0
C      1  0.5057280000000  0.5564070000000  0.5162810000000 1.0
C      1  0.4852070000000  0.5562200000000  0.4970070000000 1.0
C      1  0.5120660000000  0.5564200000000  0.4886350000000 1.0
C      1  0.5497930000000  0.5110860000000  0.5408790000000 1.0
C      1  0.4391370000000  0.5106830000000  0.5254970000000 1.0
C      1  0.5115680000000  0.5106260000000  0.4367940000000 1.0
C      1  0.4955620000000  0.4866880000000  0.5430840000000 1.0
C      1  0.4674130000000  0.4869460000000  0.4754410000000 1.0
C      1  0.5423630000000  0.4860990000000  0.4833390000000 1.0
C      1  0.4534520000000  0.5281600000000  0.4725340000000 1.0
C      1  0.5504960000000  0.5288290000000  0.4730410000000 1.0
C      1  0.4998870000000  0.5288190000000  0.5571380000000 1.0
C      1  0.5027060000000  0.4604650000000  0.4757900000000 1.0
C      1  0.5212450000000  0.4600750000000  0.5145020000000 1.0
C      1  0.4773910000000  0.4585730000000  0.5122790000000 1.0
C      1  0.5003160000000  0.4483100000000  0.5005570000000 1.0
END
