TITL C-89354-4421-5 0.179635517478839 125000 -454.294714002106 0 0 67 (C1) n - 1
REM
REM in /rds/project/t2_vol4/rds-t2-cs072/BORA/CARBON/from-Arr/AIRSS/Generating-Clusters/GAP-ML-2020/Higher-Symm/SD-CG/HFTN-CG
REM
REM
REM
REM
REM
REM ./C.cell (b20cbc046b6831c77cfcea5457e17084)
REM AIRSS Version 0.9.1 bugfix July 2018 build 013d7b7c2542+ Fri, 06 Jul 2018 19:26:36 +0100
REM compiler GCC version 9.3.0
REM options -cpp -mtune=generic -march=x86-64 -g -O0
REM seed 1845458855 -2054232482 -806847247 1284264487 1266238444 -655624797 -1172870315 290967408 -766154119 1048756194 692653147 -1968051880 -1691379635 1925126420 1644446087 -1112458891 -1324141738 -1609644718 1933469900 1360815970 1033506363 1782059685 -435459890 -1558785505 1165633169 518889719 92921598 -1098018896 182388824 -2016347126 -2131838508 -1048225621 1839678598
REM
CELL 1.54180   50.00000   50.00000   50.00000   90.00000   90.00000   90.00000
LATT -1
SFAC C  
C      1  0.4387640000000  0.5242910000000  0.4674270000000 1.0
C      1  0.4391920000000  0.5156920000000  0.5423670000000 1.0
C      1  0.4376930000000  0.4695230000000  0.4969970000000 1.0
C      1  0.4879980000000  0.4633500000000  0.4949320000000 1.0
C      1  0.4876940000000  0.5113140000000  0.4816120000000 1.0
C      1  0.4887120000000  0.5023090000000  0.5241900000000 1.0
C      1  0.5319660000000  0.4571870000000  0.5552290000000 1.0
C      1  0.5365900000000  0.4755590000000  0.4337800000000 1.0
C      1  0.5282440000000  0.5706840000000  0.5098510000000 1.0
C      1  0.5409520000000  0.4551970000000  0.4794120000000 1.0
C      1  0.5323350000000  0.5400020000000  0.4721070000000 1.0
C      1  0.5341790000000  0.5059210000000  0.5476870000000 1.0
C      1  0.4776690000000  0.4654020000000  0.5661200000000 1.0
C      1  0.4810340000000  0.4611390000000  0.4398110000000 1.0
C      1  0.4732020000000  0.5712480000000  0.4979770000000 1.0
C      1  0.5248910000000  0.5150170000000  0.4337580000000 1.0
C      1  0.5218450000000  0.5514470000000  0.5453690000000 1.0
C      1  0.5285670000000  0.4347160000000  0.5206570000000 1.0
C      1  0.5668370000000  0.4914070000000  0.4997460000000 1.0
C      1  0.5750800000000  0.5156420000000  0.4872580000000 1.0
C      1  0.5753350000000  0.5122310000000  0.5161790000000 1.0
C      1  0.5276410000000  0.4839390000000  0.5231960000000 1.0
C      1  0.5271350000000  0.4849130000000  0.4759060000000 1.0
C      1  0.5264630000000  0.5255470000000  0.5004680000000 1.0
C      1  0.5397810000000  0.5441800000000  0.5222550000000 1.0
C      1  0.5454450000000  0.4582830000000  0.5262250000000 1.0
C      1  0.5434880000000  0.4998960000000  0.4519180000000 1.0
C      1  0.4997830000000  0.4392610000000  0.4801860000000 1.0
C      1  0.4869040000000  0.5395010000000  0.4594300000000 1.0
C      1  0.4880680000000  0.5131730000000  0.5543650000000 1.0
C      1  0.4366640000000  0.4777960000000  0.4691770000000 1.0
C      1  0.4360350000000  0.5345260000000  0.4948860000000 1.0
C      1  0.4350560000000  0.4870760000000  0.5437260000000 1.0
C      1  0.5568390000000  0.5232600000000  0.4664620000000 1.0
C      1  0.5564900000000  0.5227150000000  0.5347990000000 1.0
C      1  0.5612980000000  0.4626300000000  0.5005440000000 1.0
C      1  0.4504480000000  0.5553380000000  0.5071200000000 1.0
C      1  0.4515440000000  0.4667720000000  0.5522340000000 1.0
C      1  0.4565940000000  0.4754010000000  0.4489920000000 1.0
C      1  0.4977140000000  0.4861090000000  0.4750000000000 1.0
C      1  0.4974740000000  0.5208780000000  0.5055070000000 1.0
C      1  0.4994880000000  0.4764190000000  0.5200140000000 1.0
C      1  0.5139050000000  0.5348680000000  0.4493440000000 1.0
C      1  0.5141060000000  0.5267640000000  0.5548500000000 1.0
C      1  0.5245780000000  0.4348890000000  0.4927640000000 1.0
C      1  0.5298330000000  0.4538110000000  0.4502470000000 1.0
C      1  0.5195060000000  0.5651600000000  0.4836770000000 1.0
C      1  0.5234790000000  0.4824670000000  0.5641490000000 1.0
C      1  0.4280500000000  0.5165330000000  0.5150960000000 1.0
C      1  0.4263310000000  0.4873580000000  0.5156650000000 1.0
C      1  0.4231400000000  0.5019960000000  0.4645610000000 1.0
C      1  0.4603400000000  0.4552930000000  0.5058750000000 1.0
C      1  0.4622880000000  0.5259010000000  0.4497760000000 1.0
C      1  0.4626460000000  0.5298660000000  0.5498250000000 1.0
C      1  0.5156030000000  0.4911200000000  0.4210070000000 1.0
C      1  0.5097060000000  0.5737370000000  0.5315270000000 1.0
C      1  0.5132130000000  0.4374540000000  0.5450880000000 1.0
C      1  0.4667000000000  0.5008440000000  0.4366660000000 1.0
C      1  0.4628500000000  0.5536360000000  0.5343820000000 1.0
C      1  0.4613680000000  0.4470590000000  0.5331110000000 1.0
C      1  0.4856730000000  0.4417700000000  0.5500970000000 1.0
C      1  0.4887380000000  0.4857190000000  0.4248720000000 1.0
C      1  0.4827320000000  0.5730950000000  0.5258700000000 1.0
C      1  0.5022880000000  0.4452330000000  0.4524220000000 1.0
C      1  0.4914650000000  0.5632610000000  0.4773660000000 1.0
C      1  0.4952220000000  0.4874490000000  0.5683450000000 1.0
C      1  0.5359970000000  0.4977570000000  0.4997320000000 1.0
END
