TITL C-89344-4078-6 -0.113393331169792 125000 -703.305990888692 0 0 100 (C5) n - 1
REM
REM in /rds/project/t2_vol4/rds-t2-cs072/BORA/CARBON/from-Arr/AIRSS/Generating-Clusters/GAP-ML-2020/Higher-Symm/SD-CG/HFTN-CG
REM
REM
REM
REM
REM
REM ./C.cell (b20cbc046b6831c77cfcea5457e17084)
REM AIRSS Version 0.9.1 bugfix July 2018 build 013d7b7c2542+ Fri, 06 Jul 2018 19:26:36 +0100
REM compiler GCC version 9.3.0
REM options -cpp -mtune=generic -march=x86-64 -g -O0
REM seed -1552566547 -1599870926 -234964597 -1189332977 -213424382 -1156202271 1875417702 -891173398 1995090872 -145991433 -1828393880 1662310119 818207605 -173320208 -1617793642 -844459116 -1346136619 379240145 1535284637 683596184 -1867341735 1091520308 -17005146 -2036232172 1450629175 1697624384 205161180 928946994 1430066338 -138050785 -1130708905 392553393 345861503
REM
CELL 1.54180   50.00000   50.00000   50.00000   90.00000   90.00000   90.00000
LATT -1
SFAC C  
C      1  0.4411000000000  0.4773300000000  0.5456280000000 1.0
C      1  0.5017210000000  0.4365770000000  0.5451620000000 1.0
C      1  0.5592070000000  0.4816050000000  0.5471290000000 1.0
C      1  0.5341140000000  0.5501870000000  0.5488110000000 1.0
C      1  0.4611200000000  0.5475450000000  0.5478840000000 1.0
C      1  0.5878520000000  0.5406830000000  0.5086260000000 1.0
C      1  0.4881870000000  0.5960520000000  0.5090580000000 1.0
C      1  0.4047430000000  0.5184250000000  0.5058490000000 1.0
C      1  0.4528380000000  0.4150800000000  0.5034340000000 1.0
C      1  0.5660050000000  0.4288360000000  0.5051500000000 1.0
C      1  0.4615120000000  0.5956160000000  0.5145650000000 1.0
C      1  0.3967170000000  0.4928780000000  0.5108500000000 1.0
C      1  0.4744590000000  0.3994950000000  0.5090680000000 1.0
C      1  0.5873000000000  0.4445200000000  0.5116810000000 1.0
C      1  0.5792980000000  0.5657290000000  0.5150780000000 1.0
C      1  0.4784690000000  0.4908950000000  0.4373970000000 1.0
C      1  0.5042160000000  0.4772590000000  0.4373050000000 1.0
C      1  0.5251370000000  0.4975190000000  0.4381320000000 1.0
C      1  0.5123200000000  0.5236770000000  0.4387360000000 1.0
C      1  0.4834770000000  0.5195830000000  0.4382820000000 1.0
C      1  0.4945630000000  0.5532060000000  0.4922040000000 1.0
C      1  0.4480310000000  0.5113700000000  0.4904570000000 1.0
C      1  0.4734680000000  0.4541900000000  0.4891070000000 1.0
C      1  0.5357210000000  0.4606860000000  0.4900200000000 1.0
C      1  0.5487580000000  0.5218810000000  0.4919340000000 1.0
C      1  0.4808120000000  0.4816640000000  0.5751270000000 1.0
C      1  0.5088330000000  0.4754180000000  0.5752740000000 1.0
C      1  0.5234250000000  0.5001270000000  0.5761560000000 1.0
C      1  0.5044220000000  0.5216430000000  0.5765540000000 1.0
C      1  0.4780860000000  0.5102330000000  0.5759180000000 1.0
C      1  0.4564630000000  0.4429850000000  0.5158590000000 1.0
C      1  0.5401660000000  0.4408130000000  0.5167740000000 1.0
C      1  0.5680710000000  0.5197200000000  0.5193710000000 1.0
C      1  0.5016140000000  0.5706590000000  0.5200630000000 1.0
C      1  0.4326370000000  0.5232340000000  0.5178920000000 1.0
C      1  0.4441550000000  0.5645240000000  0.4818840000000 1.0
C      1  0.4220590000000  0.4670360000000  0.4788180000000 1.0
C      1  0.5079860000000  0.4158720000000  0.4783480000000 1.0
C      1  0.5831880000000  0.4817380000000  0.4811220000000 1.0
C      1  0.5437390000000  0.5736100000000  0.4833070000000 1.0
C      1  0.4762730000000  0.4497500000000  0.5391250000000 1.0
C      1  0.5390350000000  0.4615390000000  0.5401960000000 1.0
C      1  0.5471940000000  0.5248560000000  0.5421150000000 1.0
C      1  0.4894740000000  0.5521990000000  0.5422290000000 1.0
C      1  0.4456420000000  0.5057810000000  0.5403810000000 1.0
C      1  0.5172510000000  0.4813530000000  0.4962200000000 1.0
C      1  0.5231880000000  0.5106630000000  0.4971330000000 1.0
C      1  0.4971350000000  0.5253740000000  0.4972530000000 1.0
C      1  0.4750970000000  0.5051560000000  0.4964130000000 1.0
C      1  0.4875290000000  0.4779490000000  0.4957750000000 1.0
C      1  0.5192390000000  0.4537550000000  0.5601790000000 1.0
C      1  0.5477650000000  0.5034470000000  0.5619430000000 1.0
C      1  0.5092940000000  0.5459390000000  0.5627180000000 1.0
C      1  0.4569920000000  0.5225080000000  0.5614330000000 1.0
C      1  0.4631380000000  0.4655350000000  0.5598640000000 1.0
C      1  0.4332440000000  0.4608300000000  0.5238840000000 1.0
C      1  0.5157450000000  0.4241900000000  0.5237920000000 1.0
C      1  0.5760710000000  0.4912920000000  0.5264280000000 1.0
C      1  0.5308540000000  0.5694020000000  0.5281500000000 1.0
C      1  0.4425830000000  0.5505760000000  0.5265780000000 1.0
C      1  0.4753120000000  0.5033920000000  0.5281210000000 1.0
C      1  0.4881490000000  0.4773290000000  0.5275210000000 1.0
C      1  0.5169070000000  0.4814710000000  0.5279750000000 1.0
C      1  0.5218440000000  0.5100940000000  0.5288570000000 1.0
C      1  0.4961370000000  0.5236410000000  0.5289480000000 1.0
C      1  0.4649490000000  0.4272210000000  0.4551390000000 1.0
C      1  0.5599210000000  0.4445350000000  0.4567450000000 1.0
C      1  0.5727670000000  0.5401840000000  0.4596500000000 1.0
C      1  0.4857330000000  0.5819840000000  0.4598380000000 1.0
C      1  0.4190980000000  0.5121690000000  0.4570500000000 1.0
C      1  0.5005580000000  0.4079550000000  0.5052630000000 1.0
C      1  0.5874630000000  0.4719880000000  0.5081200000000 1.0
C      1  0.5533690000000  0.5744180000000  0.5106720000000 1.0
C      1  0.4453940000000  0.5736910000000  0.5093920000000 1.0
C      1  0.4127550000000  0.4708100000000  0.5060480000000 1.0
C      1  0.5595340000000  0.4233880000000  0.4775520000000 1.0
C      1  0.5920070000000  0.5330860000000  0.4810900000000 1.0
C      1  0.4976670000000  0.5978920000000  0.4818550000000 1.0
C      1  0.4068880000000  0.5282470000000  0.4787900000000 1.0
C      1  0.4451240000000  0.4203980000000  0.4761310000000 1.0
C      1  0.5337050000000  0.4169170000000  0.4679400000000 1.0
C      1  0.5905140000000  0.5066080000000  0.4711860000000 1.0
C      1  0.5227190000000  0.5883620000000  0.4727490000000 1.0
C      1  0.4240120000000  0.5491980000000  0.4704700000000 1.0
C      1  0.4308020000000  0.4432390000000  0.4674980000000 1.0
C      1  0.4642510000000  0.5383910000000  0.4478410000000 1.0
C      1  0.4543120000000  0.4783520000000  0.4459960000000 1.0
C      1  0.5083640000000  0.4503310000000  0.4458200000000 1.0
C      1  0.5517080000000  0.4930520000000  0.4475560000000 1.0
C      1  0.5244450000000  0.5474760000000  0.4488050000000 1.0
C      1  0.4365160000000  0.5340030000000  0.4491270000000 1.0
C      1  0.4498640000000  0.4506120000000  0.4468810000000 1.0
C      1  0.5333210000000  0.4375060000000  0.4474770000000 1.0
C      1  0.5715530000000  0.5127970000000  0.4500920000000 1.0
C      1  0.5117250000000  0.5724350000000  0.4511110000000 1.0
C      1  0.4905480000000  0.4359280000000  0.4657880000000 1.0
C      1  0.5591830000000  0.4714770000000  0.4676130000000 1.0
C      1  0.5465490000000  0.5477270000000  0.4696610000000 1.0
C      1  0.4701060000000  0.5593020000000  0.4691020000000 1.0
C      1  0.4354950000000  0.4902070000000  0.4667090000000 1.0
END
