TITL C-89362-5525-2 33.2898286236148 125000 -997.494371681222 0 0 137 (C1) n - 1
REM
REM in /rds/project/t2_vol4/rds-t2-cs072/BORA/CARBON/from-Arr/AIRSS/Generating-Clusters/GAP-ML-2020/Higher-Symm/SD-CG/HFTN-CG
REM
REM
REM
REM
REM
REM ./C.cell (b20cbc046b6831c77cfcea5457e17084)
REM AIRSS Version 0.9.1 bugfix July 2018 build 013d7b7c2542+ Fri, 06 Jul 2018 19:26:36 +0100
REM compiler GCC version 9.3.0
REM options -cpp -mtune=generic -march=x86-64 -g -O0
REM seed 553212962 1635307621 -443580095 280611339 825680255 -1087522643 1708616512 -515347213 1009796302 -977296271 497040697 -196989754 -1670161626 2142479025 -247987982 -667530205 -178454890 200961746 -1926535248 353467469 -1789481481 -796927019 -1235231447 672405368 1590219105 -1865187339 -766447505 -1038383643 27117059 -1872116410 -180302625 -949566478 1722836159
REM
CELL 1.54180   50.00000   50.00000   50.00000   90.00000   90.00000   90.00000
LATT -1
SFAC C  
C      1  0.4667410000000  0.4234420000000  0.4469990000000 1.0
C      1  0.4680850000000  0.4920230000000  0.4024190000000 1.0
C      1  0.4662540000000  0.5664150000000  0.4361610000000 1.0
C      1  0.4628560000000  0.5891270000000  0.5136010000000 1.0
C      1  0.4622970000000  0.5468750000000  0.5824750000000 1.0
C      1  0.4640280000000  0.4653270000000  0.5888790000000 1.0
C      1  0.4624370000000  0.4129910000000  0.5283160000000 1.0
C      1  0.5008130000000  0.5172710000000  0.4443800000000 1.0
C      1  0.5075430000000  0.5380670000000  0.4873910000000 1.0
C      1  0.5054410000000  0.5406710000000  0.5163240000000 1.0
C      1  0.4940200000000  0.5121450000000  0.5584370000000 1.0
C      1  0.4956000000000  0.4679630000000  0.5277300000000 1.0
C      1  0.4970760000000  0.4559910000000  0.4999390000000 1.0
C      1  0.4986500000000  0.4681570000000  0.4498100000000 1.0
C      1  0.4268320000000  0.4856320000000  0.5672270000000 1.0
C      1  0.4266090000000  0.4420310000000  0.5332010000000 1.0
C      1  0.4290370000000  0.4429280000000  0.4670560000000 1.0
C      1  0.4309200000000  0.4848240000000  0.4311220000000 1.0
C      1  0.4306920000000  0.5370020000000  0.4475570000000 1.0
C      1  0.4293870000000  0.5586080000000  0.4987370000000 1.0
C      1  0.4281250000000  0.5377470000000  0.5503200000000 1.0
C      1  0.5589040000000  0.4346100000000  0.5335170000000 1.0
C      1  0.5608970000000  0.4406510000000  0.4604250000000 1.0
C      1  0.5633480000000  0.4873420000000  0.4228780000000 1.0
C      1  0.5601320000000  0.5552940000000  0.4447300000000 1.0
C      1  0.5559440000000  0.5768490000000  0.5014140000000 1.0
C      1  0.5602500000000  0.5433640000000  0.5648820000000 1.0
C      1  0.5579960000000  0.4776200000000  0.5730030000000 1.0
C      1  0.4432530000000  0.4389840000000  0.4424980000000 1.0
C      1  0.4444680000000  0.5032370000000  0.4144050000000 1.0
C      1  0.4425050000000  0.5624600000000  0.4519270000000 1.0
C      1  0.4402190000000  0.5731410000000  0.5208960000000 1.0
C      1  0.4398490000000  0.5304420000000  0.5755670000000 1.0
C      1  0.4402770000000  0.4608000000000  0.5740740000000 1.0
C      1  0.4401950000000  0.4248480000000  0.5144520000000 1.0
C      1  0.5196740000000  0.5490660000000  0.4186660000000 1.0
C      1  0.5124440000000  0.5952640000000  0.4866240000000 1.0
C      1  0.5131310000000  0.5664540000000  0.5643570000000 1.0
C      1  0.5143430000000  0.4911390000000  0.5945180000000 1.0
C      1  0.5147590000000  0.4207180000000  0.5535260000000 1.0
C      1  0.5179180000000  0.4163980000000  0.4784120000000 1.0
C      1  0.5198140000000  0.4661830000000  0.4072780000000 1.0
C      1  0.4858210000000  0.5923990000000  0.5291490000000 1.0
C      1  0.4858460000000  0.5370510000000  0.5937800000000 1.0
C      1  0.4876360000000  0.4499540000000  0.5861920000000 1.0
C      1  0.4862400000000  0.4073100000000  0.5157140000000 1.0
C      1  0.4915170000000  0.4267860000000  0.4343450000000 1.0
C      1  0.4917830000000  0.5065700000000  0.3988920000000 1.0
C      1  0.4889770000000  0.5798810000000  0.4451790000000 1.0
C      1  0.5463820000000  0.4641350000000  0.4183710000000 1.0
C      1  0.5465970000000  0.5398400000000  0.4241380000000 1.0
C      1  0.5386610000000  0.5854970000000  0.4803010000000 1.0
C      1  0.5380720000000  0.5563530000000  0.5478800000000 1.0
C      1  0.5381290000000  0.5000040000000  0.5783130000000 1.0
C      1  0.5409100000000  0.4329870000000  0.5558740000000 1.0
C      1  0.5416890000000  0.4381170000000  0.4831480000000 1.0
C      1  0.4642110000000  0.5888030000000  0.4855660000000 1.0
C      1  0.4637550000000  0.5672000000000  0.5629910000000 1.0
C      1  0.4645160000000  0.4930900000000  0.5943210000000 1.0
C      1  0.4644310000000  0.4228130000000  0.5547550000000 1.0
C      1  0.4664500000000  0.4180670000000  0.4745980000000 1.0
C      1  0.4690450000000  0.4650210000000  0.4106220000000 1.0
C      1  0.4682380000000  0.5446070000000  0.4188490000000 1.0
C      1  0.5371680000000  0.5073620000000  0.3916040000000 1.0
C      1  0.5339440000000  0.5935730000000  0.4317620000000 1.0
C      1  0.5309480000000  0.6013060000000  0.5301460000000 1.0
C      1  0.5316570000000  0.5423600000000  0.6011820000000 1.0
C      1  0.5340220000000  0.4478490000000  0.6019350000000 1.0
C      1  0.5296640000000  0.4059640000000  0.5074550000000 1.0
C      1  0.5339640000000  0.4187650000000  0.4303790000000 1.0
C      1  0.5921000000000  0.4985850000000  0.4675240000000 1.0
C      1  0.5924800000000  0.5254900000000  0.4757650000000 1.0
C      1  0.5909950000000  0.5358680000000  0.5030830000000 1.0
C      1  0.5921540000000  0.5237190000000  0.5295940000000 1.0
C      1  0.5909260000000  0.4948200000000  0.5328280000000 1.0
C      1  0.5910510000000  0.4730430000000  0.5132720000000 1.0
C      1  0.5917740000000  0.4748950000000  0.4849210000000 1.0
C      1  0.4804900000000  0.5272510000000  0.4856810000000 1.0
C      1  0.4792900000000  0.5282750000000  0.5158740000000 1.0
C      1  0.4756270000000  0.5097220000000  0.5367910000000 1.0
C      1  0.4710150000000  0.4833520000000  0.5290980000000 1.0
C      1  0.4750760000000  0.4714400000000  0.4884420000000 1.0
C      1  0.4784770000000  0.4823330000000  0.4641030000000 1.0
C      1  0.4794720000000  0.5105800000000  0.4629750000000 1.0
C      1  0.5535250000000  0.5134810000000  0.4123750000000 1.0
C      1  0.5448230000000  0.5788610000000  0.4526210000000 1.0
C      1  0.5459140000000  0.5788000000000  0.5288510000000 1.0
C      1  0.5481000000000  0.5274040000000  0.5860140000000 1.0
C      1  0.5459780000000  0.4515970000000  0.5774410000000 1.0
C      1  0.5505610000000  0.4238610000000  0.5086250000000 1.0
C      1  0.5501790000000  0.4400520000000  0.4338420000000 1.0
C      1  0.5086640000000  0.6006240000000  0.5145200000000 1.0
C      1  0.5094060000000  0.5528880000000  0.5894960000000 1.0
C      1  0.5115410000000  0.4630570000000  0.5963980000000 1.0
C      1  0.5109880000000  0.4061210000000  0.5288960000000 1.0
C      1  0.5139380000000  0.4138190000000  0.4478940000000 1.0
C      1  0.5154740000000  0.4911880000000  0.3947170000000 1.0
C      1  0.5136900000000  0.5744140000000  0.4310280000000 1.0
C      1  0.4889070000000  0.5779050000000  0.5537370000000 1.0
C      1  0.4897790000000  0.5074590000000  0.5898660000000 1.0
C      1  0.4898560000000  0.4288670000000  0.5670440000000 1.0
C      1  0.4911580000000  0.4222630000000  0.4905710000000 1.0
C      1  0.4954030000000  0.4546200000000  0.4218220000000 1.0
C      1  0.4953720000000  0.5309130000000  0.4160390000000 1.0
C      1  0.4888650000000  0.5912480000000  0.4711500000000 1.0
C      1  0.5765250000000  0.5592870000000  0.4931540000000 1.0
C      1  0.5816650000000  0.5369590000000  0.5508630000000 1.0
C      1  0.5772400000000  0.4774390000000  0.5525540000000 1.0
C      1  0.5779470000000  0.4554350000000  0.5331030000000 1.0
C      1  0.5797290000000  0.4602530000000  0.4626310000000 1.0
C      1  0.5804020000000  0.4837690000000  0.4450820000000 1.0
C      1  0.5778470000000  0.5487690000000  0.4654470000000 1.0
C      1  0.4447330000000  0.4601260000000  0.4248520000000 1.0
C      1  0.4446730000000  0.5291570000000  0.4231570000000 1.0
C      1  0.4419510000000  0.5727220000000  0.4771240000000 1.0
C      1  0.4406530000000  0.5629520000000  0.5461780000000 1.0
C      1  0.4405640000000  0.5042970000000  0.5836320000000 1.0
C      1  0.4405400000000  0.4386430000000  0.5577030000000 1.0
C      1  0.4418580000000  0.4257620000000  0.4864030000000 1.0
C      1  0.5192130000000  0.4824320000000  0.5322810000000 1.0
C      1  0.5255730000000  0.4654050000000  0.4888840000000 1.0
C      1  0.5211540000000  0.4781040000000  0.4631320000000 1.0
C      1  0.5243180000000  0.5063140000000  0.4582100000000 1.0
C      1  0.5294570000000  0.5215570000000  0.4812570000000 1.0
C      1  0.5285680000000  0.5290640000000  0.5293800000000 1.0
C      1  0.5209410000000  0.5066470000000  0.5499600000000 1.0
C      1  0.4198870000000  0.4915800000000  0.4572670000000 1.0
C      1  0.4207230000000  0.5194420000000  0.4687180000000 1.0
C      1  0.4201360000000  0.5309620000000  0.4988070000000 1.0
C      1  0.4187820000000  0.5197410000000  0.5292510000000 1.0
C      1  0.4159740000000  0.4920060000000  0.5415190000000 1.0
C      1  0.4147980000000  0.4674940000000  0.5261790000000 1.0
C      1  0.4191570000000  0.4685690000000  0.4741010000000 1.0
C      1  0.5342280000000  0.4849280000000  0.5093470000000 1.0
C      1  0.4546050000000  0.4779700000000  0.5060120000000 1.0
C      1  0.4253820000000  0.4745130000000  0.5010380000000 1.0
C      1  0.5403350000000  0.5120240000000  0.5053740000000 1.0
END
