TITL C-89356-4449-2 -58.5093809593909 125000 -679.016620682147 0 0 96 (C1) n - 1
REM
REM in /rds/project/t2_vol4/rds-t2-cs072/BORA/CARBON/from-Arr/AIRSS/Generating-Clusters/GAP-ML-2020/Higher-Symm/SD-CG/HFTN-CG
REM
REM
REM
REM
REM
REM ./C.cell (b20cbc046b6831c77cfcea5457e17084)
REM AIRSS Version 0.9.1 bugfix July 2018 build 013d7b7c2542+ Fri, 06 Jul 2018 19:26:36 +0100
REM compiler GCC version 9.3.0
REM options -cpp -mtune=generic -march=x86-64 -g -O0
REM seed 284166666 916325573 1700771731 -938801400 1284260394 1504761388 340322115 135540973 1073266104 232185839 -1960514601 598888342 378663836 1594464796 -901905901 -1012766148 1989521544 603774346 949508198 -336331628 1458125351 -583138017 -240455825 -132968837 1445078638 2112973753 -1101614483 -879057712 -1076098959 287263836 906800404 -1855141358 -1377615325
REM
CELL 1.54180   50.00000   50.00000   50.00000   90.00000   90.00000   90.00000
LATT -1
SFAC C  
C      1  0.5391700000000  0.4948270000000  0.5195660000000 1.0
C      1  0.5205000000000  0.5076300000000  0.4750630000000 1.0
C      1  0.4612290000000  0.5081060000000  0.4908610000000 1.0
C      1  0.4766750000000  0.5115350000000  0.5335260000000 1.0
C      1  0.5417650000000  0.4950540000000  0.4898620000000 1.0
C      1  0.5520450000000  0.5061740000000  0.5680490000000 1.0
C      1  0.4678670000000  0.4912640000000  0.5146700000000 1.0
C      1  0.4664690000000  0.4955250000000  0.4664350000000 1.0
C      1  0.4774270000000  0.5727990000000  0.4756240000000 1.0
C      1  0.4505200000000  0.5664570000000  0.5173780000000 1.0
C      1  0.5008260000000  0.5728720000000  0.5256570000000 1.0
C      1  0.5269260000000  0.5814410000000  0.4833410000000 1.0
C      1  0.4909180000000  0.4192620000000  0.5245540000000 1.0
C      1  0.4754100000000  0.4260820000000  0.4800150000000 1.0
C      1  0.5210520000000  0.4358690000000  0.4573270000000 1.0
C      1  0.5422810000000  0.4317850000000  0.5126570000000 1.0
C      1  0.4346700000000  0.5497360000000  0.4736870000000 1.0
C      1  0.4691690000000  0.5519550000000  0.5582970000000 1.0
C      1  0.5647370000000  0.5354610000000  0.5262750000000 1.0
C      1  0.5279170000000  0.5394650000000  0.4398350000000 1.0
C      1  0.4326320000000  0.4611490000000  0.5271090000000 1.0
C      1  0.4773440000000  0.4548910000000  0.4435990000000 1.0
C      1  0.5653290000000  0.4487120000000  0.4710330000000 1.0
C      1  0.5248950000000  0.4594450000000  0.5631160000000 1.0
C      1  0.4382370000000  0.4700390000000  0.5534270000000 1.0
C      1  0.5524610000000  0.4602800000000  0.5536620000000 1.0
C      1  0.5593000000000  0.4604750000000  0.4461550000000 1.0
C      1  0.4469300000000  0.4620530000000  0.4442700000000 1.0
C      1  0.4440480000000  0.5369780000000  0.4495960000000 1.0
C      1  0.5550440000000  0.5313560000000  0.4432630000000 1.0
C      1  0.5540580000000  0.5300900000000  0.5525260000000 1.0
C      1  0.4434560000000  0.5407220000000  0.5552080000000 1.0
C      1  0.5398440000000  0.4396450000000  0.4825710000000 1.0
C      1  0.4920860000000  0.4323630000000  0.4565220000000 1.0
C      1  0.4797550000000  0.4093490000000  0.5016520000000 1.0
C      1  0.5182580000000  0.4271760000000  0.5276450000000 1.0
C      1  0.5114890000000  0.5902480000000  0.5049900000000 1.0
C      1  0.4740550000000  0.5689270000000  0.5351250000000 1.0
C      1  0.4511920000000  0.5687600000000  0.4881770000000 1.0
C      1  0.4995880000000  0.5898960000000  0.4790540000000 1.0
C      1  0.4964970000000  0.5241170000000  0.5164560000000 1.0
C      1  0.5438530000000  0.5495360000000  0.5126240000000 1.0
C      1  0.5171510000000  0.5383450000000  0.4672290000000 1.0
C      1  0.4796780000000  0.5302370000000  0.4930080000000 1.0
C      1  0.4799390000000  0.4714150000000  0.4702500000000 1.0
C      1  0.5264450000000  0.4678580000000  0.4907870000000 1.0
C      1  0.5092310000000  0.4525090000000  0.5396500000000 1.0
C      1  0.4598940000000  0.4594350000000  0.5161570000000 1.0
C      1  0.5710600000000  0.4864540000000  0.4451790000000 1.0
C      1  0.4485570000000  0.4903530000000  0.4372400000000 1.0
C      1  0.4276400000000  0.4962790000000  0.5533920000000 1.0
C      1  0.5678760000000  0.4836720000000  0.5606120000000 1.0
C      1  0.5940170000000  0.4887960000000  0.5526790000000 1.0
C      1  0.4426590000000  0.5150870000000  0.5673770000000 1.0
C      1  0.4308950000000  0.5114140000000  0.4464780000000 1.0
C      1  0.5563190000000  0.5057510000000  0.4311620000000 1.0
C      1  0.4614520000000  0.4519440000000  0.4869640000000 1.0
C      1  0.4786300000000  0.4477060000000  0.5380450000000 1.0
C      1  0.5181260000000  0.4748190000000  0.5198680000000 1.0
C      1  0.5032550000000  0.4849350000000  0.4808430000000 1.0
C      1  0.4970360000000  0.4914350000000  0.5097140000000 1.0
C      1  0.4875500000000  0.5460600000000  0.4679670000000 1.0
C      1  0.5405180000000  0.5534070000000  0.4835670000000 1.0
C      1  0.5180250000000  0.5486100000000  0.5279300000000 1.0
C      1  0.4168400000000  0.5285600000000  0.5152710000000 1.0
C      1  0.5121440000000  0.5294970000000  0.5741900000000 1.0
C      1  0.5812490000000  0.5185910000000  0.4833890000000 1.0
C      1  0.4847460000000  0.5209120000000  0.4245110000000 1.0
C      1  0.4188030000000  0.4797160000000  0.4828620000000 1.0
C      1  0.5178590000000  0.4733550000000  0.4223910000000 1.0
C      1  0.5790480000000  0.4667010000000  0.5132920000000 1.0
C      1  0.4806070000000  0.4821540000000  0.5762440000000 1.0
C      1  0.5131300000000  0.5224150000000  0.4225060000000 1.0
C      1  0.4170950000000  0.5302560000000  0.4866840000000 1.0
C      1  0.4842620000000  0.5329400000000  0.5745850000000 1.0
C      1  0.5821290000000  0.5178360000000  0.5121960000000 1.0
C      1  0.5098430000000  0.4800930000000  0.5766160000000 1.0
C      1  0.4165230000000  0.4790740000000  0.5114220000000 1.0
C      1  0.4895790000000  0.4721370000000  0.4235090000000 1.0
C      1  0.5818050000000  0.4668870000000  0.4857140000000 1.0
C      1  0.4163150000000  0.5062230000000  0.4705770000000 1.0
C      1  0.4685180000000  0.5088250000000  0.5781720000000 1.0
C      1  0.5874160000000  0.4918890000000  0.5263130000000 1.0
C      1  0.5299890000000  0.4993570000000  0.4200900000000 1.0
C      1  0.4148990000000  0.5026890000000  0.5276290000000 1.0
C      1  0.4729580000000  0.4951440000000  0.4217600000000 1.0
C      1  0.5840000000000  0.4918540000000  0.4703390000000 1.0
C      1  0.5251040000000  0.5041100000000  0.5781380000000 1.0
C      1  0.4364720000000  0.4599730000000  0.4710230000000 1.0
C      1  0.4648720000000  0.4629580000000  0.5613180000000 1.0
C      1  0.5600510000000  0.4494080000000  0.5273910000000 1.0
C      1  0.5326890000000  0.4538480000000  0.4380190000000 1.0
C      1  0.4324660000000  0.5476440000000  0.5298500000000 1.0
C      1  0.4717210000000  0.5384900000000  0.4432570000000 1.0
C      1  0.5641810000000  0.5382120000000  0.4691320000000 1.0
C      1  0.5288150000000  0.5422250000000  0.5550480000000 1.0
END
