TITL C-89170-4228-6 0.00385416362334068 125000 -136.767688764533 0 0 21 (Cs) n - 1
REM
REM in /rds/project/t2_vol4/rds-t2-cs072/BORA/CARBON/from-Arr/AIRSS/Generating-Clusters/GAP-ML-2020/Higher-Symm/SD-CG/HFTN-CG
REM
REM
REM
REM
REM
REM ./C.cell (b20cbc046b6831c77cfcea5457e17084)
REM AIRSS Version 0.9.1 bugfix July 2018 build 013d7b7c2542+ Fri, 06 Jul 2018 19:26:36 +0100
REM compiler GCC version 9.3.0
REM options -cpp -mtune=generic -march=x86-64 -g -O0
REM seed -1895517955 -819097218 -1560254600 862421545 -1352201041 -2107553437 2006411889 1011588129 349115299 -1230368173 1927668302 -1587711313 -1409799730 537954182 -1325663484 -641634183 -983333976 1367455175 1779689647 846477581 -535948239 1910923949 -601476827 -2078772589 851333491 439380121 -892093201 -360325851 138276585 -1409527630 2047072567 766497805 -657659482
REM
CELL 1.54180   50.00000   50.00000   50.00000   90.00000   90.00000   90.00000
LATT -1
SFAC C  
C      1  0.4847380000000  0.5427060000000  0.4834640000000 1.0
C      1  0.4847400000000  0.4584930000000  0.4834640000000 1.0
C      1  0.5277390000000  0.4717900000000  0.4955370000000 1.0
C      1  0.5277370000000  0.5294120000000  0.4955370000000 1.0
C      1  0.4741160000000  0.4644410000000  0.5122680000000 1.0
C      1  0.4741130000000  0.5367580000000  0.5122670000000 1.0
C      1  0.5055800000000  0.4730080000000  0.5378340000000 1.0
C      1  0.5055780000000  0.5281930000000  0.5378340000000 1.0
C      1  0.5209290000000  0.4864460000000  0.4725920000000 1.0
C      1  0.5209280000000  0.5147560000000  0.4725920000000 1.0
C      1  0.5090320000000  0.5516730000000  0.4967590000000 1.0
C      1  0.5090350000000  0.4495280000000  0.4967590000000 1.0
C      1  0.4933170000000  0.4780550000000  0.4643310000000 1.0
C      1  0.4933150000000  0.5231450000000  0.4643310000000 1.0
C      1  0.5258810000000  0.4865350000000  0.5213370000000 1.0
C      1  0.5258800000000  0.5146670000000  0.5213370000000 1.0
C      1  0.4975280000000  0.5513850000000  0.5224610000000 1.0
C      1  0.4975310000000  0.4498150000000  0.5224620000000 1.0
C      1  0.4799110000000  0.4864370000000  0.5324310000000 1.0
C      1  0.4799100000000  0.5147620000000  0.5324310000000 1.0
C      1  0.4807960000000  0.5005990000000  0.4543530000000 1.0
END
