TITL C-89361-8471-11 0.0642307905361187 125000 -395.233895084715 0 0 56 (C1) n - 1
REM
REM in /rds/project/t2_vol4/rds-t2-cs072/BORA/CARBON/from-Arr/AIRSS/Generating-Clusters/GAP-ML-2020/Higher-Symm/SD-CG/HFTN-CG
REM
REM
REM
REM
REM
REM ./C.cell (b20cbc046b6831c77cfcea5457e17084)
REM AIRSS Version 0.9.1 bugfix July 2018 build 013d7b7c2542+ Fri, 06 Jul 2018 19:26:36 +0100
REM compiler GCC version 9.3.0
REM options -cpp -mtune=generic -march=x86-64 -g -O0
REM seed 353191627 1870544614 566282871 1192811157 2116283720 1248494821 1362083962 1626720132 1634476008 1396778994 498552553 49884461 492738728 1428674089 -1425740043 337261066 -1012661984 -850289255 1208988705 2084937383 1986990949 -1164303414 -30361018 209237221 1051056997 -2039301105 1091995846 -148844947 324930695 -2066795026 -307463240 -1521015166 1165868665
REM
CELL 1.54180   50.00000   50.00000   50.00000   90.00000   90.00000   90.00000
LATT -1
SFAC C  
C      1  0.4671130000000  0.5583780000000  0.4647850000000 1.0
C      1  0.4725820000000  0.4850460000000  0.4370650000000 1.0
C      1  0.4721830000000  0.4335200000000  0.4938780000000 1.0
C      1  0.4699080000000  0.4753300000000  0.5592660000000 1.0
C      1  0.4653280000000  0.5510140000000  0.5419440000000 1.0
C      1  0.4708670000000  0.4411940000000  0.4662860000000 1.0
C      1  0.4722010000000  0.5131600000000  0.4370780000000 1.0
C      1  0.4651340000000  0.5685900000000  0.4913840000000 1.0
C      1  0.4661640000000  0.5277940000000  0.5582040000000 1.0
C      1  0.4724680000000  0.4521380000000  0.5430000000000 1.0
C      1  0.5193820000000  0.4849430000000  0.4381490000000 1.0
C      1  0.5196570000000  0.4285410000000  0.4914840000000 1.0
C      1  0.5171840000000  0.4773550000000  0.5633410000000 1.0
C      1  0.5130700000000  0.5528790000000  0.5430340000000 1.0
C      1  0.5147120000000  0.5617220000000  0.4671400000000 1.0
C      1  0.5192350000000  0.5133420000000  0.4408010000000 1.0
C      1  0.5132220000000  0.5708550000000  0.4940970000000 1.0
C      1  0.5134990000000  0.5301920000000  0.5598800000000 1.0
C      1  0.5204780000000  0.4539670000000  0.5465880000000 1.0
C      1  0.5169570000000  0.4342680000000  0.4628520000000 1.0
C      1  0.4485520000000  0.5139010000000  0.4558610000000 1.0
C      1  0.4495320000000  0.4610890000000  0.4718250000000 1.0
C      1  0.4498640000000  0.4618950000000  0.5257670000000 1.0
C      1  0.4456180000000  0.5140570000000  0.5414030000000 1.0
C      1  0.4444740000000  0.5476800000000  0.4983000000000 1.0
C      1  0.4501100000000  0.4840600000000  0.4565820000000 1.0
C      1  0.4466210000000  0.5371420000000  0.4703310000000 1.0
C      1  0.4444270000000  0.5386820000000  0.5241580000000 1.0
C      1  0.4486200000000  0.4866610000000  0.5418060000000 1.0
C      1  0.4498240000000  0.4522090000000  0.5003290000000 1.0
C      1  0.4936590000000  0.4440670000000  0.4503590000000 1.0
C      1  0.4973260000000  0.4418070000000  0.5345650000000 1.0
C      1  0.4901270000000  0.5169740000000  0.5676970000000 1.0
C      1  0.4883180000000  0.5739250000000  0.5067140000000 1.0
C      1  0.4952820000000  0.5284280000000  0.4393420000000 1.0
C      1  0.4922360000000  0.5530860000000  0.4531340000000 1.0
C      1  0.4886920000000  0.5636670000000  0.5332100000000 1.0
C      1  0.4922400000000  0.4887620000000  0.5690760000000 1.0
C      1  0.4967130000000  0.4311510000000  0.5078560000000 1.0
C      1  0.4955700000000  0.4693100000000  0.4359590000000 1.0
C      1  0.5447770000000  0.4661740000000  0.5355330000000 1.0
C      1  0.5375240000000  0.5187290000000  0.5467530000000 1.0
C      1  0.5360670000000  0.5528180000000  0.5021240000000 1.0
C      1  0.5405230000000  0.5210230000000  0.4590690000000 1.0
C      1  0.5415030000000  0.4492570000000  0.4633630000000 1.0
C      1  0.5372330000000  0.5427310000000  0.5281970000000 1.0
C      1  0.5403830000000  0.4911920000000  0.5505860000000 1.0
C      1  0.5452860000000  0.4437400000000  0.4919200000000 1.0
C      1  0.5420080000000  0.4749590000000  0.4527930000000 1.0
C      1  0.5375790000000  0.5445200000000  0.4734940000000 1.0
C      1  0.5437020000000  0.4914040000000  0.4970950000000 1.0
C      1  0.5162910000000  0.4904400000000  0.5071590000000 1.0
C      1  0.5500150000000  0.4966450000000  0.4700330000000 1.0
C      1  0.4934630000000  0.5021740000000  0.5007900000000 1.0
C      1  0.4894860000000  0.5273300000000  0.4952710000000 1.0
C      1  0.5522330000000  0.4653830000000  0.5087620000000 1.0
END
