TITL C-89165-4259-13 -0.0192355937520985 125000 -272.761972700089 0 0 41 (C1) n - 1
REM
REM in /rds/project/t2_vol4/rds-t2-cs072/BORA/CARBON/from-Arr/AIRSS/Generating-Clusters/GAP-ML-2020/Higher-Symm/SD-CG/HFTN-CG
REM
REM
REM
REM
REM
REM ./C.cell (b20cbc046b6831c77cfcea5457e17084)
REM AIRSS Version 0.9.1 bugfix July 2018 build 013d7b7c2542+ Fri, 06 Jul 2018 19:26:36 +0100
REM compiler GCC version 9.3.0
REM options -cpp -mtune=generic -march=x86-64 -g -O0
REM seed 1947957258 1298759767 -1897609385 -565189170 1231072735 887413756 -1057388680 524940953 -802212119 708552711 759774269 -235925719 1246614718 733300056 -1314630090 2001689384 -474232259 -761590868 -1077837207 -1962754340 -1403168300 1828593525 1984351916 130143605 -1524860308 810565066 1187934201 586971436 -1280948138 666533012 1730742209 -768533266 1930910760
REM
CELL 1.54180   50.00000   50.00000   50.00000   90.00000   90.00000   90.00000
LATT -1
SFAC C  
C      1  0.5005410000000  0.4390560000000  0.4925830000000 1.0
C      1  0.5049150000000  0.5667170000000  0.4974730000000 1.0
C      1  0.4752360000000  0.4391410000000  0.4843060000000 1.0
C      1  0.4846140000000  0.5628280000000  0.4786930000000 1.0
C      1  0.4628040000000  0.4666690000000  0.5385600000000 1.0
C      1  0.4740180000000  0.5260300000000  0.5469590000000 1.0
C      1  0.4535900000000  0.4437600000000  0.4710480000000 1.0
C      1  0.4591670000000  0.5600120000000  0.4719710000000 1.0
C      1  0.5360520000000  0.5342870000000  0.5202510000000 1.0
C      1  0.5352740000000  0.4575250000000  0.5203230000000 1.0
C      1  0.5128330000000  0.5585060000000  0.4722950000000 1.0
C      1  0.5247620000000  0.4478160000000  0.4779320000000 1.0
C      1  0.5206430000000  0.5318030000000  0.4676430000000 1.0
C      1  0.5220120000000  0.4742780000000  0.4671060000000 1.0
C      1  0.4522410000000  0.5329540000000  0.4740490000000 1.0
C      1  0.4505190000000  0.4720530000000  0.4701350000000 1.0
C      1  0.4978220000000  0.4862440000000  0.4777710000000 1.0
C      1  0.4982680000000  0.5166780000000  0.4779640000000 1.0
C      1  0.4904420000000  0.5024630000000  0.5501090000000 1.0
C      1  0.4813640000000  0.4769900000000  0.5564940000000 1.0
C      1  0.5469920000000  0.4490460000000  0.4952760000000 1.0
C      1  0.5581470000000  0.5451040000000  0.5065350000000 1.0
C      1  0.4448940000000  0.4874490000000  0.4933820000000 1.0
C      1  0.4440010000000  0.5166810000000  0.4966150000000 1.0
C      1  0.5462880000000  0.5190840000000  0.4698810000000 1.0
C      1  0.5462550000000  0.4905000000000  0.4710400000000 1.0
C      1  0.5597890000000  0.4760990000000  0.4925390000000 1.0
C      1  0.5665480000000  0.5343320000000  0.4845580000000 1.0
C      1  0.4921720000000  0.5230440000000  0.5071950000000 1.0
C      1  0.4933330000000  0.4791320000000  0.5076230000000 1.0
C      1  0.4876750000000  0.4534390000000  0.5421560000000 1.0
C      1  0.4913950000000  0.5472630000000  0.5436950000000 1.0
C      1  0.4647220000000  0.4835850000000  0.5147690000000 1.0
C      1  0.4644840000000  0.5157300000000  0.5180920000000 1.0
C      1  0.5080550000000  0.5470500000000  0.5197610000000 1.0
C      1  0.5050550000000  0.4539760000000  0.5187040000000 1.0
C      1  0.5491800000000  0.4835040000000  0.5187130000000 1.0
C      1  0.5336550000000  0.5062970000000  0.5241430000000 1.0
C      1  0.4729240000000  0.5169070000000  0.4619120000000 1.0
C      1  0.4721330000000  0.4881010000000  0.4619100000000 1.0
C      1  0.5051120000000  0.5008410000000  0.5243190000000 1.0
END
