TITL C-89167-4221-2 -0.180913302935507 125000 -903.240168346787 0 0 122 (C1) n - 1
REM
REM in /rds/project/t2_vol4/rds-t2-cs072/BORA/CARBON/from-Arr/AIRSS/Generating-Clusters/GAP-ML-2020/Higher-Symm/SD-CG/HFTN-CG
REM
REM
REM
REM
REM
REM ./C.cell (b20cbc046b6831c77cfcea5457e17084)
REM AIRSS Version 0.9.1 bugfix July 2018 build 013d7b7c2542+ Fri, 06 Jul 2018 19:26:36 +0100
REM compiler GCC version 9.3.0
REM options -cpp -mtune=generic -march=x86-64 -g -O0
REM seed 278806352 1201850347 889498675 -1266279298 1101275968 -1064031991 799114777 -914264001 -1229605750 -367333966 -1542826092 -2025689444 1076435602 1774683740 -439220814 -1242430370 1725600289 370866903 -2115698543 -1187290031 830513723 1471603027 372004683 1235332316 -1782356791 426371642 592881504 -1302900267 -1369045499 -389683440 -25120203 -236742686 418235050
REM
CELL 1.54180   50.00000   50.00000   50.00000   90.00000   90.00000   90.00000
LATT -1
SFAC C  
C      1  0.5777740000000  0.5255890000000  0.5496110000000 1.0
C      1  0.4764200000000  0.5266460000000  0.5881490000000 1.0
C      1  0.4084300000000  0.5234260000000  0.5032010000000 1.0
C      1  0.4670990000000  0.5216590000000  0.4128130000000 1.0
C      1  0.5708350000000  0.5231450000000  0.4403600000000 1.0
C      1  0.4258460000000  0.4775470000000  0.5493260000000 1.0
C      1  0.5253590000000  0.4795450000000  0.5889550000000 1.0
C      1  0.5880080000000  0.4772070000000  0.5049610000000 1.0
C      1  0.5311130000000  0.4756740000000  0.4137680000000 1.0
C      1  0.4281840000000  0.4745260000000  0.4435300000000 1.0
C      1  0.4542850000000  0.4186990000000  0.5174380000000 1.0
C      1  0.4713870000000  0.4178870000000  0.4632070000000 1.0
C      1  0.5275340000000  0.4178820000000  0.4624590000000 1.0
C      1  0.5473120000000  0.4181580000000  0.5179960000000 1.0
C      1  0.5006370000000  0.4199660000000  0.5513700000000 1.0
C      1  0.5452160000000  0.5816020000000  0.5118540000000 1.0
C      1  0.5281060000000  0.5812170000000  0.4573190000000 1.0
C      1  0.4710670000000  0.5795680000000  0.4583500000000 1.0
C      1  0.4526470000000  0.5824730000000  0.5125310000000 1.0
C      1  0.4989690000000  0.5834830000000  0.5470500000000 1.0
C      1  0.5416300000000  0.5029000000000  0.4934720000000 1.0
C      1  0.5145490000000  0.4951110000000  0.5344130000000 1.0
C      1  0.4679160000000  0.5017720000000  0.5311430000000 1.0
C      1  0.4666780000000  0.5166460000000  0.4860340000000 1.0
C      1  0.5066920000000  0.5178920000000  0.4650850000000 1.0
C      1  0.4612760000000  0.4953000000000  0.5034780000000 1.0
C      1  0.4896390000000  0.4818230000000  0.5346920000000 1.0
C      1  0.5309630000000  0.4854000000000  0.5139620000000 1.0
C      1  0.5256630000000  0.4979320000000  0.4688700000000 1.0
C      1  0.4811440000000  0.5059910000000  0.4644070000000 1.0
C      1  0.4363570000000  0.5689500000000  0.4924450000000 1.0
C      1  0.4851600000000  0.5667190000000  0.4366800000000 1.0
C      1  0.5533980000000  0.5689090000000  0.4642700000000 1.0
C      1  0.5429790000000  0.5646060000000  0.5367880000000 1.0
C      1  0.4747400000000  0.5712860000000  0.5567930000000 1.0
C      1  0.5634430000000  0.4308710000000  0.4975300000000 1.0
C      1  0.5133430000000  0.4296080000000  0.4402720000000 1.0
C      1  0.4462210000000  0.4303180000000  0.4691380000000 1.0
C      1  0.4529710000000  0.4319230000000  0.5430980000000 1.0
C      1  0.5250070000000  0.4329980000000  0.5604860000000 1.0
C      1  0.4663570000000  0.5467410000000  0.4275850000000 1.0
C      1  0.5571570000000  0.5490880000000  0.4432340000000 1.0
C      1  0.5688970000000  0.5501750000000  0.5365340000000 1.0
C      1  0.4847040000000  0.5522780000000  0.5770710000000 1.0
C      1  0.4216210000000  0.5494770000000  0.5077020000000 1.0
C      1  0.5278450000000  0.4551430000000  0.4352590000000 1.0
C      1  0.4428340000000  0.4497720000000  0.4478250000000 1.0
C      1  0.4319360000000  0.4514590000000  0.5389050000000 1.0
C      1  0.5157140000000  0.4536680000000  0.5785210000000 1.0
C      1  0.5772080000000  0.4514560000000  0.5117080000000 1.0
C      1  0.5621020000000  0.5693650000000  0.4924140000000 1.0
C      1  0.5231440000000  0.5720090000000  0.5579270000000 1.0
C      1  0.4513430000000  0.5708910000000  0.5390740000000 1.0
C      1  0.4458770000000  0.5674090000000  0.4652640000000 1.0
C      1  0.5139270000000  0.5679650000000  0.4356490000000 1.0
C      1  0.4374120000000  0.4304680000000  0.4968000000000 1.0
C      1  0.4763990000000  0.4328260000000  0.5603810000000 1.0
C      1  0.5485620000000  0.4320100000000  0.5438830000000 1.0
C      1  0.5492630000000  0.4358450000000  0.4716910000000 1.0
C      1  0.4850200000000  0.4296530000000  0.4405630000000 1.0
C      1  0.4861350000000  0.4533730000000  0.5786930000000 1.0
C      1  0.4226250000000  0.4507070000000  0.5108000000000 1.0
C      1  0.4668010000000  0.4495370000000  0.4304030000000 1.0
C      1  0.5554540000000  0.4521900000000  0.4480380000000 1.0
C      1  0.5690550000000  0.4520350000000  0.5402160000000 1.0
C      1  0.5141800000000  0.5529080000000  0.5772450000000 1.0
C      1  0.5776690000000  0.5504760000000  0.5084260000000 1.0
C      1  0.5329240000000  0.5484380000000  0.4259950000000 1.0
C      1  0.4425960000000  0.5469990000000  0.4451670000000 1.0
C      1  0.4311030000000  0.5504600000000  0.5356540000000 1.0
C      1  0.4833890000000  0.5356920000000  0.4997860000000 1.0
C      1  0.5081250000000  0.5362680000000  0.4863460000000 1.0
C      1  0.5309240000000  0.5293310000000  0.5012200000000 1.0
C      1  0.5102850000000  0.5222180000000  0.5352950000000 1.0
C      1  0.4840860000000  0.5269040000000  0.5266330000000 1.0
C      1  0.5150620000000  0.4717620000000  0.4627210000000 1.0
C      1  0.4867460000000  0.4787080000000  0.4682730000000 1.0
C      1  0.4752640000000  0.4726820000000  0.4930610000000 1.0
C      1  0.4919010000000  0.4630900000000  0.5129460000000 1.0
C      1  0.5188020000000  0.4611020000000  0.5064210000000 1.0
C      1  0.4851340000000  0.5938050000000  0.4774650000000 1.0
C      1  0.5134390000000  0.5942260000000  0.4771240000000 1.0
C      1  0.5221650000000  0.5944830000000  0.5042420000000 1.0
C      1  0.4992160000000  0.5944070000000  0.5212730000000 1.0
C      1  0.4763750000000  0.5945410000000  0.5045430000000 1.0
C      1  0.5146270000000  0.4039070000000  0.4829570000000 1.0
C      1  0.4861680000000  0.4051110000000  0.4833830000000 1.0
C      1  0.4777900000000  0.4058580000000  0.5103700000000 1.0
C      1  0.5008350000000  0.4061510000000  0.5271700000000 1.0
C      1  0.5237490000000  0.4053270000000  0.5102050000000 1.0
C      1  0.4172830000000  0.4985090000000  0.4578850000000 1.0
C      1  0.5138610000000  0.4989860000000  0.4064740000000 1.0
C      1  0.5773430000000  0.5008330000000  0.4875820000000 1.0
C      1  0.5428320000000  0.5036530000000  0.5826310000000 1.0
C      1  0.4435800000000  0.5018430000000  0.5563490000000 1.0
C      1  0.5783930000000  0.5000390000000  0.4572520000000 1.0
C      1  0.4847570000000  0.4981360000000  0.4070850000000 1.0
C      1  0.4085950000000  0.4991450000000  0.4854710000000 1.0
C      1  0.4608980000000  0.5025620000000  0.5807730000000 1.0
C      1  0.5662910000000  0.5026590000000  0.5652440000000 1.0
C      1  0.4770180000000  0.4792210000000  0.5889940000000 1.0
C      1  0.4087600000000  0.4758870000000  0.5047590000000 1.0
C      1  0.4674650000000  0.4739590000000  0.4140930000000 1.0
C      1  0.5703400000000  0.4757480000000  0.4425250000000 1.0
C      1  0.5770450000000  0.4782210000000  0.5512880000000 1.0
C      1  0.5248130000000  0.5274990000000  0.5883350000000 1.0
C      1  0.5888430000000  0.5247590000000  0.5033030000000 1.0
C      1  0.5318760000000  0.5227900000000  0.4117540000000 1.0
C      1  0.4279400000000  0.5219070000000  0.4420990000000 1.0
C      1  0.4253400000000  0.5251550000000  0.5476930000000 1.0
C      1  0.4062690000000  0.5143320000000  0.5298630000000 1.0
C      1  0.4413880000000  0.5113320000000  0.4195210000000 1.0
C      1  0.5577080000000  0.5123200000000  0.4175230000000 1.0
C      1  0.5944730000000  0.5151580000000  0.5295130000000 1.0
C      1  0.5009260000000  0.5172020000000  0.5988190000000 1.0
C      1  0.5939490000000  0.4876500000000  0.5304560000000 1.0
C      1  0.5575560000000  0.4848000000000  0.4182970000000 1.0
C      1  0.4416090000000  0.4839760000000  0.4200840000000 1.0
C      1  0.4063780000000  0.4866560000000  0.5308790000000 1.0
C      1  0.5011680000000  0.4897180000000  0.5994500000000 1.0
C      1  0.5310860000000  0.5382380000000  0.5271520000000 1.0
C      1  0.5247250000000  0.4524280000000  0.4812280000000 1.0
END
