TITL C-89353-4107-2 -0.0713635583586789 125000 -501.97949038059 0 0 74 (C2) n - 1
REM
REM in /rds/project/t2_vol4/rds-t2-cs072/BORA/CARBON/from-Arr/AIRSS/Generating-Clusters/GAP-ML-2020/Higher-Symm/SD-CG/HFTN-CG
REM
REM
REM
REM
REM
REM ./C.cell (b20cbc046b6831c77cfcea5457e17084)
REM AIRSS Version 0.9.1 bugfix July 2018 build 013d7b7c2542+ Fri, 06 Jul 2018 19:26:36 +0100
REM compiler GCC version 9.3.0
REM options -cpp -mtune=generic -march=x86-64 -g -O0
REM seed -409402065 -1672153205 1107642733 147756944 1025329364 1162954151 -238629886 1406896343 -1739752833 1021985117 -784381384 -877581051 1239736461 1211150139 1150971192 1227923576 -1957488986 1016204649 -1778465803 774487029 -1897049842 1882482782 -24776097 -506284129 -1398014357 1030522510 1048460384 -489405881 1341709506 -1925100553 39302407 -303855488 57176282
REM
CELL 1.54180   50.00000   50.00000   50.00000   90.00000   90.00000   90.00000
LATT -1
SFAC C  
C      1  0.5293430000000  0.4327260000000  0.4463400000000 1.0
C      1  0.4707680000000  0.5672990000000  0.4463110000000 1.0
C      1  0.5257610000000  0.5688330000000  0.4502420000000 1.0
C      1  0.4743420000000  0.4311910000000  0.4501560000000 1.0
C      1  0.5556760000000  0.5599680000000  0.5201140000000 1.0
C      1  0.4442820000000  0.4400220000000  0.5199700000000 1.0
C      1  0.5542700000000  0.4405610000000  0.5172520000000 1.0
C      1  0.4456930000000  0.5594300000000  0.5171680000000 1.0
C      1  0.5160090000000  0.4720910000000  0.4708070000000 1.0
C      1  0.4840510000000  0.5279230000000  0.4707880000000 1.0
C      1  0.5148490000000  0.5285690000000  0.4720390000000 1.0
C      1  0.4852090000000  0.4714440000000  0.4719950000000 1.0
C      1  0.5556580000000  0.4755830000000  0.4936510000000 1.0
C      1  0.4443550000000  0.5244200000000  0.4935470000000 1.0
C      1  0.5546570000000  0.5254500000000  0.4946090000000 1.0
C      1  0.4453540000000  0.4745520000000  0.4944840000000 1.0
C      1  0.4855240000000  0.4848240000000  0.5233840000000 1.0
C      1  0.5144270000000  0.5151650000000  0.5234210000000 1.0
C      1  0.4856330000000  0.5156480000000  0.5233690000000 1.0
C      1  0.5143180000000  0.4843410000000  0.5233910000000 1.0
C      1  0.5665040000000  0.4627330000000  0.5338550000000 1.0
C      1  0.4334250000000  0.5372510000000  0.5337340000000 1.0
C      1  0.5675090000000  0.5367510000000  0.5349570000000 1.0
C      1  0.4324180000000  0.4632320000000  0.5347990000000 1.0
C      1  0.4912760000000  0.5784570000000  0.5153130000000 1.0
C      1  0.5086920000000  0.4215350000000  0.5152940000000 1.0
C      1  0.4851770000000  0.4163110000000  0.5293270000000 1.0
C      1  0.5147610000000  0.5836750000000  0.5293980000000 1.0
C      1  0.5151570000000  0.5298350000000  0.4258140000000 1.0
C      1  0.4849970000000  0.4702000000000  0.4257680000000 1.0
C      1  0.5134680000000  0.4715340000000  0.4249740000000 1.0
C      1  0.4866870000000  0.5285020000000  0.4249600000000 1.0
C      1  0.4295950000000  0.4855260000000  0.5161350000000 1.0
C      1  0.5703710000000  0.5144660000000  0.5162880000000 1.0
C      1  0.4294470000000  0.5142170000000  0.5158630000000 1.0
C      1  0.5705190000000  0.4857750000000  0.5160020000000 1.0
C      1  0.5248760000000  0.4870100000000  0.4461490000000 1.0
C      1  0.4752350000000  0.5130160000000  0.4461040000000 1.0
C      1  0.5255460000000  0.5143590000000  0.4469830000000 1.0
C      1  0.4745640000000  0.4856670000000  0.4469240000000 1.0
C      1  0.5267040000000  0.4432890000000  0.4733520000000 1.0
C      1  0.4733510000000  0.5567240000000  0.4733240000000 1.0
C      1  0.5231170000000  0.5578500000000  0.4769880000000 1.0
C      1  0.4769310000000  0.4421610000000  0.4769120000000 1.0
C      1  0.5155200000000  0.5152680000000  0.5545410000000 1.0
C      1  0.4843670000000  0.4847060000000  0.5545020000000 1.0
C      1  0.5148810000000  0.4840760000000  0.5548160000000 1.0
C      1  0.4850050000000  0.5158970000000  0.5547920000000 1.0
C      1  0.5344250000000  0.4237570000000  0.5250490000000 1.0
C      1  0.4655230000000  0.5762310000000  0.5250140000000 1.0
C      1  0.5393330000000  0.5798600000000  0.5321110000000 1.0
C      1  0.4606000000000  0.4201240000000  0.5319910000000 1.0
C      1  0.5513100000000  0.4482820000000  0.4909110000000 1.0
C      1  0.4487080000000  0.5517220000000  0.4908290000000 1.0
C      1  0.5487230000000  0.5526590000000  0.4943020000000 1.0
C      1  0.4512890000000  0.4473440000000  0.4941750000000 1.0
C      1  0.5346940000000  0.4669790000000  0.5681320000000 1.0
C      1  0.4651640000000  0.5329890000000  0.5680750000000 1.0
C      1  0.5362810000000  0.5308250000000  0.5688070000000 1.0
C      1  0.4635760000000  0.4691420000000  0.5687170000000 1.0
C      1  0.5603380000000  0.5374180000000  0.5621760000000 1.0
C      1  0.4395330000000  0.4625520000000  0.5620320000000 1.0
C      1  0.5582930000000  0.4600360000000  0.5602410000000 1.0
C      1  0.4415810000000  0.5399350000000  0.5601390000000 1.0
C      1  0.4719280000000  0.5148040000000  0.4940720000000 1.0
C      1  0.5280840000000  0.4851990000000  0.4941230000000 1.0
C      1  0.4724910000000  0.4855000000000  0.4943550000000 1.0
C      1  0.5275200000000  0.5145030000000  0.4944190000000 1.0
C      1  0.4842530000000  0.5575290000000  0.4253870000000 1.0
C      1  0.5159010000000  0.4425060000000  0.4253920000000 1.0
C      1  0.4847100000000  0.4411870000000  0.4275860000000 1.0
C      1  0.5154400000000  0.5588480000000  0.4276460000000 1.0
C      1  0.5035770000000  0.4324550000000  0.4888240000000 1.0
C      1  0.4964460000000  0.5675510000000  0.4888490000000 1.0
END
