TITL C-89163-4156-1 -0.0305399613408819 125000 -639.500471854748 0 0 91 (Cs) n - 1
REM
REM in /rds/project/t2_vol4/rds-t2-cs072/BORA/CARBON/from-Arr/AIRSS/Generating-Clusters/GAP-ML-2020/Higher-Symm/SD-CG/HFTN-CG
REM
REM
REM
REM
REM
REM ./C.cell (b20cbc046b6831c77cfcea5457e17084)
REM AIRSS Version 0.9.1 bugfix July 2018 build 013d7b7c2542+ Fri, 06 Jul 2018 19:26:36 +0100
REM compiler GCC version 9.3.0
REM options -cpp -mtune=generic -march=x86-64 -g -O0
REM seed 1541651797 1491240063 1502866327 782688921 1233846434 -1741521716 -582880495 -1531478709 -2077866702 -185868146 1608847079 -1810241785 -643745240 -1405679618 -194745513 1631075379 695403256 626895016 444393093 1107402737 -1309155722 -682957809 567018726 -1935731916 -1023112326 -69273442 1127452797 -1286511549 -748704891 1666409074 1104165187 1923758390 -477957247
REM
CELL 1.54180   50.00000   50.00000   50.00000   90.00000   90.00000   90.00000
LATT -1
SFAC C  
C      1  0.5238610000000  0.5160760000000  0.4239850000000 1.0
C      1  0.4776820000000  0.5168570000000  0.5765850000000 1.0
C      1  0.4763580000000  0.5143470000000  0.4231910000000 1.0
C      1  0.5251630000000  0.5185460000000  0.5749160000000 1.0
C      1  0.4887930000000  0.4974590000000  0.5236430000000 1.0
C      1  0.5165930000000  0.4931230000000  0.4762920000000 1.0
C      1  0.5170000000000  0.4938960000000  0.5235210000000 1.0
C      1  0.4883870000000  0.4966890000000  0.4765400000000 1.0
C      1  0.4831990000000  0.4549700000000  0.4281800000000 1.0
C      1  0.5071300000000  0.4745550000000  0.5802060000000 1.0
C      1  0.5057520000000  0.4719410000000  0.4204490000000 1.0
C      1  0.4844520000000  0.4573470000000  0.5734240000000 1.0
C      1  0.4714050000000  0.4742820000000  0.5156820000000 1.0
C      1  0.5345270000000  0.4697490000000  0.4854530000000 1.0
C      1  0.5347800000000  0.4702290000000  0.5148220000000 1.0
C      1  0.4711460000000  0.4737890000000  0.4855540000000 1.0
C      1  0.5287630000000  0.4411340000000  0.5232760000000 1.0
C      1  0.4797160000000  0.4429400000000  0.4778530000000 1.0
C      1  0.4801160000000  0.4436990000000  0.5242390000000 1.0
C      1  0.5283730000000  0.4403940000000  0.4780600000000 1.0
C      1  0.4403640000000  0.4750140000000  0.4738870000000 1.0
C      1  0.5631090000000  0.4747720000000  0.5276530000000 1.0
C      1  0.5626280000000  0.4738610000000  0.4719940000000 1.0
C      1  0.4408290000000  0.4758970000000  0.5278320000000 1.0
C      1  0.5647250000000  0.5267690000000  0.5499190000000 1.0
C      1  0.4354840000000  0.5251100000000  0.4481880000000 1.0
C      1  0.4363790000000  0.5268080000000  0.5519580000000 1.0
C      1  0.5638460000000  0.5251010000000  0.4480140000000 1.0
C      1  0.4514470000000  0.5080100000000  0.5662930000000 1.0
C      1  0.5492290000000  0.5057060000000  0.4339720000000 1.0
C      1  0.5503580000000  0.5078470000000  0.5648380000000 1.0
C      1  0.4503070000000  0.5058480000000  0.4342190000000 1.0
C      1  0.4914930000000  0.4392550000000  0.4506420000000 1.0
C      1  0.5202030000000  0.4426710000000  0.5503710000000 1.0
C      1  0.5193470000000  0.4410460000000  0.4510810000000 1.0
C      1  0.4923620000000  0.4409030000000  0.5513490000000 1.0
C      1  0.5282290000000  0.5167000000000  0.5125350000000 1.0
C      1  0.4820410000000  0.5241670000000  0.4860820000000 1.0
C      1  0.4822760000000  0.5246120000000  0.5133180000000 1.0
C      1  0.5280030000000  0.5162710000000  0.4863320000000 1.0
C      1  0.5283980000000  0.5586230000000  0.4512370000000 1.0
C      1  0.4708380000000  0.5579480000000  0.5495610000000 1.0
C      1  0.4699700000000  0.5563020000000  0.4489710000000 1.0
C      1  0.5292170000000  0.5601770000000  0.5462130000000 1.0
C      1  0.5771890000000  0.4966880000000  0.5136080000000 1.0
C      1  0.4250300000000  0.4964710000000  0.4866340000000 1.0
C      1  0.4252710000000  0.4969300000000  0.5146560000000 1.0
C      1  0.5769430000000  0.4962210000000  0.4850690000000 1.0
C      1  0.5785360000000  0.5207420000000  0.4724380000000 1.0
C      1  0.4239000000000  0.5220430000000  0.5262710000000 1.0
C      1  0.4234520000000  0.5211910000000  0.4742290000000 1.0
C      1  0.5789920000000  0.5216090000000  0.5254010000000 1.0
C      1  0.4736140000000  0.5840430000000  0.5129570000000 1.0
C      1  0.5023570000000  0.5928050000000  0.4839730000000 1.0
C      1  0.5026060000000  0.5932770000000  0.5128300000000 1.0
C      1  0.4733700000000  0.5835800000000  0.4846480000000 1.0
C      1  0.5537630000000  0.4279970000000  0.4866040000000 1.0
C      1  0.4551240000000  0.4304600000000  0.5154170000000 1.0
C      1  0.4548830000000  0.4300040000000  0.4875330000000 1.0
C      1  0.5540060000000  0.4284570000000  0.5147060000000 1.0
C      1  0.4861070000000  0.5424700000000  0.5680830000000 1.0
C      1  0.5138500000000  0.5413800000000  0.4323290000000 1.0
C      1  0.5150030000000  0.5435660000000  0.5659230000000 1.0
C      1  0.4849220000000  0.5402220000000  0.4307050000000 1.0
C      1  0.5512760000000  0.4783960000000  0.4428270000000 1.0
C      1  0.4457240000000  0.4807400000000  0.5577250000000 1.0
C      1  0.4447410000000  0.4788760000000  0.4437720000000 1.0
C      1  0.5522590000000  0.4802620000000  0.5568470000000 1.0
C      1  0.5118560000000  0.5709280000000  0.5272530000000 1.0
C      1  0.4854820000000  0.5554620000000  0.4737430000000 1.0
C      1  0.4859210000000  0.5562930000000  0.5245660000000 1.0
C      1  0.5113630000000  0.5699930000000  0.4701320000000 1.0
C      1  0.4330380000000  0.4492440000000  0.4870570000000 1.0
C      1  0.5744490000000  0.4491420000000  0.5147630000000 1.0
C      1  0.5741970000000  0.4486630000000  0.4855180000000 1.0
C      1  0.4332840000000  0.4497120000000  0.5156400000000 1.0
C      1  0.4437150000000  0.5506880000000  0.4572360000000 1.0
C      1  0.5546200000000  0.5512820000000  0.5383920000000 1.0
C      1  0.5539340000000  0.5499810000000  0.4589050000000 1.0
C      1  0.4444450000000  0.5520740000000  0.5419380000000 1.0
C      1  0.5302780000000  0.4646100000000  0.5659530000000 1.0
C      1  0.4569450000000  0.4603470000000  0.4286640000000 1.0
C      1  0.4581920000000  0.4627120000000  0.5732180000000 1.0
C      1  0.5291450000000  0.4624610000000  0.4346190000000 1.0
C      1  0.5688900000000  0.5467250000000  0.5126000000000 1.0
C      1  0.4327650000000  0.5465600000000  0.4856100000000 1.0
C      1  0.4330090000000  0.5470230000000  0.5139070000000 1.0
C      1  0.5686480000000  0.5462660000000  0.4845830000000 1.0
C      1  0.5025600000000  0.5024330000000  0.5819840000000 1.0
C      1  0.5011450000000  0.4997470000000  0.4178390000000 1.0
C      1  0.5035090000000  0.4369760000000  0.5009460000000 1.0
END
