TITL C-89162-4144-5 -0.218139522424348 125000 -559.744208911416 0 0 84 (C1) n - 1
REM
REM in /rds/project/t2_vol4/rds-t2-cs072/BORA/CARBON/from-Arr/AIRSS/Generating-Clusters/GAP-ML-2020/Higher-Symm/SD-CG/HFTN-CG
REM
REM
REM
REM
REM
REM ./C.cell (b20cbc046b6831c77cfcea5457e17084)
REM AIRSS Version 0.9.1 bugfix July 2018 build 013d7b7c2542+ Fri, 06 Jul 2018 19:26:36 +0100
REM compiler GCC version 9.3.0
REM options -cpp -mtune=generic -march=x86-64 -g -O0
REM seed -1312217928 -1901317206 84878644 1553521959 673703900 1972516749 -516810742 655760616 -1091142692 1403551378 2132245420 164756898 1287353130 -480781038 1956326991 1137834326 1592833874 925606092 392743053 -1551011934 1403297563 1622447237 787131494 -302007070 -948278186 613895120 -1191026974 -953823911 -1221765955 -1777402220 2069342682 127407710 -2049859853
REM
CELL 1.54180   50.00000   50.00000   50.00000   90.00000   90.00000   90.00000
LATT -1
SFAC C  
C      1  0.5148660000000  0.4233220000000  0.4539110000000 1.0
C      1  0.4535940000000  0.5185310000000  0.4177780000000 1.0
C      1  0.4211420000000  0.4540950000000  0.5159810000000 1.0
C      1  0.4949630000000  0.5651130000000  0.4495290000000 1.0
C      1  0.4819120000000  0.4188220000000  0.5398060000000 1.0
C      1  0.5194060000000  0.5835940000000  0.5406700000000 1.0
C      1  0.5376580000000  0.4829080000000  0.4152560000000 1.0
C      1  0.5372920000000  0.5159740000000  0.5828010000000 1.0
C      1  0.4518920000000  0.4949220000000  0.5690290000000 1.0
C      1  0.5784080000000  0.5318500000000  0.5207230000000 1.0
C      1  0.5693880000000  0.4581990000000  0.4884110000000 1.0
C      1  0.4312680000000  0.5399830000000  0.4900240000000 1.0
C      1  0.4984280000000  0.4370070000000  0.5525920000000 1.0
C      1  0.4564450000000  0.5177810000000  0.5833770000000 1.0
C      1  0.4349100000000  0.4495660000000  0.4918930000000 1.0
C      1  0.4979780000000  0.5697250000000  0.5515040000000 1.0
C      1  0.4901630000000  0.4344320000000  0.4461610000000 1.0
C      1  0.5175280000000  0.5789760000000  0.4575500000000 1.0
C      1  0.5456980000000  0.4910240000000  0.5736810000000 1.0
C      1  0.5467940000000  0.5064950000000  0.4297180000000 1.0
C      1  0.4462650000000  0.4939450000000  0.4302320000000 1.0
C      1  0.5680920000000  0.5423540000000  0.4957320000000 1.0
C      1  0.5807390000000  0.4602580000000  0.5139030000000 1.0
C      1  0.4199090000000  0.5333270000000  0.5154230000000 1.0
C      1  0.4802640000000  0.4882390000000  0.4513770000000 1.0
C      1  0.4679500000000  0.4829060000000  0.4774270000000 1.0
C      1  0.4861070000000  0.4615570000000  0.4865440000000 1.0
C      1  0.5170410000000  0.5104770000000  0.4528280000000 1.0
C      1  0.5181390000000  0.4814640000000  0.5368540000000 1.0
C      1  0.4794670000000  0.5225260000000  0.5391370000000 1.0
C      1  0.5303390000000  0.5155490000000  0.4790830000000 1.0
C      1  0.5408780000000  0.4892830000000  0.5203730000000 1.0
C      1  0.4613340000000  0.5066370000000  0.5215190000000 1.0
C      1  0.5134120000000  0.5374650000000  0.4893000000000 1.0
C      1  0.5091470000000  0.4540640000000  0.5272600000000 1.0
C      1  0.4859720000000  0.5513870000000  0.5280130000000 1.0
C      1  0.4958060000000  0.4984130000000  0.5457730000000 1.0
C      1  0.4637510000000  0.4759540000000  0.5300790000000 1.0
C      1  0.4816130000000  0.4559820000000  0.5148160000000 1.0
C      1  0.5296410000000  0.5336300000000  0.5400570000000 1.0
C      1  0.5099230000000  0.4808110000000  0.4509960000000 1.0
C      1  0.4872110000000  0.5169350000000  0.4513540000000 1.0
C      1  0.5498440000000  0.5167880000000  0.5299680000000 1.0
C      1  0.5345510000000  0.4869640000000  0.4904570000000 1.0
C      1  0.4652210000000  0.5103850000000  0.4912500000000 1.0
C      1  0.5137110000000  0.5454400000000  0.5181920000000 1.0
C      1  0.5145560000000  0.4666650000000  0.4770250000000 1.0
C      1  0.4853410000000  0.5304140000000  0.4780500000000 1.0
C      1  0.5158390000000  0.4695910000000  0.4241430000000 1.0
C      1  0.4396440000000  0.5176270000000  0.4745820000000 1.0
C      1  0.4702200000000  0.4280000000000  0.5169050000000 1.0
C      1  0.4762490000000  0.5304090000000  0.4259110000000 1.0
C      1  0.4761660000000  0.4795610000000  0.5572450000000 1.0
C      1  0.5231590000000  0.5342330000000  0.5679140000000 1.0
C      1  0.5595020000000  0.4808320000000  0.4735330000000 1.0
C      1  0.5777690000000  0.5164150000000  0.5430860000000 1.0
C      1  0.4335700000000  0.4697520000000  0.5341230000000 1.0
C      1  0.5318260000000  0.5694620000000  0.5207690000000 1.0
C      1  0.5274790000000  0.4382260000000  0.4726310000000 1.0
C      1  0.4741560000000  0.5562640000000  0.4702640000000 1.0
C      1  0.5245160000000  0.4740900000000  0.5652850000000 1.0
C      1  0.4327300000000  0.5146630000000  0.5306740000000 1.0
C      1  0.4754920000000  0.4381090000000  0.4707110000000 1.0
C      1  0.4739400000000  0.5329550000000  0.5692450000000 1.0
C      1  0.4679760000000  0.4741070000000  0.4290520000000 1.0
C      1  0.5262770000000  0.5280180000000  0.4317610000000 1.0
C      1  0.5658630000000  0.4731860000000  0.5320030000000 1.0
C      1  0.5587760000000  0.5245080000000  0.4744720000000 1.0
C      1  0.4409420000000  0.4718410000000  0.4734810000000 1.0
C      1  0.5285720000000  0.5641970000000  0.4771510000000 1.0
C      1  0.5315520000000  0.4409080000000  0.5157560000000 1.0
C      1  0.4660960000000  0.5642800000000  0.5130510000000 1.0
C      1  0.4533350000000  0.5606200000000  0.4894400000000 1.0
C      1  0.5465740000000  0.4388410000000  0.4931290000000 1.0
C      1  0.4330140000000  0.4946920000000  0.4573300000000 1.0
C      1  0.4561140000000  0.4293110000000  0.4905530000000 1.0
C      1  0.4884870000000  0.4541410000000  0.4239510000000 1.0
C      1  0.5643230000000  0.5035180000000  0.4552110000000 1.0
C      1  0.5691120000000  0.4912560000000  0.5547400000000 1.0
C      1  0.4294120000000  0.4935910000000  0.5507960000000 1.0
C      1  0.5493530000000  0.5654330000000  0.4975810000000 1.0
C      1  0.4998020000000  0.5462700000000  0.4284590000000 1.0
C      1  0.4983650000000  0.4595890000000  0.5696990000000 1.0
C      1  0.4978410000000  0.5493660000000  0.5719460000000 1.0
END
