TITL C-89158-4179-1 0.0999690896659458 125000 -1097.75106193191 0 0 156 (D3) n - 1
REM
REM in /rds/project/t2_vol4/rds-t2-cs072/BORA/CARBON/from-Arr/AIRSS/Generating-Clusters/GAP-ML-2020/Higher-Symm/SD-CG/HFTN-CG
REM
REM
REM
REM
REM
REM ./C.cell (b20cbc046b6831c77cfcea5457e17084)
REM AIRSS Version 0.9.1 bugfix July 2018 build 013d7b7c2542+ Fri, 06 Jul 2018 19:26:36 +0100
REM compiler GCC version 9.3.0
REM options -cpp -mtune=generic -march=x86-64 -g -O0
REM seed -600206755 1882523606 1971949944 1170742042 926931841 -632282860 -670871056 -1952391093 -1074001840 1091772809 640715484 -227261935 -763953349 875924291 -1559269659 256608058 1116168333 334574691 1872706403 1746888481 -1675807458 -67384484 298360783 -985668624 -703992600 -1837308208 -1252627534 -1273971280 731736318 160197291 573770519 53678889 1006293068
REM
CELL 1.54180   50.00000   50.00000   50.00000   90.00000   90.00000   90.00000
LATT -1
SFAC C  
C      1  0.5113450000000  0.4060300000000  0.4947050000000 1.0
C      1  0.4129470000000  0.5371500000000  0.4946450000000 1.0
C      1  0.5756990000000  0.5568050000000  0.4945330000000 1.0
C      1  0.5114280000000  0.5939610000000  0.5052820000000 1.0
C      1  0.4129230000000  0.4629210000000  0.5054560000000 1.0
C      1  0.5756590000000  0.4431320000000  0.5053790000000 1.0
C      1  0.4352960000000  0.5068810000000  0.5762670000000 1.0
C      1  0.5383190000000  0.5527360000000  0.5761660000000 1.0
C      1  0.5265190000000  0.4405880000000  0.5762730000000 1.0
C      1  0.4352010000000  0.4931720000000  0.4238080000000 1.0
C      1  0.5381870000000  0.4472330000000  0.4237900000000 1.0
C      1  0.5264790000000  0.5593900000000  0.4236960000000 1.0
C      1  0.5242670000000  0.4874200000000  0.4563410000000 1.0
C      1  0.4769680000000  0.4851940000000  0.4563710000000 1.0
C      1  0.4986890000000  0.5272690000000  0.4563200000000 1.0
C      1  0.5243280000000  0.5125600000000  0.5436300000000 1.0
C      1  0.4770310000000  0.5148250000000  0.5436560000000 1.0
C      1  0.4987180000000  0.4727320000000  0.5436810000000 1.0
C      1  0.6003910000000  0.4893040000000  0.5096140000000 1.0
C      1  0.4405420000000  0.4184250000000  0.5097700000000 1.0
C      1  0.4590840000000  0.5922980000000  0.5096040000000 1.0
C      1  0.6003890000000  0.5106140000000  0.4902690000000 1.0
C      1  0.4405980000000  0.5816240000000  0.4902990000000 1.0
C      1  0.4589960000000  0.4077360000000  0.4904440000000 1.0
C      1  0.5266030000000  0.5172200000000  0.4994410000000 1.0
C      1  0.5016120000000  0.4683510000000  0.4995000000000 1.0
C      1  0.4717850000000  0.5144280000000  0.4994760000000 1.0
C      1  0.5265890000000  0.4827580000000  0.5005280000000 1.0
C      1  0.5016380000000  0.5316480000000  0.5004990000000 1.0
C      1  0.4717740000000  0.4855950000000  0.5005570000000 1.0
C      1  0.5891200000000  0.4979180000000  0.4655440000000 1.0
C      1  0.4536340000000  0.4237980000000  0.4656890000000 1.0
C      1  0.4571860000000  0.5781920000000  0.4655490000000 1.0
C      1  0.5891610000000  0.5020080000000  0.5343520000000 1.0
C      1  0.4537370000000  0.5762410000000  0.5343650000000 1.0
C      1  0.4571620000000  0.4218430000000  0.5345010000000 1.0
C      1  0.4815940000000  0.5951350000000  0.4680660000000 1.0
C      1  0.5915890000000  0.4683140000000  0.4681150000000 1.0
C      1  0.4267610000000  0.4364660000000  0.4682400000000 1.0
C      1  0.4815530000000  0.4048810000000  0.5319550000000 1.0
C      1  0.5916520000000  0.5316110000000  0.5317780000000 1.0
C      1  0.4268510000000  0.5635940000000  0.5318450000000 1.0
C      1  0.5239990000000  0.4818140000000  0.4001790000000 1.0
C      1  0.4722410000000  0.4881250000000  0.4002030000000 1.0
C      1  0.5035860000000  0.5297930000000  0.4001480000000 1.0
C      1  0.5241300000000  0.5181660000000  0.5997930000000 1.0
C      1  0.4723670000000  0.5118980000000  0.5998290000000 1.0
C      1  0.5036770000000  0.4702040000000  0.5998480000000 1.0
C      1  0.4299920000000  0.4474630000000  0.5693620000000 1.0
C      1  0.4895120000000  0.5870250000000  0.5692030000000 1.0
C      1  0.5806160000000  0.4656980000000  0.5692580000000 1.0
C      1  0.4299550000000  0.5525950000000  0.4307190000000 1.0
C      1  0.4893600000000  0.4129840000000  0.4308090000000 1.0
C      1  0.5805640000000  0.5342360000000  0.4306480000000 1.0
C      1  0.4587470000000  0.5523960000000  0.5779350000000 1.0
C      1  0.5660110000000  0.5096720000000  0.5779110000000 1.0
C      1  0.4753780000000  0.4381410000000  0.5780280000000 1.0
C      1  0.4586130000000  0.4476380000000  0.4221130000000 1.0
C      1  0.5659120000000  0.4902740000000  0.4220120000000 1.0
C      1  0.4753390000000  0.5618790000000  0.4220010000000 1.0
C      1  0.5277530000000  0.4722150000000  0.5818140000000 1.0
C      1  0.4620690000000  0.4900080000000  0.5818360000000 1.0
C      1  0.5103210000000  0.5379960000000  0.5817650000000 1.0
C      1  0.5276810000000  0.5277620000000  0.4181540000000 1.0
C      1  0.4619820000000  0.5100230000000  0.4182080000000 1.0
C      1  0.5101940000000  0.4619950000000  0.4182230000000 1.0
C      1  0.5757680000000  0.4511330000000  0.4517820000000 1.0
C      1  0.4197910000000  0.4587280000000  0.4518660000000 1.0
C      1  0.5043570000000  0.5900100000000  0.4517000000000 1.0
C      1  0.5758640000000  0.5488050000000  0.5481290000000 1.0
C      1  0.4198810000000  0.5413380000000  0.5482270000000 1.0
C      1  0.5043390000000  0.4099860000000  0.5482950000000 1.0
C      1  0.4355020000000  0.5358890000000  0.5718220000000 1.0
C      1  0.5633370000000  0.5380450000000  0.5717460000000 1.0
C      1  0.5012870000000  0.4262590000000  0.5718820000000 1.0
C      1  0.4353880000000  0.4641650000000  0.4282530000000 1.0
C      1  0.5632220000000  0.4619020000000  0.4281800000000 1.0
C      1  0.5012640000000  0.5737400000000  0.4281160000000 1.0
C      1  0.4517610000000  0.4320100000000  0.5623990000000 1.0
C      1  0.4652450000000  0.5758860000000  0.5622630000000 1.0
C      1  0.5831030000000  0.4922710000000  0.5622690000000 1.0
C      1  0.4517450000000  0.5680300000000  0.4376570000000 1.0
C      1  0.4651100000000  0.4241430000000  0.4377780000000 1.0
C      1  0.5830370000000  0.5076610000000  0.4376340000000 1.0
C      1  0.4728800000000  0.5130980000000  0.4506630000000 1.0
C      1  0.5248980000000  0.5168460000000  0.4506290000000 1.0
C      1  0.5021350000000  0.4699240000000  0.4506850000000 1.0
C      1  0.4729270000000  0.4869240000000  0.5493680000000 1.0
C      1  0.5249420000000  0.4831330000000  0.5493420000000 1.0
C      1  0.5022180000000  0.5300750000000  0.5493130000000 1.0
C      1  0.4696320000000  0.5549640000000  0.5172330000000 1.0
C      1  0.5627860000000  0.4988490000000  0.5172290000000 1.0
C      1  0.4676120000000  0.4462330000000  0.5173310000000 1.0
C      1  0.4695670000000  0.4450610000000  0.4828030000000 1.0
C      1  0.5627670000000  0.5010990000000  0.4826980000000 1.0
C      1  0.4676360000000  0.5537940000000  0.4827070000000 1.0
C      1  0.5580530000000  0.5749220000000  0.5084990000000 1.0
C      1  0.5358580000000  0.4122790000000  0.5086580000000 1.0
C      1  0.4061030000000  0.5128220000000  0.5086430000000 1.0
C      1  0.5579810000000  0.4250300000000  0.4914330000000 1.0
C      1  0.5359210000000  0.5876910000000  0.4913010000000 1.0
C      1  0.4060830000000  0.4872560000000  0.4914660000000 1.0
C      1  0.5418490000000  0.5197770000000  0.5230280000000 1.0
C      1  0.4962050000000  0.4539120000000  0.5231140000000 1.0
C      1  0.4619870000000  0.5263730000000  0.5230690000000 1.0
C      1  0.5418050000000  0.4801890000000  0.4769230000000 1.0
C      1  0.4962160000000  0.5460910000000  0.4768910000000 1.0
C      1  0.4619380000000  0.4736580000000  0.4769750000000 1.0
C      1  0.5103400000000  0.5788910000000  0.5290510000000 1.0
C      1  0.5631550000000  0.4516540000000  0.5291340000000 1.0
C      1  0.4265560000000  0.4695330000000  0.5291980000000 1.0
C      1  0.5102410000000  0.4211000000000  0.4709370000000 1.0
C      1  0.5631610000000  0.5482940000000  0.4707920000000 1.0
C      1  0.4265470000000  0.5305280000000  0.4708880000000 1.0
C      1  0.5128110000000  0.4121610000000  0.4440800000000 1.0
C      1  0.4175180000000  0.5327210000000  0.4440270000000 1.0
C      1  0.5695730000000  0.5549670000000  0.4439190000000 1.0
C      1  0.5129490000000  0.5878280000000  0.5559050000000 1.0
C      1  0.4175570000000  0.4673470000000  0.5560690000000 1.0
C      1  0.5695930000000  0.4449750000000  0.5560000000000 1.0
C      1  0.4775140000000  0.4637370000000  0.5908000000000 1.0
C      1  0.4798470000000  0.5377720000000  0.5907320000000 1.0
C      1  0.5427970000000  0.4987350000000  0.5907310000000 1.0
C      1  0.4774390000000  0.5362820000000  0.4092260000000 1.0
C      1  0.4797100000000  0.4622440000000  0.4092910000000 1.0
C      1  0.5426930000000  0.5012300000000  0.4092200000000 1.0
C      1  0.4843950000000  0.4949240000000  0.3752040000000 1.0
C      1  0.5033940000000  0.5158220000000  0.3751750000000 1.0
C      1  0.5119930000000  0.4889190000000  0.3751940000000 1.0
C      1  0.4845440000000  0.5050890000000  0.6248140000000 1.0
C      1  0.5035260000000  0.4841750000000  0.6248210000000 1.0
C      1  0.5121480000000  0.5110710000000  0.6247920000000 1.0
C      1  0.5590930000000  0.5700320000000  0.5375440000000 1.0
C      1  0.5311070000000  0.4138770000000  0.5377000000000 1.0
C      1  0.4098660000000  0.5161920000000  0.5376790000000 1.0
C      1  0.5589920000000  0.4299190000000  0.4623880000000 1.0
C      1  0.5311340000000  0.5860970000000  0.4622640000000 1.0
C      1  0.4098090000000  0.4838830000000  0.4624260000000 1.0
C      1  0.4986980000000  0.5509040000000  0.5254690000000 1.0
C      1  0.5447380000000  0.4757220000000  0.5255100000000 1.0
C      1  0.4566090000000  0.4734420000000  0.5255630000000 1.0
C      1  0.4986270000000  0.4490970000000  0.4745320000000 1.0
C      1  0.5447280000000  0.5242410000000  0.4744380000000 1.0
C      1  0.4566010000000  0.5265940000000  0.4744880000000 1.0
C      1  0.5382270000000  0.5742030000000  0.5576630000000 1.0
C      1  0.5451540000000  0.4298990000000  0.5577880000000 1.0
C      1  0.4167200000000  0.4960520000000  0.5578030000000 1.0
C      1  0.5380990000000  0.4257650000000  0.4422930000000 1.0
C      1  0.5451450000000  0.5700640000000  0.4421600000000 1.0
C      1  0.4166560000000  0.5040160000000  0.4422940000000 1.0
C      1  0.5931790000000  0.4637920000000  0.4956020000000 1.0
C      1  0.4220530000000  0.4374000000000  0.4957250000000 1.0
C      1  0.4847600000000  0.5987960000000  0.4955440000000 1.0
C      1  0.5932140000000  0.5361310000000  0.5042900000000 1.0
C      1  0.4221100000000  0.5626640000000  0.5043660000000 1.0
C      1  0.4846840000000  0.4012170000000  0.5044730000000 1.0
END
