TITL C-89145-4929-3 -22.7434915789518 125000 -905.898111422463 0 0 128 (C1) n - 1
REM
REM in /rds/project/t2_vol4/rds-t2-cs072/BORA/CARBON/from-Arr/AIRSS/Generating-Clusters/GAP-ML-2020/Higher-Symm/SD-CG/HFTN-CG
REM
REM
REM
REM
REM
REM ./C.cell (b20cbc046b6831c77cfcea5457e17084)
REM AIRSS Version 0.9.1 bugfix July 2018 build 013d7b7c2542+ Fri, 06 Jul 2018 19:26:36 +0100
REM compiler GCC version 9.3.0
REM options -cpp -mtune=generic -march=x86-64 -g -O0
REM seed -702958685 1103218465 1366884125 1245294922 -1073833813 1375930292 -1508801376 -1238038369 -1716920382 1958468158 -993325195 357175036 1349402645 -1513824653 -1044452049 -1622710071 1068626106 -1699177332 1761545083 187456572 -1879002955 2006364667 686381302 -244234348 754979008 1914712309 234729084 -540726148 1673672799 1124628437 1140345384 -1815118676 1779107030
REM
CELL 1.54180   50.00000   50.00000   50.00000   90.00000   90.00000   90.00000
LATT -1
SFAC C  
C      1  0.6199880000000  0.4624600000000  0.4937600000000 1.0
C      1  0.6067030000000  0.4611650000000  0.5187650000000 1.0
C      1  0.6105390000000  0.4777640000000  0.5406960000000 1.0
C      1  0.6018340000000  0.5040270000000  0.5429920000000 1.0
C      1  0.6099160000000  0.5274330000000  0.5302880000000 1.0
C      1  0.6028800000000  0.5356340000000  0.5041260000000 1.0
C      1  0.6116200000000  0.5244200000000  0.4801730000000 1.0
C      1  0.6013510000000  0.5033680000000  0.4661300000000 1.0
C      1  0.6039210000000  0.4738300000000  0.4743490000000 1.0
C      1  0.4894360000000  0.4690550000000  0.4294930000000 1.0
C      1  0.4899430000000  0.4296560000000  0.4665080000000 1.0
C      1  0.4897570000000  0.4179420000000  0.5198860000000 1.0
C      1  0.4906910000000  0.4489290000000  0.5653040000000 1.0
C      1  0.4924670000000  0.5033710000000  0.5834090000000 1.0
C      1  0.4904940000000  0.5529020000000  0.5512980000000 1.0
C      1  0.4888120000000  0.5841410000000  0.5058480000000 1.0
C      1  0.4887400000000  0.5683270000000  0.4521660000000 1.0
C      1  0.4889180000000  0.5246180000000  0.4193940000000 1.0
C      1  0.4821070000000  0.5312320000000  0.5303120000000 1.0
C      1  0.4887040000000  0.5327970000000  0.5032630000000 1.0
C      1  0.4730520000000  0.5162070000000  0.4856520000000 1.0
C      1  0.4899500000000  0.5050930000000  0.4665220000000 1.0
C      1  0.4839820000000  0.4794510000000  0.4581040000000 1.0
C      1  0.4908910000000  0.4602030000000  0.4770910000000 1.0
C      1  0.4860400000000  0.4648440000000  0.5068940000000 1.0
C      1  0.4723880000000  0.4867210000000  0.5156310000000 1.0
C      1  0.4883890000000  0.5039450000000  0.5322170000000 1.0
C      1  0.4490670000000  0.5711070000000  0.4815140000000 1.0
C      1  0.4479700000000  0.5432130000000  0.4396020000000 1.0
C      1  0.4496480000000  0.4955770000000  0.4244970000000 1.0
C      1  0.4482010000000  0.4461540000000  0.4456380000000 1.0
C      1  0.4488620000000  0.4262240000000  0.4926470000000 1.0
C      1  0.4489390000000  0.4378560000000  0.5416530000000 1.0
C      1  0.4525310000000  0.4782570000000  0.5716030000000 1.0
C      1  0.4520350000000  0.5305040000000  0.5698640000000 1.0
C      1  0.4485560000000  0.5678420000000  0.5321700000000 1.0
C      1  0.5619420000000  0.5356630000000  0.4756210000000 1.0
C      1  0.5734530000000  0.5115660000000  0.4582410000000 1.0
C      1  0.5614870000000  0.4839470000000  0.4627360000000 1.0
C      1  0.5763870000000  0.4618250000000  0.4796160000000 1.0
C      1  0.5764460000000  0.4568890000000  0.5114970000000 1.0
C      1  0.5618140000000  0.4753020000000  0.5330460000000 1.0
C      1  0.5710560000000  0.5033350000000  0.5443320000000 1.0
C      1  0.5610420000000  0.5289160000000  0.5290630000000 1.0
C      1  0.5733020000000  0.5432120000000  0.5032290000000 1.0
C      1  0.5596900000000  0.4707580000000  0.4355470000000 1.0
C      1  0.5633770000000  0.4365180000000  0.4662640000000 1.0
C      1  0.5632280000000  0.4297110000000  0.5181770000000 1.0
C      1  0.5615500000000  0.4545150000000  0.5566220000000 1.0
C      1  0.5587900000000  0.5048370000000  0.5723340000000 1.0
C      1  0.5596370000000  0.5518770000000  0.5485790000000 1.0
C      1  0.5613370000000  0.5716000000000  0.5064560000000 1.0
C      1  0.5604270000000  0.5598200000000  0.4570950000000 1.0
C      1  0.5617400000000  0.5212510000000  0.4308400000000 1.0
C      1  0.5390570000000  0.5781210000000  0.4636610000000 1.0
C      1  0.5549870000000  0.5484970000000  0.4321920000000 1.0
C      1  0.5386500000000  0.4806270000000  0.4192650000000 1.0
C      1  0.5550470000000  0.4437320000000  0.4407440000000 1.0
C      1  0.5417530000000  0.4160160000000  0.5047410000000 1.0
C      1  0.5560010000000  0.4296650000000  0.5449380000000 1.0
C      1  0.5411430000000  0.4848550000000  0.5843770000000 1.0
C      1  0.5391250000000  0.5499570000000  0.5680050000000 1.0
C      1  0.5541730000000  0.5748640000000  0.5331730000000 1.0
C      1  0.5272320000000  0.5826210000000  0.5363490000000 1.0
C      1  0.5395320000000  0.5836750000000  0.4914220000000 1.0
C      1  0.5278890000000  0.5537650000000  0.4254070000000 1.0
C      1  0.5393260000000  0.5090140000000  0.4169600000000 1.0
C      1  0.5277950000000  0.4379100000000  0.4358840000000 1.0
C      1  0.5418850000000  0.4199170000000  0.4764400000000 1.0
C      1  0.5290480000000  0.4221320000000  0.5490790000000 1.0
C      1  0.5404270000000  0.4586750000000  0.5755310000000 1.0
C      1  0.5399430000000  0.5254880000000  0.5811490000000 1.0
C      1  0.4357880000000  0.5540410000000  0.4631250000000 1.0
C      1  0.4357180000000  0.5177770000000  0.4353750000000 1.0
C      1  0.4391100000000  0.4726580000000  0.4387470000000 1.0
C      1  0.4364450000000  0.4403500000000  0.4711200000000 1.0
C      1  0.4363320000000  0.4363020000000  0.5160310000000 1.0
C      1  0.4378070000000  0.4609510000000  0.5542820000000 1.0
C      1  0.4416990000000  0.5043070000000  0.5670560000000 1.0
C      1  0.4385480000000  0.5463720000000  0.5491150000000 1.0
C      1  0.4366140000000  0.5649660000000  0.5065660000000 1.0
C      1  0.3857300000000  0.5089480000000  0.4628180000000 1.0
C      1  0.3726570000000  0.4851450000000  0.4676390000000 1.0
C      1  0.3866180000000  0.4664440000000  0.4824750000000 1.0
C      1  0.3887560000000  0.4623990000000  0.5104020000000 1.0
C      1  0.3879170000000  0.4794410000000  0.5329950000000 1.0
C      1  0.3740990000000  0.5030390000000  0.5382220000000 1.0
C      1  0.3872480000000  0.5261300000000  0.5311250000000 1.0
C      1  0.3883170000000  0.5393250000000  0.5059710000000 1.0
C      1  0.3876960000000  0.5325080000000  0.4786460000000 1.0
C      1  0.5169860000000  0.5291070000000  0.4154910000000 1.0
C      1  0.5167200000000  0.4617160000000  0.4231460000000 1.0
C      1  0.5182190000000  0.4232700000000  0.4586040000000 1.0
C      1  0.5182810000000  0.4138980000000  0.5235940000000 1.0
C      1  0.5180720000000  0.4414200000000  0.5676440000000 1.0
C      1  0.5203720000000  0.5050160000000  0.5901870000000 1.0
C      1  0.5165500000000  0.5646860000000  0.5564700000000 1.0
C      1  0.5168060000000  0.5888690000000  0.5101010000000 1.0
C      1  0.5166790000000  0.5716460000000  0.4455540000000 1.0
C      1  0.4270210000000  0.5033950000000  0.5439780000000 1.0
C      1  0.4195210000000  0.5291220000000  0.5339990000000 1.0
C      1  0.4195280000000  0.5416910000000  0.5057660000000 1.0
C      1  0.4189740000000  0.5342640000000  0.4763020000000 1.0
C      1  0.4173030000000  0.5095580000000  0.4577270000000 1.0
C      1  0.4254050000000  0.4823210000000  0.4603280000000 1.0
C      1  0.4182230000000  0.4623010000000  0.4797250000000 1.0
C      1  0.4196910000000  0.4596610000000  0.5104370000000 1.0
C      1  0.4190180000000  0.4768640000000  0.5366240000000 1.0
C      1  0.4744570000000  0.4400990000000  0.4406890000000 1.0
C      1  0.4762610000000  0.4182480000000  0.4928120000000 1.0
C      1  0.4763930000000  0.4319430000000  0.5444840000000 1.0
C      1  0.4798430000000  0.4755490000000  0.5766490000000 1.0
C      1  0.4794930000000  0.5303200000000  0.5751760000000 1.0
C      1  0.4755000000000  0.5752550000000  0.5314160000000 1.0
C      1  0.4763520000000  0.5781460000000  0.4785920000000 1.0
C      1  0.4752880000000  0.5474430000000  0.4344820000000 1.0
C      1  0.4766400000000  0.4970630000000  0.4174560000000 1.0
C      1  0.5202340000000  0.4638680000000  0.4829650000000 1.0
C      1  0.5147840000000  0.4622090000000  0.5116910000000 1.0
C      1  0.5319380000000  0.4795470000000  0.5253860000000 1.0
C      1  0.5168330000000  0.5019760000000  0.5357870000000 1.0
C      1  0.5332290000000  0.5202740000000  0.5188050000000 1.0
C      1  0.5171380000000  0.5346670000000  0.5000210000000 1.0
C      1  0.5298980000000  0.5328960000000  0.4757130000000 1.0
C      1  0.5180450000000  0.5093270000000  0.4684310000000 1.0
C      1  0.5347960000000  0.4878200000000  0.4774900000000 1.0
C      1  0.5426140000000  0.4965090000000  0.5037930000000 1.0
C      1  0.4553770000000  0.4995330000000  0.4983700000000 1.0
END
