TITL C-89331-4133-10 73.4009711976696 125000 -310.53600675525 0 0 47 (C1) n - 1
REM
REM in /rds/project/t2_vol4/rds-t2-cs072/BORA/CARBON/from-Arr/AIRSS/Generating-Clusters/GAP-ML-2020/Higher-Symm/SD-CG/HFTN-CG
REM
REM
REM
REM
REM
REM ./C.cell (b20cbc046b6831c77cfcea5457e17084)
REM AIRSS Version 0.9.1 bugfix July 2018 build 013d7b7c2542+ Fri, 06 Jul 2018 19:26:36 +0100
REM compiler GCC version 9.3.0
REM options -cpp -mtune=generic -march=x86-64 -g -O0
REM seed -1284652310 1733022942 -1436078091 1607043727 1681850318 1668420552 1459205485 1065311840 1729726055 817572494 -233550001 1925770083 -550787991 66814650 -1590815620 392650457 -1852118342 345365043 331640054 46386966 1932408832 1210932926 1873297090 1722831267 -927241779 -1228546693 621247106 1236835074 1033934232 1302828087 -508592072 415722600 1426710754
REM
CELL 1.54180   50.00000   50.00000   50.00000   90.00000   90.00000   90.00000
LATT -1
SFAC C  
C      1  0.4555160000000  0.4723910000000  0.4754480000000 1.0
C      1  0.5040350000000  0.5698040000000  0.4886110000000 1.0
C      1  0.4543120000000  0.5355220000000  0.5217970000000 1.0
C      1  0.4636020000000  0.5150570000000  0.4581260000000 1.0
C      1  0.4451050000000  0.5117110000000  0.5345270000000 1.0
C      1  0.4510210000000  0.5435650000000  0.4946810000000 1.0
C      1  0.5743260000000  0.5089940000000  0.4950110000000 1.0
C      1  0.4638220000000  0.5414340000000  0.4708390000000 1.0
C      1  0.4826220000000  0.5406460000000  0.5239330000000 1.0
C      1  0.5324950000000  0.5648190000000  0.4913170000000 1.0
C      1  0.4787080000000  0.4586030000000  0.4639850000000 1.0
C      1  0.4940290000000  0.5495260000000  0.4713330000000 1.0
C      1  0.4464690000000  0.4935050000000  0.4601250000000 1.0
C      1  0.5198710000000  0.4930140000000  0.5504080000000 1.0
C      1  0.5329670000000  0.4684740000000  0.5416490000000 1.0
C      1  0.5113990000000  0.5166170000000  0.4415340000000 1.0
C      1  0.4819220000000  0.4328560000000  0.4735120000000 1.0
C      1  0.5295450000000  0.5175980000000  0.5445290000000 1.0
C      1  0.5008970000000  0.4775900000000  0.4657340000000 1.0
C      1  0.4882540000000  0.5167620000000  0.5092430000000 1.0
C      1  0.4918800000000  0.5063470000000  0.4625220000000 1.0
C      1  0.5607170000000  0.5203950000000  0.4724040000000 1.0
C      1  0.5587790000000  0.4714880000000  0.5301640000000 1.0
C      1  0.5128850000000  0.4491490000000  0.5331150000000 1.0
C      1  0.5148790000000  0.4479750000000  0.5044120000000 1.0
C      1  0.5174980000000  0.5418720000000  0.4524010000000 1.0
C      1  0.4982650000000  0.5626880000000  0.5168530000000 1.0
C      1  0.5265180000000  0.5211220000000  0.4959030000000 1.0
C      1  0.4673850000000  0.4463720000000  0.5174080000000 1.0
C      1  0.5609710000000  0.4885300000000  0.5089540000000 1.0
C      1  0.5027610000000  0.4264160000000  0.4914990000000 1.0
C      1  0.5000150000000  0.5234270000000  0.4852800000000 1.0
C      1  0.5446540000000  0.4962460000000  0.4646500000000 1.0
C      1  0.5104650000000  0.4755330000000  0.4944520000000 1.0
C      1  0.4917640000000  0.4897280000000  0.5444180000000 1.0
C      1  0.5331030000000  0.5336150000000  0.5236770000000 1.0
C      1  0.5340580000000  0.4929450000000  0.4932920000000 1.0
C      1  0.4488570000000  0.4869210000000  0.5501810000000 1.0
C      1  0.4732290000000  0.4726140000000  0.5561150000000 1.0
C      1  0.4838480000000  0.4504580000000  0.5409310000000 1.0
C      1  0.4740390000000  0.4254050000000  0.4996460000000 1.0
C      1  0.5242070000000  0.4918140000000  0.4469310000000 1.0
C      1  0.5392920000000  0.5410950000000  0.4742620000000 1.0
C      1  0.5272970000000  0.5610010000000  0.5198330000000 1.0
C      1  0.4618300000000  0.4729660000000  0.5063750000000 1.0
C      1  0.4417290000000  0.4864060000000  0.5240580000000 1.0
C      1  0.4881600000000  0.4889810000000  0.5139220000000 1.0
END
