TITL C-89351-4089-6 -564.253671731981 125000 -993.214805191769 0 0 146 (C2h) n - 1
REM
REM in /rds/project/t2_vol4/rds-t2-cs072/BORA/CARBON/from-Arr/AIRSS/Generating-Clusters/GAP-ML-2020/Higher-Symm/SD-CG/HFTN-CG
REM
REM
REM
REM
REM
REM ./C.cell (b20cbc046b6831c77cfcea5457e17084)
REM AIRSS Version 0.9.1 bugfix July 2018 build 013d7b7c2542+ Fri, 06 Jul 2018 19:26:36 +0100
REM compiler GCC version 9.3.0
REM options -cpp -mtune=generic -march=x86-64 -g -O0
REM seed 16371203 -474460629 -286027463 626896850 1697089565 1899365220 -1637359184 151555209 -802490372 -1411141311 1825264679 1908346284 -286080378 -550945656 -1274970426 902272232 531281744 -1909592955 -1269376351 166477717 -1173468871 2029097042 -1821031873 -1744545794 249920539 1695840219 -1277593705 -925193494 -1950669195 190726728 2100151540 -1050811772 -1153070496
REM
CELL 1.54180   50.00000   50.00000   50.00000   90.00000   90.00000   90.00000
LATT -1
SFAC C  
C      1  0.5309690000000  0.4184850000000  0.4465350000000 1.0
C      1  0.5302310000000  0.5817220000000  0.5535740000000 1.0
C      1  0.4693540000000  0.4182780000000  0.4464260000000 1.0
C      1  0.4686160000000  0.5815150000000  0.5534650000000 1.0
C      1  0.5576530000000  0.4354260000000  0.5169110000000 1.0
C      1  0.5572790000000  0.5649610000000  0.4832950000000 1.0
C      1  0.4423070000000  0.4350390000000  0.5167050000000 1.0
C      1  0.4419320000000  0.5645740000000  0.4830890000000 1.0
C      1  0.4685690000000  0.5083520000000  0.5447520000000 1.0
C      1  0.4687850000000  0.4914390000000  0.4551370000000 1.0
C      1  0.5308000000000  0.5085610000000  0.5448630000000 1.0
C      1  0.5310170000000  0.4916480000000  0.4552480000000 1.0
C      1  0.5506900000000  0.4904790000000  0.6078660000000 1.0
C      1  0.5510080000000  0.5098640000000  0.3923150000000 1.0
C      1  0.4485770000000  0.4901360000000  0.6076850000000 1.0
C      1  0.4488960000000  0.5095210000000  0.3921340000000 1.0
C      1  0.4412710000000  0.5828880000000  0.5536790000000 1.0
C      1  0.4420200000000  0.4167220000000  0.4461140000000 1.0
C      1  0.5575660000000  0.5832780000000  0.5538860000000 1.0
C      1  0.5583150000000  0.4171120000000  0.4463210000000 1.0
C      1  0.5240760000000  0.5089090000000  0.4010900000000 1.0
C      1  0.5237830000000  0.4912530000000  0.5989960000000 1.0
C      1  0.4758020000000  0.5087470000000  0.4010040000000 1.0
C      1  0.4755090000000  0.4910910000000  0.5989100000000 1.0
C      1  0.5151850000000  0.5385140000000  0.4734820000000 1.0
C      1  0.5153490000000  0.4615900000000  0.5265730000000 1.0
C      1  0.4842370000000  0.5384100000000  0.4734270000000 1.0
C      1  0.4844000000000  0.4614860000000  0.5265180000000 1.0
C      1  0.4731310000000  0.5288890000000  0.5005290000000 1.0
C      1  0.4733280000000  0.4709320000000  0.4993770000000 1.0
C      1  0.5262580000000  0.5290680000000  0.5006230000000 1.0
C      1  0.5264540000000  0.4711100000000  0.4994710000000 1.0
C      1  0.5275930000000  0.5714430000000  0.4777760000000 1.0
C      1  0.5279920000000  0.4287450000000  0.5223240000000 1.0
C      1  0.4715940000000  0.5712550000000  0.4776760000000 1.0
C      1  0.4719930000000  0.4285570000000  0.5222240000000 1.0
C      1  0.4287500000000  0.5444640000000  0.4678660000000 1.0
C      1  0.4289360000000  0.4550600000000  0.5318820000000 1.0
C      1  0.5706490000000  0.5449400000000  0.4681180000000 1.0
C      1  0.5708350000000  0.4555360000000  0.5321340000000 1.0
C      1  0.4403980000000  0.5340670000000  0.4431230000000 1.0
C      1  0.4404250000000  0.4655350000000  0.5566660000000 1.0
C      1  0.5591600000000  0.5344660000000  0.4433340000000 1.0
C      1  0.5591880000000  0.4659330000000  0.5568770000000 1.0
C      1  0.4446740000000  0.4497560000000  0.5826990000000 1.0
C      1  0.4446320000000  0.5498740000000  0.4171040000000 1.0
C      1  0.5549530000000  0.4501260000000  0.5828960000000 1.0
C      1  0.5549120000000  0.5502440000000  0.4173010000000 1.0
C      1  0.5290220000000  0.4781260000000  0.5507970000000 1.0
C      1  0.5290550000000  0.5220700000000  0.4493070000000 1.0
C      1  0.4705300000000  0.4779300000000  0.5506930000000 1.0
C      1  0.4705640000000  0.5218740000000  0.4492030000000 1.0
C      1  0.4486880000000  0.5132000000000  0.4967400000000 1.0
C      1  0.4487670000000  0.4864580000000  0.5030780000000 1.0
C      1  0.5508190000000  0.5135420000000  0.4969220000000 1.0
C      1  0.5508970000000  0.4868000000000  0.5032590000000 1.0
C      1  0.4854560000000  0.4865960000000  0.4788650000000 1.0
C      1  0.4852910000000  0.5133070000000  0.5210830000000 1.0
C      1  0.5142940000000  0.4866930000000  0.4789170000000 1.0
C      1  0.5141290000000  0.5134040000000  0.5211350000000 1.0
C      1  0.4703570000000  0.4056580000000  0.4752540000000 1.0
C      1  0.4696370000000  0.5941420000000  0.5246400000000 1.0
C      1  0.5299490000000  0.4058580000000  0.4753600000000 1.0
C      1  0.5292290000000  0.5943420000000  0.5247460000000 1.0
C      1  0.4077090000000  0.5253320000000  0.5108150000000 1.0
C      1  0.4079200000000  0.4740510000000  0.4888570000000 1.0
C      1  0.5916650000000  0.5259490000000  0.5111430000000 1.0
C      1  0.5918770000000  0.4746680000000  0.4891850000000 1.0
C      1  0.5148350000000  0.5786720000000  0.5049380000000 1.0
C      1  0.5153800000000  0.4214310000000  0.4951170000000 1.0
C      1  0.4842050000000  0.5785690000000  0.5048830000000 1.0
C      1  0.4847500000000  0.4213280000000  0.4950620000000 1.0
C      1  0.4237910000000  0.4558720000000  0.4736530000000 1.0
C      1  0.4234040000000  0.5436170000000  0.5260750000000 1.0
C      1  0.5761820000000  0.4563830000000  0.4739250000000 1.0
C      1  0.5757940000000  0.5441280000000  0.5263470000000 1.0
C      1  0.5570410000000  0.5890150000000  0.5254110000000 1.0
C      1  0.5577270000000  0.4113710000000  0.4747940000000 1.0
C      1  0.4418580000000  0.5886290000000  0.5252060000000 1.0
C      1  0.4425440000000  0.4109850000000  0.4745890000000 1.0
C      1  0.4766330000000  0.4780230000000  0.4074550000000 1.0
C      1  0.4761560000000  0.5218200000000  0.5924620000000 1.0
C      1  0.5234290000000  0.4781800000000  0.4075380000000 1.0
C      1  0.5229530000000  0.5219770000000  0.5925450000000 1.0
C      1  0.5274860000000  0.4441200000000  0.5849330000000 1.0
C      1  0.5274130000000  0.5560660000000  0.4151650000000 1.0
C      1  0.4721730000000  0.4439340000000  0.5848350000000 1.0
C      1  0.4720990000000  0.5558800000000  0.4150670000000 1.0
C      1  0.4196700000000  0.5216550000000  0.4843990000000 1.0
C      1  0.4197620000000  0.4778080000000  0.5153160000000 1.0
C      1  0.5798230000000  0.5221920000000  0.4846840000000 1.0
C      1  0.5799150000000  0.4783450000000  0.5156010000000 1.0
C      1  0.5142200000000  0.5774310000000  0.4274390000000 1.0
C      1  0.5144810000000  0.4226660000000  0.5726130000000 1.0
C      1  0.4851050000000  0.5773340000000  0.4273870000000 1.0
C      1  0.4853650000000  0.4225690000000  0.5725610000000 1.0
C      1  0.5649830000000  0.5202710000000  0.5447920000000 1.0
C      1  0.5652770000000  0.4801680000000  0.4554410000000 1.0
C      1  0.4343090000000  0.5198320000000  0.5445590000000 1.0
C      1  0.4346020000000  0.4797290000000  0.4552080000000 1.0
C      1  0.5154980000000  0.4438190000000  0.4503140000000 1.0
C      1  0.5149430000000  0.5562840000000  0.5497410000000 1.0
C      1  0.4846420000000  0.4437160000000  0.4502590000000 1.0
C      1  0.4840880000000  0.5561810000000  0.5496860000000 1.0
C      1  0.5706220000000  0.4873390000000  0.4269770000000 1.0
C      1  0.5702750000000  0.5131350000000  0.5732750000000 1.0
C      1  0.4293100000000  0.4868650000000  0.4267250000000 1.0
C      1  0.4289630000000  0.5126610000000  0.5730230000000 1.0
C      1  0.5676290000000  0.4703990000000  0.5982570000000 1.0
C      1  0.5677780000000  0.5300560000000  0.4019840000000 1.0
C      1  0.4318080000000  0.4699440000000  0.5980160000000 1.0
C      1  0.4319570000000  0.5296010000000  0.4017430000000 1.0
C      1  0.4231280000000  0.5153010000000  0.4257880000000 1.0
C      1  0.4229690000000  0.4841840000000  0.5739380000000 1.0
C      1  0.5766170000000  0.5158160000000  0.4260620000000 1.0
C      1  0.5764570000000  0.4846990000000  0.5742120000000 1.0
C      1  0.4847660000000  0.5282380000000  0.4214370000000 1.0
C      1  0.4846770000000  0.4716610000000  0.5785100000000 1.0
C      1  0.5149090000000  0.5283390000000  0.4214900000000 1.0
C      1  0.5148190000000  0.4717620000000  0.5785630000000 1.0
C      1  0.5157680000000  0.4714620000000  0.4364410000000 1.0
C      1  0.5153500000000  0.5286440000000  0.5636160000000 1.0
C      1  0.4842350000000  0.4713560000000  0.4363840000000 1.0
C      1  0.4838170000000  0.5285380000000  0.5635590000000 1.0
C      1  0.5531840000000  0.4831660000000  0.4042420000000 1.0
C      1  0.5527280000000  0.5171910000000  0.5959470000000 1.0
C      1  0.4468570000000  0.4828090000000  0.4040530000000 1.0
C      1  0.4464020000000  0.5168340000000  0.5957580000000 1.0
C      1  0.5147050000000  0.4138950000000  0.5444810000000 1.0
C      1  0.5142860000000  0.5862040000000  0.4555720000000 1.0
C      1  0.4853000000000  0.4137960000000  0.5444280000000 1.0
C      1  0.4848800000000  0.5861050000000  0.4555190000000 1.0
C      1  0.4837730000000  0.4480530000000  0.4803980000000 1.0
C      1  0.4833550000000  0.5518380000000  0.5195440000000 1.0
C      1  0.5162310000000  0.4481620000000  0.4804560000000 1.0
C      1  0.5158130000000  0.5519470000000  0.5196020000000 1.0
C      1  0.4334330000000  0.5661690000000  0.5101300000000 1.0
C      1  0.4339150000000  0.4333880000000  0.4896350000000 1.0
C      1  0.5656700000000  0.5666120000000  0.5103650000000 1.0
C      1  0.5661520000000  0.4338310000000  0.4898700000000 1.0
C      1  0.5863440000000  0.4968520000000  0.4724470000000 1.0
C      1  0.5862220000000  0.5037280000000  0.5278610000000 1.0
C      1  0.4133630000000  0.4962720000000  0.4721390000000 1.0
C      1  0.4132410000000  0.5031480000000  0.5275530000000 1.0
C      1  0.5000910000000  0.4647840000000  0.3987150000000 1.0
C      1  0.4994940000000  0.5352160000000  0.6012860000000 1.0
END
