TITL C-89164-4153-6 -0.0948106421001862 125000 -354.3625604351 0 0 52 (C1) n - 1
REM
REM in /rds/project/t2_vol4/rds-t2-cs072/BORA/CARBON/from-Arr/AIRSS/Generating-Clusters/GAP-ML-2020/Higher-Symm/SD-CG/HFTN-CG
REM
REM
REM
REM
REM
REM ./C.cell (b20cbc046b6831c77cfcea5457e17084)
REM AIRSS Version 0.9.1 bugfix July 2018 build 013d7b7c2542+ Fri, 06 Jul 2018 19:26:36 +0100
REM compiler GCC version 9.3.0
REM options -cpp -mtune=generic -march=x86-64 -g -O0
REM seed -430067769 -254454035 663457695 -1544004401 -78948486 1620664446 -292915679 1909629230 -697277682 1630826243 1509335282 -1603342766 2070750065 -1272452512 -997438455 -198619090 -1029221306 -790739059 -2089802125 -1609328809 -674160040 -937758795 633286389 -1306634576 875612206 -2076336287 651964408 -1295467011 -978025725 -1227580271 -115493073 323394700 -78871531
REM
CELL 1.54180   50.00000   50.00000   50.00000   90.00000   90.00000   90.00000
LATT -1
SFAC C  
C      1  0.5439310000000  0.4999830000000  0.4953380000000 1.0
C      1  0.4493530000000  0.4976770000000  0.5003790000000 1.0
C      1  0.5491990000000  0.4547810000000  0.4719270000000 1.0
C      1  0.4472620000000  0.4540990000000  0.5198880000000 1.0
C      1  0.4465940000000  0.5007880000000  0.5285960000000 1.0
C      1  0.5462770000000  0.5024240000000  0.4677440000000 1.0
C      1  0.4423660000000  0.4927830000000  0.4556600000000 1.0
C      1  0.5632990000000  0.4928820000000  0.5366260000000 1.0
C      1  0.5130380000000  0.5480300000000  0.5440320000000 1.0
C      1  0.4824960000000  0.5528480000000  0.4618780000000 1.0
C      1  0.5115330000000  0.4760160000000  0.5509300000000 1.0
C      1  0.4841390000000  0.4732480000000  0.4708010000000 1.0
C      1  0.5086390000000  0.5160090000000  0.4428350000000 1.0
C      1  0.4801650000000  0.5135930000000  0.5596260000000 1.0
C      1  0.5279260000000  0.4699300000000  0.4388630000000 1.0
C      1  0.4649250000000  0.4673070000000  0.5562890000000 1.0
C      1  0.4348900000000  0.4577760000000  0.4960930000000 1.0
C      1  0.5449580000000  0.4582470000000  0.5002650000000 1.0
C      1  0.4530520000000  0.5524530000000  0.5006950000000 1.0
C      1  0.5354460000000  0.5545130000000  0.5036190000000 1.0
C      1  0.5062780000000  0.4879090000000  0.4357150000000 1.0
C      1  0.4851610000000  0.4850880000000  0.5630900000000 1.0
C      1  0.4347550000000  0.4813670000000  0.4817920000000 1.0
C      1  0.5581180000000  0.4814280000000  0.5113770000000 1.0
C      1  0.4839060000000  0.5284980000000  0.4466300000000 1.0
C      1  0.5058550000000  0.5238800000000  0.5557980000000 1.0
C      1  0.5399470000000  0.5433120000000  0.5302100000000 1.0
C      1  0.4582430000000  0.5453580000000  0.4757540000000 1.0
C      1  0.4422600000000  0.4759760000000  0.5416250000000 1.0
C      1  0.5518300000000  0.4781890000000  0.4536520000000 1.0
C      1  0.5315140000000  0.5248920000000  0.4581530000000 1.0
C      1  0.4608730000000  0.5228370000000  0.5403990000000 1.0
C      1  0.4542780000000  0.4794110000000  0.4346070000000 1.0
C      1  0.5614030000000  0.4752800000000  0.5595340000000 1.0
C      1  0.4663680000000  0.5466640000000  0.5246610000000 1.0
C      1  0.5307580000000  0.5482280000000  0.4741860000000 1.0
C      1  0.5046130000000  0.4549280000000  0.4785590000000 1.0
C      1  0.5011530000000  0.4552090000000  0.5293860000000 1.0
C      1  0.4612950000000  0.5162160000000  0.4628100000000 1.0
C      1  0.5488720000000  0.5175420000000  0.5401470000000 1.0
C      1  0.5374860000000  0.4686880000000  0.5657990000000 1.0
C      1  0.4806420000000  0.4762330000000  0.4414170000000 1.0
C      1  0.4935900000000  0.5587340000000  0.5266350000000 1.0
C      1  0.5046080000000  0.5622230000000  0.4753930000000 1.0
C      1  0.5209080000000  0.5041010000000  0.5401700000000 1.0
C      1  0.4755440000000  0.4995160000000  0.4857970000000 1.0
C      1  0.4732380000000  0.4492990000000  0.5338630000000 1.0
C      1  0.5246580000000  0.4482500000000  0.4585140000000 1.0
C      1  0.5157140000000  0.4523030000000  0.5052720000000 1.0
C      1  0.4961990000000  0.5159590000000  0.4977000000000 1.0
C      1  0.5080160000000  0.5661050000000  0.5036830000000 1.0
C      1  0.5184270000000  0.5063830000000  0.5091860000000 1.0
END
