TITL C-89154-4149-8 -0.0527203385844017 125000 -881.012045671332 0 0 122 (C1) n - 1
REM
REM in /rds/project/t2_vol4/rds-t2-cs072/BORA/CARBON/from-Arr/AIRSS/Generating-Clusters/GAP-ML-2020/Higher-Symm/SD-CG/HFTN-CG
REM
REM
REM
REM
REM
REM ./C.cell (b20cbc046b6831c77cfcea5457e17084)
REM AIRSS Version 0.9.1 bugfix July 2018 build 013d7b7c2542+ Fri, 06 Jul 2018 19:26:36 +0100
REM compiler GCC version 9.3.0
REM options -cpp -mtune=generic -march=x86-64 -g -O0
REM seed -745970999 -1799496765 654490965 -140256608 537349669 -1606430274 2071078075 -868295074 -1929584292 -38939555 -1581595910 817904144 -1293794915 81713426 771815846 1120193498 -887529615 -1457791827 -813542195 2124489779 -66534480 312353690 -579247687 -635854735 -1488770629 1951913024 -468172467 235623877 451489719 1450811499 1586747013 333461661 -2014949206
REM
CELL 1.54180   50.00000   50.00000   50.00000   90.00000   90.00000   90.00000
LATT -1
SFAC C  
C      1  0.4377830000000  0.5118190000000  0.4279720000000 1.0
C      1  0.4710170000000  0.5563690000000  0.4293270000000 1.0
C      1  0.5263370000000  0.5599490000000  0.4283390000000 1.0
C      1  0.5631860000000  0.5177710000000  0.4287400000000 1.0
C      1  0.5521130000000  0.4632610000000  0.4298310000000 1.0
C      1  0.5036380000000  0.4365070000000  0.4286120000000 1.0
C      1  0.4521730000000  0.4579900000000  0.4280800000000 1.0
C      1  0.5334630000000  0.4937920000000  0.5951390000000 1.0
C      1  0.5155230000000  0.4701500000000  0.5912320000000 1.0
C      1  0.4855860000000  0.4677770000000  0.5949060000000 1.0
C      1  0.4679770000000  0.4908600000000  0.5888840000000 1.0
C      1  0.4745380000000  0.5215130000000  0.5889180000000 1.0
C      1  0.4984380000000  0.5368730000000  0.5993360000000 1.0
C      1  0.5246150000000  0.5230850000000  0.5910930000000 1.0
C      1  0.4310570000000  0.5509950000000  0.5148290000000 1.0
C      1  0.4969380000000  0.5848550000000  0.5159900000000 1.0
C      1  0.5643010000000  0.5570440000000  0.5158110000000 1.0
C      1  0.5843760000000  0.4853830000000  0.5166600000000 1.0
C      1  0.5410160000000  0.4248390000000  0.5164650000000 1.0
C      1  0.4660660000000  0.4215450000000  0.5156750000000 1.0
C      1  0.4182710000000  0.4772490000000  0.5150040000000 1.0
C      1  0.5218250000000  0.4758040000000  0.5103350000000 1.0
C      1  0.4979700000000  0.4681520000000  0.5208420000000 1.0
C      1  0.4773480000000  0.4804660000000  0.5076480000000 1.0
C      1  0.4714870000000  0.5048260000000  0.5188500000000 1.0
C      1  0.4799910000000  0.5255610000000  0.5043610000000 1.0
C      1  0.5064950000000  0.5339870000000  0.4997410000000 1.0
C      1  0.5283670000000  0.5181680000000  0.5018230000000 1.0
C      1  0.4198420000000  0.5303070000000  0.4969310000000 1.0
C      1  0.4732840000000  0.5826200000000  0.4979800000000 1.0
C      1  0.5475700000000  0.5730550000000  0.4977860000000 1.0
C      1  0.5864680000000  0.5088410000000  0.4986800000000 1.0
C      1  0.5611720000000  0.4376430000000  0.4987530000000 1.0
C      1  0.4890380000000  0.4151970000000  0.4980780000000 1.0
C      1  0.4256570000000  0.4549130000000  0.4970770000000 1.0
C      1  0.4959580000000  0.4665650000000  0.5492840000000 1.0
C      1  0.4715420000000  0.4821090000000  0.5591640000000 1.0
C      1  0.4684060000000  0.5082190000000  0.5464120000000 1.0
C      1  0.4865460000000  0.5273870000000  0.5596260000000 1.0
C      1  0.5160690000000  0.5266500000000  0.5593180000000 1.0
C      1  0.5301920000000  0.5032390000000  0.5494940000000 1.0
C      1  0.5211530000000  0.4764390000000  0.5611030000000 1.0
C      1  0.5547430000000  0.5530760000000  0.5423550000000 1.0
C      1  0.5782780000000  0.4870880000000  0.5443920000000 1.0
C      1  0.5383190000000  0.4299480000000  0.5443410000000 1.0
C      1  0.4681550000000  0.4259260000000  0.5436820000000 1.0
C      1  0.4231240000000  0.4778000000000  0.5429950000000 1.0
C      1  0.4354830000000  0.5468680000000  0.5423190000000 1.0
C      1  0.4990600000000  0.5739840000000  0.5429640000000 1.0
C      1  0.4999180000000  0.5332740000000  0.4005530000000 1.0
C      1  0.5263890000000  0.5225700000000  0.4000070000000 1.0
C      1  0.5334070000000  0.4948800000000  0.4005810000000 1.0
C      1  0.5163910000000  0.4718770000000  0.4006230000000 1.0
C      1  0.4877720000000  0.4699850000000  0.3997680000000 1.0
C      1  0.4688570000000  0.4913850000000  0.3995840000000 1.0
C      1  0.4750590000000  0.5193330000000  0.4009050000000 1.0
C      1  0.4446570000000  0.4648280000000  0.5598930000000 1.0
C      1  0.4401600000000  0.5203790000000  0.5571930000000 1.0
C      1  0.4800160000000  0.5579960000000  0.5594820000000 1.0
C      1  0.5263750000000  0.5539790000000  0.5494990000000 1.0
C      1  0.5618180000000  0.5082230000000  0.5593980000000 1.0
C      1  0.5448950000000  0.4549490000000  0.5603780000000 1.0
C      1  0.4924800000000  0.4367610000000  0.5592780000000 1.0
C      1  0.4768910000000  0.4775080000000  0.4807170000000 1.0
C      1  0.4717360000000  0.5000150000000  0.4638440000000 1.0
C      1  0.4737200000000  0.5245400000000  0.4762240000000 1.0
C      1  0.5005990000000  0.5357270000000  0.4704410000000 1.0
C      1  0.5319240000000  0.5039750000000  0.4770430000000 1.0
C      1  0.5238830000000  0.4772660000000  0.4826200000000 1.0
C      1  0.5016500000000  0.4720660000000  0.4673800000000 1.0
C      1  0.5264600000000  0.4528290000000  0.4190090000000 1.0
C      1  0.4790970000000  0.4498310000000  0.4178470000000 1.0
C      1  0.4475040000000  0.4855850000000  0.4172740000000 1.0
C      1  0.4574830000000  0.5321620000000  0.4190610000000 1.0
C      1  0.4988120000000  0.5548710000000  0.4188680000000 1.0
C      1  0.5429940000000  0.5372780000000  0.4178580000000 1.0
C      1  0.5545770000000  0.4910580000000  0.4191510000000 1.0
C      1  0.4495660000000  0.5350840000000  0.5817050000000 1.0
C      1  0.4973290000000  0.5616750000000  0.5852400000000 1.0
C      1  0.5476720000000  0.5404350000000  0.5880660000000 1.0
C      1  0.5595080000000  0.4907080000000  0.5838320000000 1.0
C      1  0.5297300000000  0.4446850000000  0.5849100000000 1.0
C      1  0.4761950000000  0.4431120000000  0.5836790000000 1.0
C      1  0.4392290000000  0.4831510000000  0.5837290000000 1.0
C      1  0.5651340000000  0.4537940000000  0.4537650000000 1.0
C      1  0.5041180000000  0.4213860000000  0.4533890000000 1.0
C      1  0.4401510000000  0.4473680000000  0.4520240000000 1.0
C      1  0.4224900000000  0.5146630000000  0.4523170000000 1.0
C      1  0.4628800000000  0.5713360000000  0.4525510000000 1.0
C      1  0.5318110000000  0.5736550000000  0.4530160000000 1.0
C      1  0.5776780000000  0.5216480000000  0.4534340000000 1.0
C      1  0.5689570000000  0.4694830000000  0.5652510000000 1.0
C      1  0.5185720000000  0.4260150000000  0.5653760000000 1.0
C      1  0.4533220000000  0.4382140000000  0.5650200000000 1.0
C      1  0.4233780000000  0.4982190000000  0.5636980000000 1.0
C      1  0.4515780000000  0.5578530000000  0.5633140000000 1.0
C      1  0.5162570000000  0.5740100000000  0.5677480000000 1.0
C      1  0.5630230000000  0.5369460000000  0.5646880000000 1.0
C      1  0.4811290000000  0.4184690000000  0.4709730000000 1.0
C      1  0.4235640000000  0.4636710000000  0.4699330000000 1.0
C      1  0.4246530000000  0.5377710000000  0.4699440000000 1.0
C      1  0.4822110000000  0.5836040000000  0.4707840000000 1.0
C      1  0.5536490000000  0.5662020000000  0.4707850000000 1.0
C      1  0.5857240000000  0.4997930000000  0.4716020000000 1.0
C      1  0.5533770000000  0.4334500000000  0.4715040000000 1.0
C      1  0.5115110000000  0.5852990000000  0.4707100000000 1.0
C      1  0.5734330000000  0.5444790000000  0.4710090000000 1.0
C      1  0.5804590000000  0.4710470000000  0.4716500000000 1.0
C      1  0.5270540000000  0.4206480000000  0.4714120000000 1.0
C      1  0.4538160000000  0.4285990000000  0.4702020000000 1.0
C      1  0.4173760000000  0.4921840000000  0.4700570000000 1.0
C      1  0.4412260000000  0.5623280000000  0.4698870000000 1.0
C      1  0.4464290000000  0.5695260000000  0.4970950000000 1.0
C      1  0.5204880000000  0.5852850000000  0.4977450000000 1.0
C      1  0.5790990000000  0.5377800000000  0.4982260000000 1.0
C      1  0.5782350000000  0.4623920000000  0.4986810000000 1.0
C      1  0.5189140000000  0.4166930000000  0.4983010000000 1.0
C      1  0.4452240000000  0.4321540000000  0.4971940000000 1.0
C      1  0.4150460000000  0.5007490000000  0.4970310000000 1.0
C      1  0.4975080000000  0.4956090000000  0.4491690000000 1.0
C      1  0.5153280000000  0.5152860000000  0.4570410000000 1.0
C      1  0.5279740000000  0.5000950000000  0.5218860000000 1.0
END
