TITL C-89168-4436-3 -5.15260755829268 125000 -381.922554532449 0 0 58 (C1) n - 1
REM
REM in /rds/project/t2_vol4/rds-t2-cs072/BORA/CARBON/from-Arr/AIRSS/Generating-Clusters/GAP-ML-2020/Higher-Symm/SD-CG/HFTN-CG
REM
REM
REM
REM
REM
REM ./C.cell (b20cbc046b6831c77cfcea5457e17084)
REM AIRSS Version 0.9.1 bugfix July 2018 build 013d7b7c2542+ Fri, 06 Jul 2018 19:26:36 +0100
REM compiler GCC version 9.3.0
REM options -cpp -mtune=generic -march=x86-64 -g -O0
REM seed -1309068452 -2130815246 313669700 -336617793 -1827552071 -97701998 2008457159 -1851510006 207159426 -218088187 440105441 -1996357487 111056090 1039712170 -397772248 1336669374 140938332 -1412164722 1002212946 1575010410 -670576707 -1535296193 1978904294 715669596 -474469690 -1003126136 1387845375 732167255 1065183939 2112142662 765890595 -861291336 931895072
REM
CELL 1.54180   50.00000   50.00000   50.00000   90.00000   90.00000   90.00000
LATT -1
SFAC C  
C      1  0.4806140000000  0.5060980000000  0.4979930000000 1.0
C      1  0.5204060000000  0.5270790000000  0.4922200000000 1.0
C      1  0.5132650000000  0.4799130000000  0.5015300000000 1.0
C      1  0.4506580000000  0.5059840000000  0.4891370000000 1.0
C      1  0.5458580000000  0.5380570000000  0.4830310000000 1.0
C      1  0.5236300000000  0.4513680000000  0.4995660000000 1.0
C      1  0.4287300000000  0.4975910000000  0.5412070000000 1.0
C      1  0.5386080000000  0.5600440000000  0.5421970000000 1.0
C      1  0.5230620000000  0.4523620000000  0.5484330000000 1.0
C      1  0.5446410000000  0.5233120000000  0.4598700000000 1.0
C      1  0.5131700000000  0.4491700000000  0.4709250000000 1.0
C      1  0.4558940000000  0.5155810000000  0.4612730000000 1.0
C      1  0.5758360000000  0.5081840000000  0.5049450000000 1.0
C      1  0.4773560000000  0.4365380000000  0.5115990000000 1.0
C      1  0.4577710000000  0.5464440000000  0.5076610000000 1.0
C      1  0.4220530000000  0.5189210000000  0.5273490000000 1.0
C      1  0.5514670000000  0.5432750000000  0.5271340000000 1.0
C      1  0.5116360000000  0.4294130000000  0.5442710000000 1.0
C      1  0.5552820000000  0.4907330000000  0.4970720000000 1.0
C      1  0.4704740000000  0.4589190000000  0.4958360000000 1.0
C      1  0.4787850000000  0.5526640000000  0.4906140000000 1.0
C      1  0.5141870000000  0.5496240000000  0.5327400000000 1.0
C      1  0.5397010000000  0.4704850000000  0.5375240000000 1.0
C      1  0.4501310000000  0.4837900000000  0.5312340000000 1.0
C      1  0.5475390000000  0.4643780000000  0.5103420000000 1.0
C      1  0.4472150000000  0.4777540000000  0.5006570000000 1.0
C      1  0.5044150000000  0.5482160000000  0.5051470000000 1.0
C      1  0.4955920000000  0.5297650000000  0.5410290000000 1.0
C      1  0.5264350000000  0.4955650000000  0.5360800000000 1.0
C      1  0.4778840000000  0.4833420000000  0.5367100000000 1.0
C      1  0.4803420000000  0.4785410000000  0.4529540000000 1.0
C      1  0.4997100000000  0.5428980000000  0.4450600000000 1.0
C      1  0.5294610000000  0.4794320000000  0.4542680000000 1.0
C      1  0.5639400000000  0.5341450000000  0.5046850000000 1.0
C      1  0.5040360000000  0.4357520000000  0.5180340000000 1.0
C      1  0.4364840000000  0.5275910000000  0.5056270000000 1.0
C      1  0.5255410000000  0.5339380000000  0.4415160000000 1.0
C      1  0.5298990000000  0.4523440000000  0.4495920000000 1.0
C      1  0.4588960000000  0.4938550000000  0.4460710000000 1.0
C      1  0.4804860000000  0.5362980000000  0.4655070000000 1.0
C      1  0.5479740000000  0.4957230000000  0.4674990000000 1.0
C      1  0.4845100000000  0.4569200000000  0.4699000000000 1.0
C      1  0.4869190000000  0.4804860000000  0.5097130000000 1.0
C      1  0.4795950000000  0.5286310000000  0.5170580000000 1.0
C      1  0.5288060000000  0.5033310000000  0.5083330000000 1.0
C      1  0.5040030000000  0.4955120000000  0.4515290000000 1.0
C      1  0.5042770000000  0.4923070000000  0.6292180000000 1.0
C      1  0.4986230000000  0.5147910000000  0.4755500000000 1.0
C      1  0.5016800000000  0.4986630000000  0.5788360000000 1.0
C      1  0.4981590000000  0.5040540000000  0.3771180000000 1.0
C      1  0.5033860000000  0.5104370000000  0.4005950000000 1.0
C      1  0.4996840000000  0.5016090000000  0.5509790000000 1.0
C      1  0.5028180000000  0.4958890000000  0.6036600000000 1.0
C      1  0.4923360000000  0.4947630000000  0.3268610000000 1.0
C      1  0.5061300000000  0.4869750000000  0.6804270000000 1.0
C      1  0.5051400000000  0.4897500000000  0.6546840000000 1.0
C      1  0.4948060000000  0.4991660000000  0.3514740000000 1.0
C      1  0.5067680000000  0.5151120000000  0.4282070000000 1.0
END
