TITL C-89339-4565-8 -0.122685738225143 125000 -164.970183148409 0 0 26 (C2v) n - 1
REM
REM in /rds/project/t2_vol4/rds-t2-cs072/BORA/CARBON/from-Arr/AIRSS/Generating-Clusters/GAP-ML-2020/Higher-Symm/SD-CG/HFTN-CG
REM
REM
REM
REM
REM
REM ./C.cell (b20cbc046b6831c77cfcea5457e17084)
REM AIRSS Version 0.9.1 bugfix July 2018 build 013d7b7c2542+ Fri, 06 Jul 2018 19:26:36 +0100
REM compiler GCC version 9.3.0
REM options -cpp -mtune=generic -march=x86-64 -g -O0
REM seed -1256488133 -1130131404 103547769 -2079541320 -1302326689 1738954385 1297934386 -1283088654 -1701134125 868625996 -1563870987 -1448052843 942758164 -290204946 -877892700 -534477304 723358943 348121357 2143805515 1352828648 -1799360335 -2146818407 289409233 -994021417 687954065 165814642 1369803531 518761581 -103766444 410117667 2078351198 1435172883 774766181
REM
CELL 1.54180   50.00000   50.00000   50.00000   90.00000   90.00000   90.00000
LATT -1
SFAC C  
C      1  0.5144190000000  0.4846350000000  0.5029700000000 1.0
C      1  0.4855810000000  0.5153710000000  0.5029500000000 1.0
C      1  0.4855880000000  0.4846290000000  0.5029700000000 1.0
C      1  0.5144120000000  0.5153780000000  0.5029500000000 1.0
C      1  0.4795890000000  0.5610010000000  0.5142310000000 1.0
C      1  0.5204120000000  0.4390200000000  0.5143100000000 1.0
C      1  0.5203830000000  0.5610110000000  0.5142310000000 1.0
C      1  0.4796170000000  0.4390110000000  0.5143100000000 1.0
C      1  0.4854460000000  0.4250110000000  0.4899470000000 1.0
C      1  0.5145540000000  0.5749790000000  0.4898490000000 1.0
C      1  0.5145890000000  0.4250180000000  0.4899470000000 1.0
C      1  0.4854110000000  0.5749720000000  0.4898490000000 1.0
C      1  0.4685290000000  0.4633730000000  0.5104550000000 1.0
C      1  0.5314710000000  0.5366430000000  0.5104080000000 1.0
C      1  0.5314870000000  0.4633880000000  0.5104550000000 1.0
C      1  0.4685130000000  0.5366280000000  0.5104080000000 1.0
C      1  0.5142030000000  0.5528960000000  0.4708600000000 1.0
C      1  0.4857970000000  0.4470690000000  0.4709290000000 1.0
C      1  0.4857730000000  0.5528890000000  0.4708600000000 1.0
C      1  0.5142270000000  0.4470760000000  0.4709290000000 1.0
C      1  0.5267010000000  0.5307280000000  0.4820260000000 1.0
C      1  0.4732990000000  0.4692510000000  0.4820660000000 1.0
C      1  0.4732840000000  0.5307160000000  0.4820270000000 1.0
C      1  0.5267160000000  0.4692640000000  0.4820660000000 1.0
C      1  0.4999860000000  0.5624280000000  0.5322420000000 1.0
C      1  0.5000140000000  0.4376160000000  0.5323230000000 1.0
END
