TITL C-89348-4183-13 0.00826109930488378 125000 -38.3214589186866 0 0 7 (C3v) n - 1
REM
REM in /rds/project/t2_vol4/rds-t2-cs072/BORA/CARBON/from-Arr/AIRSS/Generating-Clusters/GAP-ML-2020/Higher-Symm/SD-CG/HFTN-CG
REM
REM
REM
REM
REM
REM ./C.cell (b20cbc046b6831c77cfcea5457e17084)
REM AIRSS Version 0.9.1 bugfix July 2018 build 013d7b7c2542+ Fri, 06 Jul 2018 19:26:36 +0100
REM compiler GCC version 9.3.0
REM options -cpp -mtune=generic -march=x86-64 -g -O0
REM seed 114100778 891916672 598554365 -1552040910 -292589894 1540019410 759686572 -1039981829 -1888623166 -1987343981 1665441699 -1072318752 323900082 -64170012 -102429889 1255967842 1114752312 821105733 125415547 553815362 89822071 -497707781 1149418111 1742746998 -490839518 1615174267 1042963763 230742351 -390197793 -414966050 -1531064505 -1722751389 282193126
REM
CELL 1.54180   50.00000   50.00000   50.00000   90.00000   90.00000   90.00000
LATT -1
SFAC C  
C      1  0.4830590000000  0.5059390000000  0.5251360000000 1.0
C      1  0.5103140000000  0.4981980000000  0.5206760000000 1.0
C      1  0.5266400000000  0.5056100000000  0.4982890000000 1.0
C      1  0.5090650000000  0.4980320000000  0.4769260000000 1.0
C      1  0.4815980000000  0.5057450000000  0.4739700000000 1.0
C      1  0.4718020000000  0.4983130000000  0.4998820000000 1.0
C      1  0.4969720000000  0.4808990000000  0.4992290000000 1.0
END
