TITL C-89153-4444-2 -7.41630038076155 125000 -628.68491432536 0 0 91 (C3) n - 1
REM
REM in /rds/project/t2_vol4/rds-t2-cs072/BORA/CARBON/from-Arr/AIRSS/Generating-Clusters/GAP-ML-2020/Higher-Symm/SD-CG/HFTN-CG
REM
REM
REM
REM
REM
REM ./C.cell (b20cbc046b6831c77cfcea5457e17084)
REM AIRSS Version 0.9.1 bugfix July 2018 build 013d7b7c2542+ Fri, 06 Jul 2018 19:26:36 +0100
REM compiler GCC version 9.3.0
REM options -cpp -mtune=generic -march=x86-64 -g -O0
REM seed -1120670929 -462335892 1594922651 -350389615 2124104776 2094017498 1557920477 1681242272 1947434118 -1429305228 86243358 1483928111 -146480125 -863495235 1927184025 -1744430440 881033566 -802846748 1722269458 -1547982976 -825144317 -1471177502 -1153062480 -307037677 1836240426 -554722894 1853243123 -1176744543 161828123 -1561942072 1987488133 718591331 -2021004449
REM
CELL 1.54180   50.00000   50.00000   50.00000   90.00000   90.00000   90.00000
LATT -1
SFAC C  
C      1  0.5007770000000  0.5163200000000  0.5689590000000 1.0
C      1  0.4400880000000  0.5129930000000  0.4653690000000 1.0
C      1  0.5601840000000  0.5142430000000  0.4645970000000 1.0
C      1  0.4615560000000  0.5670030000000  0.5410570000000 1.0
C      1  0.4818940000000  0.5646970000000  0.4438180000000 1.0
C      1  0.5559550000000  0.5671960000000  0.5100220000000 1.0
C      1  0.5349970000000  0.5769440000000  0.5275330000000 1.0
C      1  0.4565070000000  0.5757600000000  0.5138780000000 1.0
C      1  0.5076000000000  0.5747160000000  0.4527470000000 1.0
C      1  0.4548910000000  0.4889560000000  0.4294860000000 1.0
C      1  0.5847540000000  0.4920550000000  0.4960370000000 1.0
C      1  0.4621410000000  0.4928110000000  0.5752100000000 1.0
C      1  0.4826190000000  0.4511570000000  0.5510300000000 1.0
C      1  0.4671730000000  0.4486470000000  0.4605250000000 1.0
C      1  0.5533010000000  0.4503840000000  0.4923830000000 1.0
C      1  0.5024020000000  0.4828850000000  0.6061110000000 1.0
C      1  0.4084100000000  0.4778230000000  0.4492310000000 1.0
C      1  0.5913280000000  0.4796810000000  0.4462570000000 1.0
C      1  0.4606300000000  0.5556880000000  0.4903770000000 1.0
C      1  0.5266420000000  0.5558220000000  0.4686400000000 1.0
C      1  0.5124500000000  0.5574360000000  0.5366560000000 1.0
C      1  0.4646770000000  0.5255470000000  0.4550140000000 1.0
C      1  0.5563730000000  0.5274420000000  0.4906870000000 1.0
C      1  0.4796000000000  0.5282260000000  0.5522470000000 1.0
C      1  0.5227100000000  0.4846860000000  0.5392740000000 1.0
C      1  0.4560220000000  0.4829650000000  0.5001180000000 1.0
C      1  0.5233020000000  0.4826870000000  0.4619490000000 1.0
C      1  0.5166380000000  0.4305380000000  0.5258370000000 1.0
C      1  0.4727580000000  0.4294870000000  0.5031720000000 1.0
C      1  0.5143420000000  0.4292350000000  0.4765080000000 1.0
C      1  0.4970400000000  0.4700900000000  0.4261310000000 1.0
C      1  0.5673120000000  0.4736500000000  0.5347760000000 1.0
C      1  0.4380430000000  0.4724530000000  0.5413200000000 1.0
C      1  0.4858210000000  0.4314770000000  0.4773750000000 1.0
C      1  0.5300580000000  0.4325480000000  0.5006360000000 1.0
C      1  0.4877790000000  0.4327930000000  0.5273110000000 1.0
C      1  0.5701610000000  0.5018790000000  0.5381390000000 1.0
C      1  0.4326280000000  0.5005060000000  0.5412700000000 1.0
C      1  0.4987150000000  0.4980770000000  0.4206320000000 1.0
C      1  0.4411490000000  0.5457930000000  0.5484060000000 1.0
C      1  0.4865480000000  0.5430240000000  0.4231070000000 1.0
C      1  0.5723800000000  0.5465740000000  0.5250310000000 1.0
C      1  0.4701030000000  0.4645320000000  0.4335380000000 1.0
C      1  0.5745790000000  0.4675660000000  0.5079150000000 1.0
C      1  0.4578860000000  0.4677130000000  0.5611980000000 1.0
C      1  0.4409470000000  0.4622980000000  0.5149360000000 1.0
C      1  0.5188060000000  0.4612340000000  0.4421130000000 1.0
C      1  0.5429430000000  0.4641800000000  0.5459160000000 1.0
C      1  0.5373570000000  0.5627600000000  0.5508490000000 1.0
C      1  0.4356960000000  0.5604890000000  0.5047090000000 1.0
C      1  0.5265200000000  0.5597650000000  0.4397510000000 1.0
C      1  0.4258380000000  0.5150300000000  0.5176240000000 1.0
C      1  0.5220130000000  0.5136750000000  0.4261190000000 1.0
C      1  0.5531710000000  0.5173490000000  0.5551160000000 1.0
C      1  0.4403150000000  0.4429400000000  0.4718050000000 1.0
C      1  0.5571840000000  0.4439640000000  0.4636620000000 1.0
C      1  0.5057760000000  0.4461500000000  0.5689150000000 1.0
C      1  0.4689610000000  0.4747700000000  0.4747770000000 1.0
C      1  0.5390750000000  0.4758030000000  0.4860440000000 1.0
C      1  0.4942410000000  0.4767570000000  0.5411170000000 1.0
C      1  0.4268960000000  0.5420000000000  0.5249390000000 1.0
C      1  0.5141220000000  0.5402680000000  0.4225840000000 1.0
C      1  0.5591550000000  0.5440290000000  0.5492570000000 1.0
C      1  0.4861340000000  0.5576120000000  0.5488770000000 1.0
C      1  0.4632020000000  0.5551040000000  0.4614820000000 1.0
C      1  0.5503810000000  0.5566430000000  0.4853040000000 1.0
C      1  0.4310880000000  0.4942440000000  0.4463970000000 1.0
C      1  0.5818160000000  0.4963680000000  0.4668260000000 1.0
C      1  0.4887200000000  0.4985020000000  0.5871140000000 1.0
C      1  0.4936690000000  0.4898630000000  0.4740750000000 1.0
C      1  0.5267540000000  0.4910750000000  0.5073460000000 1.0
C      1  0.4813830000000  0.4909070000000  0.5193630000000 1.0
C      1  0.4732550000000  0.5138950000000  0.4271730000000 1.0
C      1  0.5766210000000  0.5171970000000  0.5123550000000 1.0
C      1  0.4511230000000  0.5170860000000  0.5592760000000 1.0
C      1  0.5279230000000  0.5200470000000  0.5000450000000 1.0
C      1  0.4860060000000  0.5202030000000  0.5231570000000 1.0
C      1  0.4869530000000  0.5189720000000  0.4753160000000 1.0
C      1  0.5279190000000  0.4408880000000  0.5502630000000 1.0
C      1  0.4455880000000  0.4387250000000  0.5004480000000 1.0
C      1  0.5299260000000  0.4384150000000  0.4540620000000 1.0
C      1  0.5146410000000  0.5294630000000  0.5253410000000 1.0
C      1  0.4703970000000  0.5283060000000  0.4987520000000 1.0
C      1  0.5155630000000  0.5281350000000  0.4737340000000 1.0
C      1  0.5329140000000  0.5093450000000  0.4534990000000 1.0
C      1  0.5241970000000  0.5117810000000  0.5510240000000 1.0
C      1  0.4440750000000  0.5094750000000  0.4947380000000 1.0
C      1  0.5071180000000  0.4637610000000  0.5891590000000 1.0
C      1  0.4214530000000  0.4595670000000  0.4623430000000 1.0
C      1  0.5741620000000  0.4609020000000  0.4515530000000 1.0
C      1  0.5006920000000  0.4821700000000  0.5004800000000 1.0
END
