TITL C-89341-4052-2 59.5248134462377 125000 -168.769222144566 0 0 26 (C1) n - 1
REM
REM in /rds/project/t2_vol4/rds-t2-cs072/BORA/CARBON/from-Arr/AIRSS/Generating-Clusters/GAP-ML-2020/Higher-Symm/SD-CG/HFTN-CG
REM
REM
REM
REM
REM
REM ./C.cell (b20cbc046b6831c77cfcea5457e17084)
REM AIRSS Version 0.9.1 bugfix July 2018 build 013d7b7c2542+ Fri, 06 Jul 2018 19:26:36 +0100
REM compiler GCC version 9.3.0
REM options -cpp -mtune=generic -march=x86-64 -g -O0
REM seed -1635212461 -1646034578 1299630887 268208988 -998864734 1529861964 -1233308248 2103171452 1495217775 -1140656494 -1203757414 1504495806 -332691294 -1654359738 -1885890024 1775388960 -946351650 -376899341 -1802300043 889986976 1015238647 157179645 -1733511135 656513958 1990120302 198665816 -1835718082 -1261379532 -194802378 -1496009506 1404315723 390064446 685043900
REM
CELL 1.54180   50.00000   50.00000   50.00000   90.00000   90.00000   90.00000
LATT -1
SFAC C  
C      1  0.5300290000000  0.5202340000000  0.5082630000000 1.0
C      1  0.5419280000000  0.4787410000000  0.5274480000000 1.0
C      1  0.5154630000000  0.5312600000000  0.4865620000000 1.0
C      1  0.5149190000000  0.4769470000000  0.5315290000000 1.0
C      1  0.5148840000000  0.5259310000000  0.5332770000000 1.0
C      1  0.4542590000000  0.5031200000000  0.5019390000000 1.0
C      1  0.5068010000000  0.5146440000000  0.4644610000000 1.0
C      1  0.4788520000000  0.5072290000000  0.4635560000000 1.0
C      1  0.4975760000000  0.5455880000000  0.5270910000000 1.0
C      1  0.4724760000000  0.5018760000000  0.5447630000000 1.0
C      1  0.4735880000000  0.4614150000000  0.5126900000000 1.0
C      1  0.5034850000000  0.4685270000000  0.4683630000000 1.0
C      1  0.4596300000000  0.5212430000000  0.4796570000000 1.0
C      1  0.4914620000000  0.5413990000000  0.5010710000000 1.0
C      1  0.5666040000000  0.4932870000000  0.4856140000000 1.0
C      1  0.5115460000000  0.4519570000000  0.4888080000000 1.0
C      1  0.5481850000000  0.4985840000000  0.5083880000000 1.0
C      1  0.5218410000000  0.4901140000000  0.4617260000000 1.0
C      1  0.4770920000000  0.4796870000000  0.4693690000000 1.0
C      1  0.5480930000000  0.4887460000000  0.4689170000000 1.0
C      1  0.4682200000000  0.5452680000000  0.4875780000000 1.0
C      1  0.5008130000000  0.4594190000000  0.5134440000000 1.0
C      1  0.4995010000000  0.5017210000000  0.5365170000000 1.0
C      1  0.4538420000000  0.5102850000000  0.5292410000000 1.0
C      1  0.4878160000000  0.5069060000000  0.5062340000000 1.0
C      1  0.4610950000000  0.4758710000000  0.4934920000000 1.0
END
