TITL C-89149-4161-11 0.0568263541393203 125000 -389.37547183033 0 0 57 (C1) n - 1
REM
REM in /rds/project/t2_vol4/rds-t2-cs072/BORA/CARBON/from-Arr/AIRSS/Generating-Clusters/GAP-ML-2020/Higher-Symm/SD-CG/HFTN-CG
REM
REM
REM
REM
REM
REM ./C.cell (b20cbc046b6831c77cfcea5457e17084)
REM AIRSS Version 0.9.1 bugfix July 2018 build 013d7b7c2542+ Fri, 06 Jul 2018 19:26:36 +0100
REM compiler GCC version 9.3.0
REM options -cpp -mtune=generic -march=x86-64 -g -O0
REM seed -854331862 -972879958 1032731615 655236819 -1469689302 -298063325 136813445 1598441276 1751478539 -721252215 -1039256361 1369528538 -667648899 -1678392697 400163118 -437474071 -1300645331 -1762340030 447893263 -1365020974 -115737428 -177017293 -1566037538 891901059 -314711713 1712713473 -157891743 1470546540 657267468 -2067311405 -202946361 -592444355 188302884
REM
CELL 1.54180   50.00000   50.00000   50.00000   90.00000   90.00000   90.00000
LATT -1
SFAC C  
C      1  0.5188300000000  0.5022960000000  0.5201840000000 1.0
C      1  0.4970040000000  0.5671730000000  0.5163320000000 1.0
C      1  0.5235450000000  0.5013510000000  0.4886090000000 1.0
C      1  0.4506060000000  0.4810200000000  0.5019920000000 1.0
C      1  0.5182680000000  0.4861780000000  0.4415480000000 1.0
C      1  0.4587740000000  0.5455610000000  0.5318690000000 1.0
C      1  0.5582970000000  0.4993380000000  0.5257290000000 1.0
C      1  0.5176820000000  0.5635970000000  0.4972370000000 1.0
C      1  0.4431760000000  0.5243100000000  0.5209550000000 1.0
C      1  0.4857520000000  0.4382590000000  0.4682810000000 1.0
C      1  0.4775040000000  0.5158930000000  0.5630190000000 1.0
C      1  0.5237460000000  0.4772780000000  0.5623730000000 1.0
C      1  0.4902130000000  0.4329960000000  0.5161180000000 1.0
C      1  0.5286390000000  0.5054710000000  0.5665980000000 1.0
C      1  0.5327760000000  0.5449030000000  0.5360310000000 1.0
C      1  0.5146210000000  0.5283120000000  0.4268120000000 1.0
C      1  0.5005310000000  0.5056810000000  0.5765260000000 1.0
C      1  0.5293060000000  0.5139220000000  0.4453410000000 1.0
C      1  0.5479510000000  0.4718760000000  0.5234070000000 1.0
C      1  0.4512030000000  0.4979080000000  0.4555850000000 1.0
C      1  0.4638780000000  0.4560860000000  0.4602460000000 1.0
C      1  0.4447010000000  0.5273810000000  0.4925030000000 1.0
C      1  0.4642960000000  0.4765750000000  0.4415270000000 1.0
C      1  0.4901850000000  0.4905650000000  0.4343020000000 1.0
C      1  0.4727370000000  0.4333500000000  0.4939960000000 1.0
C      1  0.4806850000000  0.4795010000000  0.5044100000000 1.0
C      1  0.5471440000000  0.4578740000000  0.4994140000000 1.0
C      1  0.5685840000000  0.4941920000000  0.4793280000000 1.0
C      1  0.5116820000000  0.5500590000000  0.4736560000000 1.0
C      1  0.4451490000000  0.4968320000000  0.5283310000000 1.0
C      1  0.4615330000000  0.4937280000000  0.5513090000000 1.0
C      1  0.4978190000000  0.4768380000000  0.5738100000000 1.0
C      1  0.4632150000000  0.5491360000000  0.4857310000000 1.0
C      1  0.4908020000000  0.5069770000000  0.5123620000000 1.0
C      1  0.5409080000000  0.5517450000000  0.5095180000000 1.0
C      1  0.4788460000000  0.5075900000000  0.4603800000000 1.0
C      1  0.5204120000000  0.4740040000000  0.5331890000000 1.0
C      1  0.4841850000000  0.5490030000000  0.4655720000000 1.0
C      1  0.4527630000000  0.4546990000000  0.4882160000000 1.0
C      1  0.4917250000000  0.4619820000000  0.5270170000000 1.0
C      1  0.5310960000000  0.5265350000000  0.4717420000000 1.0
C      1  0.5277010000000  0.4377110000000  0.4938720000000 1.0
C      1  0.4786550000000  0.4708130000000  0.5535560000000 1.0
C      1  0.5469510000000  0.4767970000000  0.4777520000000 1.0
C      1  0.4699610000000  0.5611320000000  0.5103130000000 1.0
C      1  0.4800390000000  0.5406560000000  0.5499660000000 1.0
C      1  0.5382760000000  0.5166220000000  0.5413460000000 1.0
C      1  0.4788970000000  0.5317700000000  0.4442630000000 1.0
C      1  0.5671000000000  0.5106940000000  0.5013040000000 1.0
C      1  0.4415910000000  0.5014690000000  0.4813750000000 1.0
C      1  0.5531380000000  0.5339410000000  0.4914920000000 1.0
C      1  0.5288400000000  0.4658190000000  0.4569540000000 1.0
C      1  0.4947800000000  0.4975080000000  0.4850430000000 1.0
C      1  0.5048330000000  0.5533080000000  0.5399260000000 1.0
C      1  0.4897970000000  0.5183640000000  0.4216320000000 1.0
C      1  0.5141010000000  0.4446890000000  0.4689930000000 1.0
C      1  0.5145680000000  0.4207300000000  0.5111100000000 1.0
END
