TITL C-89160-4210-4 -0.100260374077133 125000 -514.755390022673 0 0 78 (C3) n - 1
REM
REM in /rds/project/t2_vol4/rds-t2-cs072/BORA/CARBON/from-Arr/AIRSS/Generating-Clusters/GAP-ML-2020/Higher-Symm/SD-CG/HFTN-CG
REM
REM
REM
REM
REM
REM ./C.cell (b20cbc046b6831c77cfcea5457e17084)
REM AIRSS Version 0.9.1 bugfix July 2018 build 013d7b7c2542+ Fri, 06 Jul 2018 19:26:36 +0100
REM compiler GCC version 9.3.0
REM options -cpp -mtune=generic -march=x86-64 -g -O0
REM seed 979556219 163104043 -492167798 -494902188 -1129440318 802247008 -1437057656 -862522249 -1720740815 1586598890 -1137132990 -1105226336 487361097 1932929207 -143374785 -851551752 -1220804066 -1783165547 -874712040 775558317 -975073419 1652689628 -2076404250 371764576 98818114 -1533759992 1375056764 -500293201 1791723927 1120212659 -711225816 -189808367 -529616681
REM
CELL 1.54180   50.00000   50.00000   50.00000   90.00000   90.00000   90.00000
LATT -1
SFAC C  
C      1  0.5501740000000  0.5547190000000  0.4947540000000 1.0
C      1  0.4275260000000  0.5160910000000  0.4947410000000 1.0
C      1  0.5223020000000  0.4291880000000  0.4947670000000 1.0
C      1  0.5501770000000  0.4452830000000  0.4947690000000 1.0
C      1  0.4275260000000  0.4839030000000  0.4947460000000 1.0
C      1  0.5222980000000  0.5708120000000  0.4947480000000 1.0
C      1  0.5064980000000  0.4597820000000  0.5273230000000 1.0
C      1  0.5315770000000  0.5257450000000  0.5273170000000 1.0
C      1  0.4619120000000  0.5144830000000  0.5273090000000 1.0
C      1  0.5064960000000  0.5402250000000  0.5273120000000 1.0
C      1  0.5315790000000  0.4742630000000  0.5273240000000 1.0
C      1  0.4619130000000  0.4855220000000  0.5273130000000 1.0
C      1  0.5253010000000  0.4856950000000  0.5711370000000 1.0
C      1  0.4997300000000  0.5290870000000  0.5711270000000 1.0
C      1  0.4749380000000  0.4852460000000  0.5711300000000 1.0
C      1  0.5253000000000  0.5143250000000  0.5711330000000 1.0
C      1  0.4997320000000  0.4709320000000  0.5711350000000 1.0
C      1  0.4749370000000  0.5147710000000  0.5711260000000 1.0
C      1  0.4761690000000  0.5685560000000  0.4889720000000 1.0
C      1  0.4525450000000  0.4450800000000  0.4889850000000 1.0
C      1  0.5712910000000  0.4863590000000  0.4889970000000 1.0
C      1  0.4761730000000  0.4314400000000  0.4889900000000 1.0
C      1  0.4525420000000  0.5549150000000  0.4889700000000 1.0
C      1  0.5712900000000  0.5136410000000  0.4889930000000 1.0
C      1  0.5305380000000  0.5819240000000  0.5210350000000 1.0
C      1  0.4137810000000  0.4854920000000  0.5210310000000 1.0
C      1  0.5556720000000  0.4325930000000  0.5210590000000 1.0
C      1  0.5305430000000  0.4180840000000  0.5210570000000 1.0
C      1  0.4137800000000  0.5145090000000  0.5210270000000 1.0
C      1  0.5556680000000  0.5674160000000  0.5210410000000 1.0
C      1  0.5491560000000  0.4449680000000  0.5479070000000 1.0
C      1  0.5230760000000  0.5701020000000  0.5478860000000 1.0
C      1  0.4277470000000  0.4849490000000  0.5478830000000 1.0
C      1  0.5491530000000  0.5550470000000  0.5478920000000 1.0
C      1  0.5230800000000  0.4299120000000  0.5479050000000 1.0
C      1  0.4277460000000  0.5150600000000  0.5478790000000 1.0
C      1  0.5017550000000  0.5519270000000  0.5529660000000 1.0
C      1  0.4541460000000  0.4755740000000  0.5529690000000 1.0
C      1  0.5440750000000  0.4725200000000  0.5529830000000 1.0
C      1  0.5017580000000  0.4480870000000  0.5529800000000 1.0
C      1  0.4541450000000  0.5244380000000  0.5529630000000 1.0
C      1  0.5440730000000  0.5274970000000  0.5529760000000 1.0
C      1  0.4332220000000  0.4600070000000  0.4731880000000 1.0
C      1  0.5680260000000  0.4621570000000  0.4732070000000 1.0
C      1  0.4987630000000  0.5778260000000  0.4731820000000 1.0
C      1  0.4332200000000  0.5399820000000  0.4731770000000 1.0
C      1  0.5680240000000  0.5378400000000  0.4731970000000 1.0
C      1  0.4987670000000  0.4221670000000  0.4732020000000 1.0
C      1  0.5451410000000  0.4737810000000  0.5019420000000 1.0
C      1  0.5001350000000  0.5522030000000  0.5019250000000 1.0
C      1  0.4547230000000  0.4740160000000  0.5019290000000 1.0
C      1  0.5451390000000  0.5262220000000  0.5019350000000 1.0
C      1  0.5001380000000  0.4477980000000  0.5019390000000 1.0
C      1  0.4547220000000  0.5259820000000  0.5019220000000 1.0
C      1  0.5246140000000  0.4857360000000  0.4858950000000 1.0
C      1  0.5000470000000  0.5284440000000  0.4858860000000 1.0
C      1  0.4753450000000  0.4858150000000  0.4858880000000 1.0
C      1  0.5246130000000  0.5142620000000  0.4858920000000 1.0
C      1  0.5000490000000  0.4715520000000  0.4858940000000 1.0
C      1  0.4753440000000  0.5141800000000  0.4858840000000 1.0
C      1  0.4735590000000  0.5154380000000  0.4537700000000 1.0
C      1  0.4998560000000  0.4693670000000  0.4537800000000 1.0
C      1  0.5266060000000  0.5151760000000  0.4537780000000 1.0
C      1  0.4735600000000  0.4845480000000  0.4537740000000 1.0
C      1  0.4998540000000  0.5306200000000  0.4537720000000 1.0
C      1  0.5266070000000  0.4848130000000  0.4537820000000 1.0
C      1  0.5451130000000  0.5525380000000  0.4313160000000 1.0
C      1  0.4319520000000  0.5127770000000  0.4313050000000 1.0
C      1  0.5229660000000  0.4346580000000  0.4313290000000 1.0
C      1  0.5451150000000  0.4474460000000  0.4313300000000 1.0
C      1  0.4319530000000  0.4872010000000  0.4313080000000 1.0
C      1  0.5229620000000  0.5653250000000  0.4313110000000 1.0
C      1  0.5030640000000  0.5604230000000  0.4497930000000 1.0
C      1  0.4461460000000  0.4724250000000  0.4497960000000 1.0
C      1  0.5508130000000  0.4671320000000  0.4498120000000 1.0
C      1  0.5030670000000  0.4395640000000  0.4498090000000 1.0
C      1  0.4461440000000  0.5275580000000  0.4497890000000 1.0
C      1  0.5508110000000  0.5328580000000  0.4498030000000 1.0
END
