TITL C-89149-4161-10 -0.161717498194397 125000 -606.826577114868 0 0 86 (C1) n - 1
REM
REM in /rds/project/t2_vol4/rds-t2-cs072/BORA/CARBON/from-Arr/AIRSS/Generating-Clusters/GAP-ML-2020/Higher-Symm/SD-CG/HFTN-CG
REM
REM
REM
REM
REM
REM ./C.cell (b20cbc046b6831c77cfcea5457e17084)
REM AIRSS Version 0.9.1 bugfix July 2018 build 013d7b7c2542+ Fri, 06 Jul 2018 19:26:36 +0100
REM compiler GCC version 9.3.0
REM options -cpp -mtune=generic -march=x86-64 -g -O0
REM seed -1539398631 -388802510 -122059888 2101382164 322490562 -983481724 -1566878811 -352353967 1304758265 1529685738 -2030678963 -915427798 -502760356 -1061920550 1544135750 841901200 -940891074 1330223607 1283932907 -527732544 386646310 -1178097580 878061370 1241801455 -2002028527 -863132757 -1174450613 -112592721 684386877 1880267165 -1177683733 -271985858 -879443760
REM
CELL 1.54180   50.00000   50.00000   50.00000   90.00000   90.00000   90.00000
LATT -1
SFAC C  
C      1  0.5191900000000  0.5149000000000  0.5216680000000 1.0
C      1  0.5695210000000  0.4820930000000  0.4794440000000 1.0
C      1  0.5229850000000  0.4386180000000  0.4521220000000 1.0
C      1  0.4691030000000  0.4868750000000  0.4955250000000 1.0
C      1  0.5142070000000  0.5204560000000  0.4911550000000 1.0
C      1  0.5703860000000  0.4591110000000  0.4995380000000 1.0
C      1  0.4988410000000  0.4276280000000  0.5427070000000 1.0
C      1  0.4986030000000  0.5158840000000  0.5753380000000 1.0
C      1  0.5219490000000  0.5486510000000  0.4426730000000 1.0
C      1  0.4568050000000  0.4393170000000  0.4831050000000 1.0
C      1  0.4559230000000  0.4928310000000  0.5909920000000 1.0
C      1  0.5520730000000  0.5139730000000  0.4392250000000 1.0
C      1  0.4912460000000  0.5101170000000  0.5287180000000 1.0
C      1  0.5562920000000  0.4381350000000  0.4869800000000 1.0
C      1  0.4576210000000  0.5211960000000  0.4161050000000 1.0
C      1  0.4467840000000  0.5629360000000  0.5260190000000 1.0
C      1  0.4786070000000  0.4435410000000  0.5527640000000 1.0
C      1  0.4766400000000  0.5132790000000  0.5043410000000 1.0
C      1  0.4914710000000  0.4687630000000  0.5644510000000 1.0
C      1  0.4602800000000  0.5826950000000  0.4581310000000 1.0
C      1  0.4654360000000  0.4302700000000  0.5092430000000 1.0
C      1  0.5478710000000  0.5510330000000  0.5340410000000 1.0
C      1  0.4802310000000  0.5080720000000  0.4344170000000 1.0
C      1  0.5760460000000  0.5112820000000  0.4810280000000 1.0
C      1  0.5617880000000  0.5287700000000  0.4614520000000 1.0
C      1  0.5243790000000  0.4384140000000  0.5505070000000 1.0
C      1  0.4373880000000  0.5378830000000  0.5379480000000 1.0
C      1  0.4870110000000  0.5639380000000  0.4997100000000 1.0
C      1  0.5092010000000  0.4570290000000  0.4352400000000 1.0
C      1  0.5305340000000  0.5691410000000  0.4855130000000 1.0
C      1  0.4943300000000  0.5545010000000  0.4456360000000 1.0
C      1  0.4399140000000  0.4924620000000  0.5407390000000 1.0
C      1  0.5119320000000  0.4180890000000  0.4958470000000 1.0
C      1  0.5327870000000  0.5295420000000  0.5453020000000 1.0
C      1  0.4819180000000  0.4917610000000  0.5813810000000 1.0
C      1  0.5446120000000  0.4362640000000  0.5307740000000 1.0
C      1  0.4538330000000  0.5304950000000  0.5607170000000 1.0
C      1  0.5804960000000  0.5161700000000  0.5090930000000 1.0
C      1  0.4595120000000  0.4755410000000  0.5256440000000 1.0
C      1  0.5408330000000  0.4851780000000  0.4917270000000 1.0
C      1  0.4221620000000  0.5035170000000  0.4979870000000 1.0
C      1  0.5328470000000  0.4885550000000  0.5193750000000 1.0
C      1  0.5379170000000  0.4847910000000  0.5645200000000 1.0
C      1  0.4575110000000  0.5666990000000  0.4997950000000 1.0
C      1  0.4817860000000  0.4577580000000  0.4434220000000 1.0
C      1  0.5073910000000  0.4725930000000  0.5181980000000 1.0
C      1  0.4970580000000  0.4775660000000  0.4920690000000 1.0
C      1  0.5082340000000  0.5048890000000  0.4251730000000 1.0
C      1  0.5561590000000  0.4827270000000  0.5402130000000 1.0
C      1  0.4477020000000  0.5635600000000  0.4733090000000 1.0
C      1  0.4867980000000  0.5625550000000  0.5488770000000 1.0
C      1  0.5747480000000  0.5039350000000  0.5332440000000 1.0
C      1  0.4623780000000  0.5761320000000  0.5457040000000 1.0
C      1  0.5496530000000  0.4858030000000  0.4355750000000 1.0
C      1  0.4357710000000  0.5107430000000  0.4728300000000 1.0
C      1  0.4872650000000  0.5795260000000  0.4562230000000 1.0
C      1  0.4465830000000  0.5358570000000  0.4600750000000 1.0
C      1  0.5039880000000  0.4264720000000  0.4696890000000 1.0
C      1  0.5385620000000  0.4250440000000  0.5047100000000 1.0
C      1  0.4593470000000  0.4463760000000  0.5317280000000 1.0
C      1  0.5423730000000  0.5524840000000  0.4636350000000 1.0
C      1  0.4779820000000  0.5320400000000  0.4565240000000 1.0
C      1  0.4410520000000  0.5351310000000  0.4296990000000 1.0
C      1  0.5492830000000  0.4446540000000  0.4605010000000 1.0
C      1  0.4816930000000  0.5379340000000  0.5649230000000 1.0
C      1  0.5224560000000  0.4802880000000  0.4267570000000 1.0
C      1  0.4917020000000  0.4192760000000  0.5156040000000 1.0
C      1  0.4479410000000  0.5030400000000  0.5666130000000 1.0
C      1  0.5031060000000  0.5668850000000  0.5242220000000 1.0
C      1  0.5274180000000  0.5249430000000  0.4294380000000 1.0
C      1  0.5306790000000  0.5664830000000  0.5156240000000 1.0
C      1  0.4870430000000  0.4824340000000  0.5367250000000 1.0
C      1  0.4384060000000  0.4619650000000  0.4801260000000 1.0
C      1  0.5035790000000  0.5770680000000  0.4794490000000 1.0
C      1  0.5165600000000  0.4944810000000  0.4794120000000 1.0
C      1  0.4220730000000  0.4753280000000  0.4981410000000 1.0
C      1  0.4276390000000  0.5132700000000  0.5255830000000 1.0
C      1  0.5683810000000  0.5314560000000  0.5304140000000 1.0
C      1  0.4514280000000  0.4863970000000  0.4677110000000 1.0
C      1  0.4885140000000  0.5320890000000  0.4860750000000 1.0
C      1  0.5261120000000  0.5112900000000  0.5671290000000 1.0
C      1  0.5204030000000  0.4625220000000  0.5659490000000 1.0
C      1  0.5617820000000  0.4692500000000  0.4540280000000 1.0
C      1  0.4777650000000  0.4376270000000  0.4636770000000 1.0
C      1  0.4685910000000  0.4827110000000  0.4448450000000 1.0
C      1  0.5635980000000  0.4570180000000  0.5275240000000 1.0
END
