TITL C-89352-4243-4 -0.0555488044293988 125000 -603.324776510511 0 0 93 (C2) n - 1
REM
REM in /rds/project/t2_vol4/rds-t2-cs072/BORA/CARBON/from-Arr/AIRSS/Generating-Clusters/GAP-ML-2020/Higher-Symm/SD-CG/HFTN-CG
REM
REM
REM
REM
REM
REM ./C.cell (b20cbc046b6831c77cfcea5457e17084)
REM AIRSS Version 0.9.1 bugfix July 2018 build 013d7b7c2542+ Fri, 06 Jul 2018 19:26:36 +0100
REM compiler GCC version 9.3.0
REM options -cpp -mtune=generic -march=x86-64 -g -O0
REM seed -1455477580 1304378543 1072177421 -875718502 -2030307595 144968187 791197254 -664412711 1143367351 1954606645 -1547338818 -2028961559 -100606416 -955377381 447629850 -107455485 1025152503 -109742159 -1297935721 -1995618316 1856602437 1886679211 880538347 680017983 -1159882726 1417998371 425662019 -822386741 -1880505707 -28791511 771156543 -862416400 792139395
REM
CELL 1.54180   50.00000   50.00000   50.00000   90.00000   90.00000   90.00000
LATT -1
SFAC C  
C      1  0.5327390000000  0.4726770000000  0.4315420000000 1.0
C      1  0.5078210000000  0.5413830000000  0.4301660000000 1.0
C      1  0.4598790000000  0.4860740000000  0.4324690000000 1.0
C      1  0.5363640000000  0.4641800000000  0.5608220000000 1.0
C      1  0.5133120000000  0.5495440000000  0.5627020000000 1.0
C      1  0.4501730000000  0.4866280000000  0.5603260000000 1.0
C      1  0.5363990000000  0.5357940000000  0.4396440000000 1.0
C      1  0.5132870000000  0.4504460000000  0.4377610000000 1.0
C      1  0.4501920000000  0.5134080000000  0.4401260000000 1.0
C      1  0.5327480000000  0.5273000000000  0.5689240000000 1.0
C      1  0.5077800000000  0.4586110000000  0.5702960000000 1.0
C      1  0.4598780000000  0.5139550000000  0.5679850000000 1.0
C      1  0.5604350000000  0.5453410000000  0.4469890000000 1.0
C      1  0.4297170000000  0.5300170000000  0.4453990000000 1.0
C      1  0.5096280000000  0.4248710000000  0.4457030000000 1.0
C      1  0.5627580000000  0.5280260000000  0.5656610000000 1.0
C      1  0.4440200000000  0.5394530000000  0.5645560000000 1.0
C      1  0.4935410000000  0.4316190000000  0.5657940000000 1.0
C      1  0.5627490000000  0.4719300000000  0.4348090000000 1.0
C      1  0.4440020000000  0.4605870000000  0.4358960000000 1.0
C      1  0.4936000000000  0.5683860000000  0.4346660000000 1.0
C      1  0.5603940000000  0.4546170000000  0.5534820000000 1.0
C      1  0.4296870000000  0.4700330000000  0.5550500000000 1.0
C      1  0.5096720000000  0.5751220000000  0.5547590000000 1.0
C      1  0.4281830000000  0.4839710000000  0.5131350000000 1.0
C      1  0.5480220000000  0.4488590000000  0.5132000000000 1.0
C      1  0.5214470000000  0.5676380000000  0.5134320000000 1.0
C      1  0.4290260000000  0.4876670000000  0.4840450000000 1.0
C      1  0.5465110000000  0.4461660000000  0.4840320000000 1.0
C      1  0.5234950000000  0.5655460000000  0.4842370000000 1.0
C      1  0.4290320000000  0.5123840000000  0.5164040000000 1.0
C      1  0.5465460000000  0.5538010000000  0.5164360000000 1.0
C      1  0.5234460000000  0.4344380000000  0.5162270000000 1.0
C      1  0.4281960000000  0.5160800000000  0.4873140000000 1.0
C      1  0.5480600000000  0.5511070000000  0.4872690000000 1.0
C      1  0.5214010000000  0.4323470000000  0.4870320000000 1.0
C      1  0.5005360000000  0.4698640000000  0.4594800000000 1.0
C      1  0.5261940000000  0.5146810000000  0.4608550000000 1.0
C      1  0.4722140000000  0.5146450000000  0.4620860000000 1.0
C      1  0.4983570000000  0.4716780000000  0.5430210000000 1.0
C      1  0.5270960000000  0.5146390000000  0.5406340000000 1.0
C      1  0.4742060000000  0.5151760000000  0.5396460000000 1.0
C      1  0.4983840000000  0.5283230000000  0.4574390000000 1.0
C      1  0.5270920000000  0.4853410000000  0.4598310000000 1.0
C      1  0.4742010000000  0.4848420000000  0.4608100000000 1.0
C      1  0.5005510000000  0.5301350000000  0.5409800000000 1.0
C      1  0.5261770000000  0.4853000000000  0.5396100000000 1.0
C      1  0.4721980000000  0.4853740000000  0.5383700000000 1.0
C      1  0.4548190000000  0.4741950000000  0.4807530000000 1.0
C      1  0.5461960000000  0.4751000000000  0.4801530000000 1.0
C      1  0.4997960000000  0.5497080000000  0.4766950000000 1.0
C      1  0.4581480000000  0.4758480000000  0.5124880000000 1.0
C      1  0.5337450000000  0.4767870000000  0.5102440000000 1.0
C      1  0.5007420000000  0.5456420000000  0.5171780000000 1.0
C      1  0.4581670000000  0.5241810000000  0.4879660000000 1.0
C      1  0.5337630000000  0.5231890000000  0.4902220000000 1.0
C      1  0.5007120000000  0.4543580000000  0.4832830000000 1.0
C      1  0.4548350000000  0.5258370000000  0.5197000000000 1.0
C      1  0.5462100000000  0.5248670000000  0.5203150000000 1.0
C      1  0.4997570000000  0.4502920000000  0.5237660000000 1.0
C      1  0.4759660000000  0.4319170000000  0.5179290000000 1.0
C      1  0.5738630000000  0.5129460000000  0.5177220000000 1.0
C      1  0.4518640000000  0.5561010000000  0.5180400000000 1.0
C      1  0.4791710000000  0.4315050000000  0.4873930000000 1.0
C      1  0.5781610000000  0.5171020000000  0.4881590000000 1.0
C      1  0.4498800000000  0.5538600000000  0.4872090000000 1.0
C      1  0.4792170000000  0.5685100000000  0.5130640000000 1.0
C      1  0.5781470000000  0.4828420000000  0.5123140000000 1.0
C      1  0.4498390000000  0.4461750000000  0.5132440000000 1.0
C      1  0.4760170000000  0.5681000000000  0.4825280000000 1.0
C      1  0.5738570000000  0.4870020000000  0.4827500000000 1.0
C      1  0.4518270000000  0.4439330000000  0.4824130000000 1.0
C      1  0.5019430000000  0.5834630000000  0.5294760000000 1.0
C      1  0.4271980000000  0.4597680000000  0.5291890000000 1.0
C      1  0.5703410000000  0.4589810000000  0.5277930000000 1.0
C      1  0.4842510000000  0.5804680000000  0.4557050000000 1.0
C      1  0.4380490000000  0.4452010000000  0.4558760000000 1.0
C      1  0.5787580000000  0.4745880000000  0.4548610000000 1.0
C      1  0.4841870000000  0.4195430000000  0.5447530000000 1.0
C      1  0.4380810000000  0.5548430000000  0.5445740000000 1.0
C      1  0.5787690000000  0.5253560000000  0.5456120000000 1.0
C      1  0.5018880000000  0.4165360000000  0.4709840000000 1.0
C      1  0.4272320000000  0.5402840000000  0.4712600000000 1.0
C      1  0.5703740000000  0.5409690000000  0.4726790000000 1.0
C      1  0.4848900000000  0.5064730000000  0.5842910000000 1.0
C      1  0.5014060000000  0.4840920000000  0.5855490000000 1.0
C      1  0.5014310000000  0.5159070000000  0.4149120000000 1.0
C      1  0.4848990000000  0.4935380000000  0.4161670000000 1.0
C      1  0.5124130000000  0.4905130000000  0.4161650000000 1.0
C      1  0.5124060000000  0.5094780000000  0.5842980000000 1.0
C      1  0.5057710000000  0.5263680000000  0.4965420000000 1.0
C      1  0.5057520000000  0.4736280000000  0.5039190000000 1.0
C      1  0.4939150000000  0.5000020000000  0.5002300000000 1.0
END
