TITL C-89156-4152-3 103.161567858761 125000 -1151.98713369621 0 0 158 (C1) n - 1
REM
REM in /rds/project/t2_vol4/rds-t2-cs072/BORA/CARBON/from-Arr/AIRSS/Generating-Clusters/GAP-ML-2020/Higher-Symm/SD-CG/HFTN-CG
REM
REM
REM
REM
REM
REM ./C.cell (b20cbc046b6831c77cfcea5457e17084)
REM AIRSS Version 0.9.1 bugfix July 2018 build 013d7b7c2542+ Fri, 06 Jul 2018 19:26:36 +0100
REM compiler GCC version 9.3.0
REM options -cpp -mtune=generic -march=x86-64 -g -O0
REM seed 943197435 -2082429073 -670471668 -859440703 -1947431978 -1835047791 -1832913343 79789022 -1307076158 -1598409787 1301015648 2059129175 586203056 408736764 -1275043350 -514236667 -6240943 -1952107572 -977058861 886721834 528335612 691532936 872711663 743015056 -867275741 -694178065 589154523 -759328511 -2100175102 1750377543 -1627748570 872857224 783560769
REM
CELL 1.54180   50.00000   50.00000   50.00000   90.00000   90.00000   90.00000
LATT -1
SFAC C  
C      1  0.4297740000000  0.5349770000000  0.5821790000000 1.0
C      1  0.4628460000000  0.4257920000000  0.5802160000000 1.0
C      1  0.5708270000000  0.4644140000000  0.5808720000000 1.0
C      1  0.5394900000000  0.5752120000000  0.5784990000000 1.0
C      1  0.5744000000000  0.5366040000000  0.4181280000000 1.0
C      1  0.5363860000000  0.4288410000000  0.4177820000000 1.0
C      1  0.4266450000000  0.4632440000000  0.4190760000000 1.0
C      1  0.4616890000000  0.5718800000000  0.4183000000000 1.0
C      1  0.4847090000000  0.4619930000000  0.5323050000000 1.0
C      1  0.5380380000000  0.4851730000000  0.5314640000000 1.0
C      1  0.5145330000000  0.5376240000000  0.5320490000000 1.0
C      1  0.4624820000000  0.5135940000000  0.5331730000000 1.0
C      1  0.5146750000000  0.4617040000000  0.4673630000000 1.0
C      1  0.4615410000000  0.4858190000000  0.4672540000000 1.0
C      1  0.4854080000000  0.5369650000000  0.4659330000000 1.0
C      1  0.5378140000000  0.5136820000000  0.4657480000000 1.0
C      1  0.4592520000000  0.5835470000000  0.4867050000000 1.0
C      1  0.4157490000000  0.4580660000000  0.4872440000000 1.0
C      1  0.5412470000000  0.4147920000000  0.4859890000000 1.0
C      1  0.5845300000000  0.5406200000000  0.4865320000000 1.0
C      1  0.5420260000000  0.5837640000000  0.5099930000000 1.0
C      1  0.5846330000000  0.4583260000000  0.5129250000000 1.0
C      1  0.4592790000000  0.4142800000000  0.5116350000000 1.0
C      1  0.4170120000000  0.5406500000000  0.5137260000000 1.0
C      1  0.5610880000000  0.4877060000000  0.5923580000000 1.0
C      1  0.5165050000000  0.5674680000000  0.5915100000000 1.0
C      1  0.4346030000000  0.5100680000000  0.5945560000000 1.0
C      1  0.4857320000000  0.4354470000000  0.5928490000000 1.0
C      1  0.4350030000000  0.4866600000000  0.4071090000000 1.0
C      1  0.4844340000000  0.5632840000000  0.4048750000000 1.0
C      1  0.5680120000000  0.5125140000000  0.4056920000000 1.0
C      1  0.5135630000000  0.4393650000000  0.4057890000000 1.0
C      1  0.5978590000000  0.5109230000000  0.4532580000000 1.0
C      1  0.4887840000000  0.5947610000000  0.4518680000000 1.0
C      1  0.4021550000000  0.4877730000000  0.4543400000000 1.0
C      1  0.5110860000000  0.4038120000000  0.4517710000000 1.0
C      1  0.4044350000000  0.5106560000000  0.5469630000000 1.0
C      1  0.5129970000000  0.5978340000000  0.5438290000000 1.0
C      1  0.5965160000000  0.4885590000000  0.5463550000000 1.0
C      1  0.4891450000000  0.4025250000000  0.5457300000000 1.0
C      1  0.4605290000000  0.4919620000000  0.3939510000000 1.0
C      1  0.5100750000000  0.4660470000000  0.3937630000000 1.0
C      1  0.5436700000000  0.5091160000000  0.3917960000000 1.0
C      1  0.4817500000000  0.5392520000000  0.3890000000000 1.0
C      1  0.5344920000000  0.4926130000000  0.6043640000000 1.0
C      1  0.4883160000000  0.4613240000000  0.6059230000000 1.0
C      1  0.4570980000000  0.5022920000000  0.6114940000000 1.0
C      1  0.5136090000000  0.5430010000000  0.6059600000000 1.0
C      1  0.4642530000000  0.4840850000000  0.4952870000000 1.0
C      1  0.5154160000000  0.4632990000000  0.4952420000000 1.0
C      1  0.5359460000000  0.5142600000000  0.4940070000000 1.0
C      1  0.4852890000000  0.5346190000000  0.4942010000000 1.0
C      1  0.5362080000000  0.4840880000000  0.5035600000000 1.0
C      1  0.4849010000000  0.4633860000000  0.5042630000000 1.0
C      1  0.4648000000000  0.5141650000000  0.5049900000000 1.0
C      1  0.5154220000000  0.5349080000000  0.5036460000000 1.0
C      1  0.5877410000000  0.4649040000000  0.5584540000000 1.0
C      1  0.5376440000000  0.5901940000000  0.5550390000000 1.0
C      1  0.4137880000000  0.5342420000000  0.5590930000000 1.0
C      1  0.4647560000000  0.4102120000000  0.5571130000000 1.0
C      1  0.4107080000000  0.4639580000000  0.4421380000000 1.0
C      1  0.4639710000000  0.5873910000000  0.4412000000000 1.0
C      1  0.5894620000000  0.5351250000000  0.4415060000000 1.0
C      1  0.5351390000000  0.4121270000000  0.4402320000000 1.0
C      1  0.4839660000000  0.4008430000000  0.5181640000000 1.0
C      1  0.5984460000000  0.4828720000000  0.5189200000000 1.0
C      1  0.5176950000000  0.5978900000000  0.5162250000000 1.0
C      1  0.4026100000000  0.5164770000000  0.5196510000000 1.0
C      1  0.5165730000000  0.4014310000000  0.4792640000000 1.0
C      1  0.4014200000000  0.4824360000000  0.4818380000000 1.0
C      1  0.4839230000000  0.5967260000000  0.4794340000000 1.0
C      1  0.5988010000000  0.5162820000000  0.4807210000000 1.0
C      1  0.5676390000000  0.5250370000000  0.5076820000000 1.0
C      1  0.4745100000000  0.5668720000000  0.5082550000000 1.0
C      1  0.4325640000000  0.4734460000000  0.5086540000000 1.0
C      1  0.5261800000000  0.4313490000000  0.5080500000000 1.0
C      1  0.4327020000000  0.5252970000000  0.4914820000000 1.0
C      1  0.5260240000000  0.5662780000000  0.4894300000000 1.0
C      1  0.5682660000000  0.4733430000000  0.4907680000000 1.0
C      1  0.4744950000000  0.4315820000000  0.4904530000000 1.0
C      1  0.4237560000000  0.5523310000000  0.5389160000000 1.0
C      1  0.4466180000000  0.4198610000000  0.5366800000000 1.0
C      1  0.5781460000000  0.4465980000000  0.5382750000000 1.0
C      1  0.5550110000000  0.5786940000000  0.5350580000000 1.0
C      1  0.5788020000000  0.5529970000000  0.4613630000000 1.0
C      1  0.5533850000000  0.4212100000000  0.4608390000000 1.0
C      1  0.4215800000000  0.4460320000000  0.4618470000000 1.0
C      1  0.4463460000000  0.5776230000000  0.4619560000000 1.0
C      1  0.5561560000000  0.5658400000000  0.4489700000000 1.0
C      1  0.4324000000000  0.5553210000000  0.4505170000000 1.0
C      1  0.4445830000000  0.4337690000000  0.4495570000000 1.0
C      1  0.5669280000000  0.4438910000000  0.4496290000000 1.0
C      1  0.4464410000000  0.5654560000000  0.5504710000000 1.0
C      1  0.5675570000000  0.5559400000000  0.5476560000000 1.0
C      1  0.5551900000000  0.4337630000000  0.5497390000000 1.0
C      1  0.4327060000000  0.4421370000000  0.5484510000000 1.0
C      1  0.4139250000000  0.5117510000000  0.4453610000000 1.0
C      1  0.4878310000000  0.4168260000000  0.4428790000000 1.0
C      1  0.5862000000000  0.4867520000000  0.4442810000000 1.0
C      1  0.5119470000000  0.5819020000000  0.4421560000000 1.0
C      1  0.5840200000000  0.5122730000000  0.5547670000000 1.0
C      1  0.5123000000000  0.4154870000000  0.5551440000000 1.0
C      1  0.4152190000000  0.4859600000000  0.5552320000000 1.0
C      1  0.4893420000000  0.5858350000000  0.5538390000000 1.0
C      1  0.5571930000000  0.4694920000000  0.4084450000000 1.0
C      1  0.5318940000000  0.5554640000000  0.4068200000000 1.0
C      1  0.4393430000000  0.5308460000000  0.4085880000000 1.0
C      1  0.4697900000000  0.4468340000000  0.4084090000000 1.0
C      1  0.4414770000000  0.4656670000000  0.5907590000000 1.0
C      1  0.4722590000000  0.5593370000000  0.5917060000000 1.0
C      1  0.5563610000000  0.5319090000000  0.5897030000000 1.0
C      1  0.5288020000000  0.4459110000000  0.5902750000000 1.0
C      1  0.5763920000000  0.4669310000000  0.4626050000000 1.0
C      1  0.5321790000000  0.5741800000000  0.4609640000000 1.0
C      1  0.4238000000000  0.5318130000000  0.4634820000000 1.0
C      1  0.4680160000000  0.4247000000000  0.4618990000000 1.0
C      1  0.4242180000000  0.4662030000000  0.5364670000000 1.0
C      1  0.4689870000000  0.5752940000000  0.5366520000000 1.0
C      1  0.5757060000000  0.5319410000000  0.5357150000000 1.0
C      1  0.5323150000000  0.4241930000000  0.5366660000000 1.0
C      1  0.4245040000000  0.5100610000000  0.4193260000000 1.0
C      1  0.4897310000000  0.4298060000000  0.4175860000000 1.0
C      1  0.5753420000000  0.4883640000000  0.4183810000000 1.0
C      1  0.5097380000000  0.5697710000000  0.4164220000000 1.0
C      1  0.5718360000000  0.5109980000000  0.5803010000000 1.0
C      1  0.5099520000000  0.4276920000000  0.5806890000000 1.0
C      1  0.4258690000000  0.4867510000000  0.5812350000000 1.0
C      1  0.4917460000000  0.5754560000000  0.5799170000000 1.0
C      1  0.4795080000000  0.5082360000000  0.5534340000000 1.0
C      1  0.4910130000000  0.4798840000000  0.5511150000000 1.0
C      1  0.5190740000000  0.4917970000000  0.5489230000000 1.0
C      1  0.5082460000000  0.5200190000000  0.5512230000000 1.0
C      1  0.5203820000000  0.5079850000000  0.4461530000000 1.0
C      1  0.5078150000000  0.4803410000000  0.4496040000000 1.0
C      1  0.4799280000000  0.4919450000000  0.4489480000000 1.0
C      1  0.4913200000000  0.5202250000000  0.4456860000000 1.0
C      1  0.5333380000000  0.5224700000000  0.6046530000000 1.0
C      1  0.4853890000000  0.5407320000000  0.6099430000000 1.0
C      1  0.4630690000000  0.4745910000000  0.6071250000000 1.0
C      1  0.5170980000000  0.4691870000000  0.6042630000000 1.0
C      1  0.4604680000000  0.5211470000000  0.3924740000000 1.0
C      1  0.5285780000000  0.5327550000000  0.3892780000000 1.0
C      1  0.5350130000000  0.4812160000000  0.3936200000000 1.0
C      1  0.4803410000000  0.4705100000000  0.3944780000000 1.0
C      1  0.4483710000000  0.5563760000000  0.5778640000000 1.0
C      1  0.4409320000000  0.4428300000000  0.5758680000000 1.0
C      1  0.5526600000000  0.4435820000000  0.5767450000000 1.0
C      1  0.5590530000000  0.5553670000000  0.5750950000000 1.0
C      1  0.5550360000000  0.5569590000000  0.4217780000000 1.0
C      1  0.5579660000000  0.4459940000000  0.4224200000000 1.0
C      1  0.4461230000000  0.4434260000000  0.4224720000000 1.0
C      1  0.4399270000000  0.5543980000000  0.4228650000000 1.0
C      1  0.4155780000000  0.4994450000000  0.5003420000000 1.0
C      1  0.5003590000000  0.4145800000000  0.4989840000000 1.0
C      1  0.5850050000000  0.4993330000000  0.4994900000000 1.0
C      1  0.5005450000000  0.5831840000000  0.4984320000000 1.0
C      1  0.5042990000000  0.5291360000000  0.3795550000000 1.0
C      1  0.4735520000000  0.5203030000000  0.6226180000000 1.0
END
