TITL C-91676-8477-5 132.045210112013 125000 -446.691333413429 0 0 63 (C1) n - 1
REM
REM in /rds/project/t2_vol4/rds-t2-cs072/BORA/CARBON/from-Arr/AIRSS/Generating-Clusters/GAP-ML-2020/Higher-Symm/SD-CG/HFTN-CG
REM
REM
REM
REM
REM
REM ./C.cell (b20cbc046b6831c77cfcea5457e17084)
REM AIRSS Version 0.9.1 bugfix July 2018 build 013d7b7c2542+ Fri, 06 Jul 2018 19:26:36 +0100
REM compiler GCC version 9.3.0
REM options -cpp -mtune=generic -march=x86-64 -g -O0
REM seed 197471912 -1762818500 798492609 -1442546703 -1972199518 796014742 -904804672 -1921964952 -473554946 -1873606187 -471755013 1849630478 -1283829720 -777042560 -1000165954 653577280 249753280 1595294320 -1812663046 -698952373 -1335803193 519024337 2045906752 1844154088 2024349726 -913490682 -741244208 1893916400 -1674830310 650155402 1502214155 1722511723 -1986959643
REM
CELL 1.54180   50.00000   50.00000   50.00000   90.00000   90.00000   90.00000
LATT -1
SFAC C  
C      1  0.5406930000000  0.4944410000000  0.4343680000000 1.0
C      1  0.5479750000000  0.5232260000000  0.4384450000000 1.0
C      1  0.5359390000000  0.5514530000000  0.4883690000000 1.0
C      1  0.5360170000000  0.5498400000000  0.5172510000000 1.0
C      1  0.5518920000000  0.5237510000000  0.5622820000000 1.0
C      1  0.5329700000000  0.4715820000000  0.5568430000000 1.0
C      1  0.5334790000000  0.4467250000000  0.5419450000000 1.0
C      1  0.5318510000000  0.4329570000000  0.4886070000000 1.0
C      1  0.5317870000000  0.4467270000000  0.4627110000000 1.0
C      1  0.4713000000000  0.4386550000000  0.4737270000000 1.0
C      1  0.4681210000000  0.4699850000000  0.4420490000000 1.0
C      1  0.4669330000000  0.5131430000000  0.4389130000000 1.0
C      1  0.4583400000000  0.5492500000000  0.4617830000000 1.0
C      1  0.4489270000000  0.5627550000000  0.5039270000000 1.0
C      1  0.4591300000000  0.5436770000000  0.5439750000000 1.0
C      1  0.4667860000000  0.5047670000000  0.5625040000000 1.0
C      1  0.4700140000000  0.4607630000000  0.5525490000000 1.0
C      1  0.4663750000000  0.4333190000000  0.5178350000000 1.0
C      1  0.5116130000000  0.5102100000000  0.4635130000000 1.0
C      1  0.5065770000000  0.5393870000000  0.4504130000000 1.0
C      1  0.5129980000000  0.5576130000000  0.4738000000000 1.0
C      1  0.5132630000000  0.5558420000000  0.5326200000000 1.0
C      1  0.5070740000000  0.5361640000000  0.5547530000000 1.0
C      1  0.5117940000000  0.5100570000000  0.5415900000000 1.0
C      1  0.4999580000000  0.5071380000000  0.5156250000000 1.0
C      1  0.4979920000000  0.4845470000000  0.5017410000000 1.0
C      1  0.4981460000000  0.5070370000000  0.4879030000000 1.0
C      1  0.4836290000000  0.4915040000000  0.4321540000000 1.0
C      1  0.4773380000000  0.5386290000000  0.4440910000000 1.0
C      1  0.4650670000000  0.5683250000000  0.4810280000000 1.0
C      1  0.4653240000000  0.5652020000000  0.5270180000000 1.0
C      1  0.4777850000000  0.5312030000000  0.5607590000000 1.0
C      1  0.4836950000000  0.4819270000000  0.5656910000000 1.0
C      1  0.4829760000000  0.4384710000000  0.5403760000000 1.0
C      1  0.4828610000000  0.4256640000000  0.4958620000000 1.0
C      1  0.4848510000000  0.4491690000000  0.4512530000000 1.0
C      1  0.4473610000000  0.4768390000000  0.4614630000000 1.0
C      1  0.4454960000000  0.5054140000000  0.4580660000000 1.0
C      1  0.4410460000000  0.5284100000000  0.4743590000000 1.0
C      1  0.4376850000000  0.5358590000000  0.5023850000000 1.0
C      1  0.4418980000000  0.5245410000000  0.5290390000000 1.0
C      1  0.4459630000000  0.4994090000000  0.5424150000000 1.0
C      1  0.4481090000000  0.4713450000000  0.5353090000000 1.0
C      1  0.4467810000000  0.4542610000000  0.5115690000000 1.0
C      1  0.4489940000000  0.4568360000000  0.4823050000000 1.0
C      1  0.5551180000000  0.4826340000000  0.5401050000000 1.0
C      1  0.5550760000000  0.4582170000000  0.5245880000000 1.0
C      1  0.5535120000000  0.4515020000000  0.4976350000000 1.0
C      1  0.5545430000000  0.4638280000000  0.4712310000000 1.0
C      1  0.5577160000000  0.4871300000000  0.4572940000000 1.0
C      1  0.5623300000000  0.5155790000000  0.4635440000000 1.0
C      1  0.5564160000000  0.5302930000000  0.4867930000000 1.0
C      1  0.5560120000000  0.5283190000000  0.5160560000000 1.0
C      1  0.5615490000000  0.5102120000000  0.5379340000000 1.0
C      1  0.4927360000000  0.5674120000000  0.5182410000000 1.0
C      1  0.5323460000000  0.5357300000000  0.5735280000000 1.0
C      1  0.5106800000000  0.4874180000000  0.5601250000000 1.0
C      1  0.5106900000000  0.4330330000000  0.5327760000000 1.0
C      1  0.5104310000000  0.4251280000000  0.5047720000000 1.0
C      1  0.5115320000000  0.4582820000000  0.4480320000000 1.0
C      1  0.5125180000000  0.4877680000000  0.4408840000000 1.0
C      1  0.5293240000000  0.5407990000000  0.4318440000000 1.0
C      1  0.4926670000000  0.5687000000000  0.4894370000000 1.0
END
