TITL C-91695-8920-1 0.0161546544899412 125000 -277.613470684047 0 0 42 (C1) n - 1
REM
REM in /rds/project/t2_vol4/rds-t2-cs072/BORA/CARBON/from-Arr/AIRSS/Generating-Clusters/GAP-ML-2020/Higher-Symm/SD-CG/HFTN-CG
REM
REM
REM
REM
REM
REM ./C.cell (b20cbc046b6831c77cfcea5457e17084)
REM AIRSS Version 0.9.1 bugfix July 2018 build 013d7b7c2542+ Fri, 06 Jul 2018 19:26:36 +0100
REM compiler GCC version 9.3.0
REM options -cpp -mtune=generic -march=x86-64 -g -O0
REM seed 965548594 -1642317978 1000848552 774525176 -1783218568 1633064636 -677273703 -360119 644493661 -300176053 1457868666 564776193 310519951 -2074189781 -356547281 1643093358 -133534231 -130900640 -22726827 983164305 756686225 942337491 -837452184 567327282 614389887 -847628742 318131815 301674834 1027576295 -563181765 1916298942 -1186047062 -1765797820
REM
CELL 1.54180   50.00000   50.00000   50.00000   90.00000   90.00000   90.00000
LATT -1
SFAC C  
C      1  0.5572550000000  0.4745050000000  0.4859130000000 1.0
C      1  0.5566940000000  0.5000810000000  0.5294980000000 1.0
C      1  0.5567070000000  0.5251720000000  0.4853500000000 1.0
C      1  0.5333250000000  0.4919180000000  0.4578770000000 1.0
C      1  0.5343820000000  0.4656230000000  0.5288970000000 1.0
C      1  0.5334060000000  0.5411240000000  0.5142130000000 1.0
C      1  0.4959160000000  0.5740410000000  0.4701810000000 1.0
C      1  0.4950980000000  0.4453870000000  0.4491120000000 1.0
C      1  0.4959530000000  0.4877770000000  0.5790710000000 1.0
C      1  0.4679910000000  0.4505110000000  0.5005470000000 1.0
C      1  0.4674690000000  0.5239510000000  0.5420090000000 1.0
C      1  0.4680600000000  0.5240790000000  0.4573070000000 1.0
C      1  0.5583870000000  0.4742950000000  0.5137550000000 1.0
C      1  0.5571650000000  0.5239470000000  0.5152190000000 1.0
C      1  0.5575780000000  0.5007660000000  0.4718120000000 1.0
C      1  0.4896280000000  0.4831290000000  0.5121970000000 1.0
C      1  0.4885240000000  0.5219480000000  0.5033550000000 1.0
C      1  0.4886350000000  0.4973210000000  0.4856880000000 1.0
C      1  0.4746170000000  0.4764650000000  0.5707420000000 1.0
C      1  0.4742730000000  0.5696270000000  0.4832110000000 1.0
C      1  0.4725790000000  0.4533320000000  0.4397070000000 1.0
C      1  0.5083130000000  0.5321030000000  0.5224410000000 1.0
C      1  0.5082140000000  0.5036360000000  0.4624190000000 1.0
C      1  0.5093670000000  0.4618090000000  0.5172170000000 1.0
C      1  0.4975740000000  0.5288920000000  0.4551200000000 1.0
C      1  0.4976140000000  0.4460110000000  0.4968860000000 1.0
C      1  0.4974220000000  0.5230630000000  0.5468060000000 1.0
C      1  0.4649130000000  0.4968320000000  0.4680260000000 1.0
C      1  0.4651440000000  0.4712550000000  0.5209750000000 1.0
C      1  0.4635350000000  0.5311430000000  0.5140870000000 1.0
C      1  0.5114520000000  0.5014270000000  0.5593600000000 1.0
C      1  0.5121200000000  0.5503810000000  0.4675030000000 1.0
C      1  0.5112730000000  0.4485800000000  0.4716820000000 1.0
C      1  0.4584770000000  0.4780500000000  0.5476490000000 1.0
C      1  0.4566650000000  0.5508050000000  0.4947320000000 1.0
C      1  0.4587520000000  0.4704650000000  0.4596680000000 1.0
C      1  0.4509100000000  0.5055130000000  0.5518740000000 1.0
C      1  0.4510010000000  0.5423140000000  0.4673630000000 1.0
C      1  0.4503340000000  0.4531890000000  0.4806420000000 1.0
C      1  0.5344870000000  0.4651960000000  0.4702430000000 1.0
C      1  0.5342980000000  0.4905250000000  0.5451080000000 1.0
C      1  0.5344930000000  0.5438130000000  0.4845430000000 1.0
END
