TITL C-91688-8373-11 -0.023831616290118 125000 -368.592642259253 0 0 55 (C5) n - 1
REM
REM in /rds/project/t2_vol4/rds-t2-cs072/BORA/CARBON/from-Arr/AIRSS/Generating-Clusters/GAP-ML-2020/Higher-Symm/SD-CG/HFTN-CG
REM
REM
REM
REM
REM
REM ./C.cell (b20cbc046b6831c77cfcea5457e17084)
REM AIRSS Version 0.9.1 bugfix July 2018 build 013d7b7c2542+ Fri, 06 Jul 2018 19:26:36 +0100
REM compiler GCC version 9.3.0
REM options -cpp -mtune=generic -march=x86-64 -g -O0
REM seed -204697980 -1157911936 -302112255 17307654 1720592227 -122630646 -1313425337 1765529845 732543381 1355146643 -996572400 -1934283096 -1748489875 -293496775 -483514536 2079534079 -597778781 -1338629737 -1601726273 -271822987 -365320764 -2017117081 1371495334 -185695710 1777977406 -2104946347 2044623500 -395304253 1267226353 1131168542 -85654670 204877368 1072253230
REM
CELL 1.54180   50.00000   50.00000   50.00000   90.00000   90.00000   90.00000
LATT -1
SFAC C  
C      1  0.5093680000000  0.5626190000000  0.4708100000000 1.0
C      1  0.4433420000000  0.5282620000000  0.4708110000000 1.0
C      1  0.4556130000000  0.4548500000000  0.4708060000000 1.0
C      1  0.5292240000000  0.4438360000000  0.4708020000000 1.0
C      1  0.5624470000000  0.5104400000000  0.4708050000000 1.0
C      1  0.4942140000000  0.5625900000000  0.5230400000000 1.0
C      1  0.5577410000000  0.5248440000000  0.5230350000000 1.0
C      1  0.5414730000000  0.4527630000000  0.5230320000000 1.0
C      1  0.4678930000000  0.4459600000000  0.5230350000000 1.0
C      1  0.4386850000000  0.5138370000000  0.5230400000000 1.0
C      1  0.4773780000000  0.4910660000000  0.4414510000000 1.0
C      1  0.5015080000000  0.4757300000000  0.4414490000000 1.0
C      1  0.5235500000000  0.4939390000000  0.4414490000000 1.0
C      1  0.5130430000000  0.5205290000000  0.4414510000000 1.0
C      1  0.4845080000000  0.5187530000000  0.4414520000000 1.0
C      1  0.5222700000000  0.4904190000000  0.5546850000000 1.0
C      1  0.4977750000000  0.4758590000000  0.5546850000000 1.0
C      1  0.4763580000000  0.4946570000000  0.5546870000000 1.0
C      1  0.4876170000000  0.5208340000000  0.5546880000000 1.0
C      1  0.5159930000000  0.5182150000000  0.5546870000000 1.0
C      1  0.5137910000000  0.5204830000000  0.4826820000000 1.0
C      1  0.4847820000000  0.5194460000000  0.4826830000000 1.0
C      1  0.4768030000000  0.4915370000000  0.4826820000000 1.0
C      1  0.5008810000000  0.4753250000000  0.4826800000000 1.0
C      1  0.5237400000000  0.4932140000000  0.4826800000000 1.0
C      1  0.4857040000000  0.5201570000000  0.5137670000000 1.0
C      1  0.5147550000000  0.5198250000000  0.5137660000000 1.0
C      1  0.5234150000000  0.4920940000000  0.5137640000000 1.0
C      1  0.4997180000000  0.4752880000000  0.5137640000000 1.0
C      1  0.4764110000000  0.4926320000000  0.5137660000000 1.0
C      1  0.4756760000000  0.5398110000000  0.5350740000000 1.0
C      1  0.4546200000000  0.4891650000000  0.5350720000000 1.0
C      1  0.4962800000000  0.4534900000000  0.5350680000000 1.0
C      1  0.5430830000000  0.4820870000000  0.5350670000000 1.0
C      1  0.5303490000000  0.5354360000000  0.5350710000000 1.0
C      1  0.5249640000000  0.5391360000000  0.4616160000000 1.0
C      1  0.5449320000000  0.4883520000000  0.4616120000000 1.0
C      1  0.5028030000000  0.4536680000000  0.4616120000000 1.0
C      1  0.4567990000000  0.4830160000000  0.4616160000000 1.0
C      1  0.4704950000000  0.5358390000000  0.4616190000000 1.0
C      1  0.4487980000000  0.4613330000000  0.5348020000000 1.0
C      1  0.5209510000000  0.4393520000000  0.5347970000000 1.0
C      1  0.5641530000000  0.5011810000000  0.5347990000000 1.0
C      1  0.5187000000000  0.5613750000000  0.5348050000000 1.0
C      1  0.4474060000000  0.5367470000000  0.5348060000000 1.0
C      1  0.5503480000000  0.4606850000000  0.4699590000000 1.0
C      1  0.4781650000000  0.4399670000000  0.4699610000000 1.0
C      1  0.4361550000000  0.5022150000000  0.4699660000000 1.0
C      1  0.4823750000000  0.5614050000000  0.4699680000000 1.0
C      1  0.5529500000000  0.5357370000000  0.4699630000000 1.0
C      1  0.5435240000000  0.4485220000000  0.4949330000000 1.0
C      1  0.5624080000000  0.5254870000000  0.4949370000000 1.0
C      1  0.4950460000000  0.5672300000000  0.4949420000000 1.0
C      1  0.4644910000000  0.4426980000000  0.4949360000000 1.0
C      1  0.4345300000000  0.5160640000000  0.4949420000000 1.0
END
