TITL C-91689-8588-8 0.0940810647609171 125000 -345.069144276439 0 0 52 (C1) n - 1
REM
REM in /rds/project/t2_vol4/rds-t2-cs072/BORA/CARBON/from-Arr/AIRSS/Generating-Clusters/GAP-ML-2020/Higher-Symm/SD-CG/HFTN-CG
REM
REM
REM
REM
REM
REM ./C.cell (b20cbc046b6831c77cfcea5457e17084)
REM AIRSS Version 0.9.1 bugfix July 2018 build 013d7b7c2542+ Fri, 06 Jul 2018 19:26:36 +0100
REM compiler GCC version 9.3.0
REM options -cpp -mtune=generic -march=x86-64 -g -O0
REM seed 248733460 880377551 547304500 -1365622099 1331457039 -276626486 -216091174 -1435574291 -1317494208 1936939626 1589545687 -1347233134 -668704654 1626003490 -1976391725 903652973 -1413619001 -158474192 -1512864274 168738680 -566197529 -1086425853 -1484327923 -983060046 -1807204577 1279476355 1230152710 1883843681 -615642473 798422373 1961203650 85753708 -1266790623
REM
CELL 1.54180   50.00000   50.00000   50.00000   90.00000   90.00000   90.00000
LATT -1
SFAC C  
C      1  0.5123400000000  0.5015680000000  0.5844980000000 1.0
C      1  0.5661330000000  0.5015830000000  0.4486120000000 1.0
C      1  0.4217650000000  0.4971530000000  0.4703870000000 1.0
C      1  0.4875210000000  0.4679530000000  0.4459170000000 1.0
C      1  0.4684240000000  0.4653150000000  0.5353820000000 1.0
C      1  0.5454230000000  0.4655230000000  0.5139360000000 1.0
C      1  0.4425850000000  0.5015800000000  0.5124570000000 1.0
C      1  0.5398020000000  0.5058440000000  0.5455690000000 1.0
C      1  0.5184200000000  0.5060530000000  0.4436980000000 1.0
C      1  0.4663610000000  0.4924060000000  0.5251270000000 1.0
C      1  0.5369320000000  0.4935170000000  0.5193260000000 1.0
C      1  0.4971770000000  0.4931200000000  0.4597060000000 1.0
C      1  0.4702070000000  0.4516600000000  0.4643850000000 1.0
C      1  0.4976280000000  0.4594020000000  0.5382190000000 1.0
C      1  0.5298330000000  0.4576340000000  0.4904640000000 1.0
C      1  0.5335950000000  0.4633530000000  0.4597910000000 1.0
C      1  0.4555450000000  0.4613760000000  0.4885260000000 1.0
C      1  0.5222480000000  0.4605910000000  0.5548230000000 1.0
C      1  0.5274980000000  0.5314800000000  0.5419220000000 1.0
C      1  0.5207260000000  0.5318060000000  0.4556580000000 1.0
C      1  0.4490240000000  0.5290990000000  0.5049690000000 1.0
C      1  0.4911030000000  0.5086490000000  0.5288960000000 1.0
C      1  0.5269670000000  0.5071860000000  0.4948490000000 1.0
C      1  0.4808880000000  0.5073920000000  0.4803750000000 1.0
C      1  0.4995090000000  0.5473690000000  0.4540550000000 1.0
C      1  0.4570950000000  0.5458710000000  0.5236120000000 1.0
C      1  0.5390760000000  0.5481380000000  0.5253370000000 1.0
C      1  0.4876180000000  0.5663960000000  0.4880150000000 1.0
C      1  0.4925330000000  0.5668770000000  0.5157210000000 1.0
C      1  0.5141770000000  0.5673710000000  0.4977000000000 1.0
C      1  0.4339920000000  0.5186480000000  0.4621160000000 1.0
C      1  0.4974380000000  0.5213230000000  0.5767690000000 1.0
C      1  0.5652840000000  0.5204900000000  0.4662880000000 1.0
C      1  0.5431670000000  0.4531310000000  0.5375350000000 1.0
C      1  0.5101380000000  0.4510020000000  0.4479770000000 1.0
C      1  0.4627940000000  0.4471460000000  0.5141270000000 1.0
C      1  0.4735090000000  0.4850900000000  0.4965180000000 1.0
C      1  0.5092150000000  0.4865980000000  0.5303180000000 1.0
C      1  0.5193290000000  0.4841130000000  0.4789310000000 1.0
C      1  0.4353850000000  0.4837340000000  0.4905820000000 1.0
C      1  0.5256750000000  0.4882800000000  0.5639320000000 1.0
C      1  0.5416380000000  0.4885810000000  0.4468580000000 1.0
C      1  0.4939400000000  0.4369430000000  0.4683670000000 1.0
C      1  0.4911030000000  0.4408350000000  0.5163600000000 1.0
C      1  0.5067100000000  0.4403910000000  0.4932730000000 1.0
C      1  0.4763120000000  0.5507840000000  0.4678360000000 1.0
C      1  0.4809380000000  0.5516080000000  0.5359160000000 1.0
C      1  0.5376770000000  0.5523010000000  0.4984450000000 1.0
C      1  0.4589120000000  0.5280650000000  0.4755800000000 1.0
C      1  0.4973910000000  0.5305210000000  0.5487530000000 1.0
C      1  0.5404370000000  0.5296990000000  0.4794460000000 1.0
C      1  0.4995320000000  0.5195310000000  0.5010200000000 1.0
END
