TITL C-91678-8334-3 -0.159640463767844 125000 -630.063528770635 0 0 93 (C1) n - 1
REM
REM in /rds/project/t2_vol4/rds-t2-cs072/BORA/CARBON/from-Arr/AIRSS/Generating-Clusters/GAP-ML-2020/Higher-Symm/SD-CG/HFTN-CG
REM
REM
REM
REM
REM
REM ./C.cell (b20cbc046b6831c77cfcea5457e17084)
REM AIRSS Version 0.9.1 bugfix July 2018 build 013d7b7c2542+ Fri, 06 Jul 2018 19:26:36 +0100
REM compiler GCC version 9.3.0
REM options -cpp -mtune=generic -march=x86-64 -g -O0
REM seed -933175087 916642115 1184579812 2011240074 -1635593740 1587221735 -952235302 -5418888 -85082245 1232502607 -1107928566 488699977 -68455392 501131553 1701368862 2034704493 1248038662 -885714167 1967368483 -1687058973 1789902239 1839753643 -2107196695 1617326658 1108857356 -902366962 1618778161 1224933327 949639891 -2005943959 -52370307 -1170577262 -997037341
REM
CELL 1.54180   50.00000   50.00000   50.00000   90.00000   90.00000   90.00000
LATT -1
SFAC C  
C      1  0.5679760000000  0.4851850000000  0.4837680000000 1.0
C      1  0.5503560000000  0.5354800000000  0.4425180000000 1.0
C      1  0.4961470000000  0.4587020000000  0.4114840000000 1.0
C      1  0.4628610000000  0.5148780000000  0.4382310000000 1.0
C      1  0.4268070000000  0.4774140000000  0.4740310000000 1.0
C      1  0.4190450000000  0.5289930000000  0.5270470000000 1.0
C      1  0.4582260000000  0.4885060000000  0.5578330000000 1.0
C      1  0.4924190000000  0.5128070000000  0.5692460000000 1.0
C      1  0.5381400000000  0.4625590000000  0.5686390000000 1.0
C      1  0.5667630000000  0.5126320000000  0.5234430000000 1.0
C      1  0.4854260000000  0.5720430000000  0.4673270000000 1.0
C      1  0.4726150000000  0.4305560000000  0.4851860000000 1.0
C      1  0.4812950000000  0.5890690000000  0.4898950000000 1.0
C      1  0.4746870000000  0.4130370000000  0.5079570000000 1.0
C      1  0.4944600000000  0.5704650000000  0.5301340000000 1.0
C      1  0.5076160000000  0.4126980000000  0.5334460000000 1.0
C      1  0.5155090000000  0.5872660000000  0.5205140000000 1.0
C      1  0.5331590000000  0.4305910000000  0.5001100000000 1.0
C      1  0.5276390000000  0.5828530000000  0.4818280000000 1.0
C      1  0.5147540000000  0.4136110000000  0.4863640000000 1.0
C      1  0.4259940000000  0.4737910000000  0.5206130000000 1.0
C      1  0.4433370000000  0.5367260000000  0.5429150000000 1.0
C      1  0.4826670000000  0.4697100000000  0.5636930000000 1.0
C      1  0.5361320000000  0.5204900000000  0.5653100000000 1.0
C      1  0.5675480000000  0.4622690000000  0.5343600000000 1.0
C      1  0.5640260000000  0.5280980000000  0.4975990000000 1.0
C      1  0.5483770000000  0.4794160000000  0.4450030000000 1.0
C      1  0.5097550000000  0.5350170000000  0.4233840000000 1.0
C      1  0.4796150000000  0.4674320000000  0.4347600000000 1.0
C      1  0.4271370000000  0.5279430000000  0.4715190000000 1.0
C      1  0.5588930000000  0.5355690000000  0.5675850000000 1.0
C      1  0.5927240000000  0.4632430000000  0.5223250000000 1.0
C      1  0.5842780000000  0.5368570000000  0.4772390000000 1.0
C      1  0.5436870000000  0.4628580000000  0.4242190000000 1.0
C      1  0.4915200000000  0.5373590000000  0.4024090000000 1.0
C      1  0.4501160000000  0.4604980000000  0.4331130000000 1.0
C      1  0.4118240000000  0.5484180000000  0.4829080000000 1.0
C      1  0.4165600000000  0.4597000000000  0.5428230000000 1.0
C      1  0.4477200000000  0.5345880000000  0.5707430000000 1.0
C      1  0.4947650000000  0.4612260000000  0.5893190000000 1.0
C      1  0.4488990000000  0.5567340000000  0.5180880000000 1.0
C      1  0.4699940000000  0.4498310000000  0.5430290000000 1.0
C      1  0.5101750000000  0.5320010000000  0.5612210000000 1.0
C      1  0.5482670000000  0.4449540000000  0.5471630000000 1.0
C      1  0.5482040000000  0.5487760000000  0.5164790000000 1.0
C      1  0.5527770000000  0.4669210000000  0.4702060000000 1.0
C      1  0.5282060000000  0.5528410000000  0.4373860000000 1.0
C      1  0.5013740000000  0.4488260000000  0.4510770000000 1.0
C      1  0.4515150000000  0.5319230000000  0.4571970000000 1.0
C      1  0.4376680000000  0.4635030000000  0.4957040000000 1.0
C      1  0.4715580000000  0.5275010000000  0.4154850000000 1.0
C      1  0.4308110000000  0.4677240000000  0.4478780000000 1.0
C      1  0.4212800000000  0.5505560000000  0.5082980000000 1.0
C      1  0.4432210000000  0.4635780000000  0.5478980000000 1.0
C      1  0.4647030000000  0.5132590000000  0.5749490000000 1.0
C      1  0.5200870000000  0.4570180000000  0.5894480000000 1.0
C      1  0.5605080000000  0.5352300000000  0.5405470000000 1.0
C      1  0.5872550000000  0.4771230000000  0.5008380000000 1.0
C      1  0.5760970000000  0.5404460000000  0.4532400000000 1.0
C      1  0.5188030000000  0.4512940000000  0.4255390000000 1.0
C      1  0.4836470000000  0.4949970000000  0.4491940000000 1.0
C      1  0.4246750000000  0.5031940000000  0.4856630000000 1.0
C      1  0.4290600000000  0.5034590000000  0.5150160000000 1.0
C      1  0.4560030000000  0.5092450000000  0.5327390000000 1.0
C      1  0.5030480000000  0.4896730000000  0.5526120000000 1.0
C      1  0.5338690000000  0.4909070000000  0.5570890000000 1.0
C      1  0.5505380000000  0.4874890000000  0.5312970000000 1.0
C      1  0.5457520000000  0.5094540000000  0.4820010000000 1.0
C      1  0.5392500000000  0.5081190000000  0.4513120000000 1.0
C      1  0.5087290000000  0.5140220000000  0.4459910000000 1.0
C      1  0.4803040000000  0.4622890000000  0.5186310000000 1.0
C      1  0.4789550000000  0.5207100000000  0.5173370000000 1.0
C      1  0.5018870000000  0.4816720000000  0.5221240000000 1.0
C      1  0.5222490000000  0.5355970000000  0.5153430000000 1.0
C      1  0.5290380000000  0.4758020000000  0.5143830000000 1.0
C      1  0.5167360000000  0.5193820000000  0.4923360000000 1.0
C      1  0.5080830000000  0.4644850000000  0.4735990000000 1.0
C      1  0.5035980000000  0.5337010000000  0.4688100000000 1.0
C      1  0.4855050000000  0.4829540000000  0.4784550000000 1.0
C      1  0.4664020000000  0.5409290000000  0.5010300000000 1.0
C      1  0.4709340000000  0.5760030000000  0.5146870000000 1.0
C      1  0.4791270000000  0.4228130000000  0.5354590000000 1.0
C      1  0.5005040000000  0.5407690000000  0.5340960000000 1.0
C      1  0.5332660000000  0.4262480000000  0.5296630000000 1.0
C      1  0.5397840000000  0.5759050000000  0.5087270000000 1.0
C      1  0.5320320000000  0.4588370000000  0.4901230000000 1.0
C      1  0.5141520000000  0.5648210000000  0.4617480000000 1.0
C      1  0.4954000000000  0.4265660000000  0.4682610000000 1.0
C      1  0.4740330000000  0.5440400000000  0.4721440000000 1.0
C      1  0.4668530000000  0.4598160000000  0.4923240000000 1.0
C      1  0.5068930000000  0.5984050000000  0.4957250000000 1.0
C      1  0.5004060000000  0.4011420000000  0.5071800000000 1.0
C      1  0.4944790000000  0.5013310000000  0.5013620000000 1.0
END
