TITL C-91692-8885-2 -0.14490241275964 125000 -703.664754194553 0 0 99 (C1) n - 1
REM
REM in /rds/project/t2_vol4/rds-t2-cs072/BORA/CARBON/from-Arr/AIRSS/Generating-Clusters/GAP-ML-2020/Higher-Symm/SD-CG/HFTN-CG
REM
REM
REM
REM
REM
REM ./C.cell (b20cbc046b6831c77cfcea5457e17084)
REM AIRSS Version 0.9.1 bugfix July 2018 build 013d7b7c2542+ Fri, 06 Jul 2018 19:26:36 +0100
REM compiler GCC version 9.3.0
REM options -cpp -mtune=generic -march=x86-64 -g -O0
REM seed 1910700620 1857796372 1594999001 830036425 -1914753481 131905261 -2146970369 659302580 -2091480811 648492174 -1237435893 -1797400464 1669311357 2090393899 1745830734 1372936921 418573522 152596145 -1582565815 1208801348 127826911 -1458655378 -964800020 1985251746 1463241400 -756450538 322695461 2030866902 1419644228 616628952 1864169214 -2145696173 1764930360
REM
CELL 1.54180   50.00000   50.00000   50.00000   90.00000   90.00000   90.00000
LATT -1
SFAC C  
C      1  0.5751830000000  0.4482750000000  0.5008790000000 1.0
C      1  0.5077920000000  0.5885570000000  0.5040830000000 1.0
C      1  0.4193900000000  0.4625790000000  0.5080900000000 1.0
C      1  0.4651060000000  0.4310870000000  0.4715970000000 1.0
C      1  0.5762460000000  0.5051780000000  0.4664240000000 1.0
C      1  0.4555250000000  0.5647790000000  0.4706640000000 1.0
C      1  0.5753430000000  0.5352090000000  0.5058700000000 1.0
C      1  0.4312590000000  0.5462930000000  0.5100310000000 1.0
C      1  0.4954540000000  0.4193370000000  0.5094350000000 1.0
C      1  0.5919590000000  0.4824260000000  0.4722890000000 1.0
C      1  0.4679920000000  0.5892200000000  0.4776270000000 1.0
C      1  0.4383110000000  0.4292100000000  0.4801030000000 1.0
C      1  0.5953540000000  0.4653060000000  0.4510140000000 1.0
C      1  0.4800930000000  0.6020490000000  0.4566240000000 1.0
C      1  0.4198820000000  0.4333650000000  0.4601770000000 1.0
C      1  0.5542140000000  0.5534030000000  0.5098980000000 1.0
C      1  0.4255780000000  0.5187920000000  0.5129240000000 1.0
C      1  0.5223160000000  0.4275270000000  0.5104840000000 1.0
C      1  0.5336290000000  0.5489650000000  0.4908420000000 1.0
C      1  0.4406960000000  0.5044730000000  0.4936990000000 1.0
C      1  0.5262960000000  0.4477410000000  0.4909730000000 1.0
C      1  0.4856020000000  0.4778930000000  0.4819310000000 1.0
C      1  0.5259580000000  0.5002600000000  0.4818800000000 1.0
C      1  0.4861120000000  0.5244430000000  0.4840540000000 1.0
C      1  0.5554650000000  0.4759770000000  0.5635800000000 1.0
C      1  0.4958280000000  0.5503990000000  0.5613280000000 1.0
C      1  0.4590190000000  0.4709590000000  0.5674360000000 1.0
C      1  0.4770960000000  0.5137090000000  0.5808070000000 1.0
C      1  0.5078520000000  0.4779330000000  0.5776790000000 1.0
C      1  0.5044190000000  0.5063740000000  0.5775880000000 1.0
C      1  0.4432180000000  0.4596350000000  0.5470900000000 1.0
C      1  0.5710280000000  0.4684980000000  0.5413250000000 1.0
C      1  0.4942200000000  0.5713370000000  0.5435120000000 1.0
C      1  0.4126550000000  0.4731930000000  0.4827620000000 1.0
C      1  0.5664440000000  0.4385480000000  0.4759270000000 1.0
C      1  0.5189990000000  0.5889690000000  0.4781460000000 1.0
C      1  0.5418730000000  0.5404820000000  0.5520950000000 1.0
C      1  0.4374820000000  0.5146820000000  0.5578140000000 1.0
C      1  0.5231270000000  0.4402820000000  0.5551240000000 1.0
C      1  0.5137910000000  0.5248170000000  0.4949510000000 1.0
C      1  0.4712460000000  0.5005590000000  0.4949610000000 1.0
C      1  0.5136450000000  0.4759130000000  0.4933220000000 1.0
C      1  0.5646770000000  0.5455480000000  0.4565630000000 1.0
C      1  0.4262570000000  0.5345950000000  0.4607130000000 1.0
C      1  0.5048240000000  0.4208030000000  0.4589240000000 1.0
C      1  0.5892430000000  0.4728240000000  0.4996400000000 1.0
C      1  0.4794320000000  0.5887470000000  0.5044240000000 1.0
C      1  0.4346430000000  0.4388490000000  0.5072360000000 1.0
C      1  0.4330670000000  0.5532900000000  0.4818390000000 1.0
C      1  0.4868720000000  0.4174300000000  0.4815720000000 1.0
C      1  0.5784950000000  0.5304660000000  0.4771830000000 1.0
C      1  0.5005970000000  0.5840250000000  0.4564100000000 1.0
C      1  0.4248510000000  0.4602450000000  0.4599870000000 1.0
C      1  0.5696240000000  0.4563710000000  0.4533850000000 1.0
C      1  0.4480010000000  0.5568660000000  0.5311290000000 1.0
C      1  0.4796400000000  0.4291710000000  0.5317620000000 1.0
C      1  0.5792520000000  0.5157230000000  0.5269440000000 1.0
C      1  0.5637010000000  0.5221550000000  0.5507080000000 1.0
C      1  0.4487090000000  0.5408730000000  0.5551130000000 1.0
C      1  0.4944430000000  0.4394510000000  0.5542050000000 1.0
C      1  0.5151460000000  0.5277650000000  0.5557640000000 1.0
C      1  0.4548050000000  0.4981330000000  0.5735300000000 1.0
C      1  0.5310340000000  0.4630940000000  0.5699870000000 1.0
C      1  0.4045270000000  0.5178300000000  0.4608490000000 1.0
C      1  0.5298910000000  0.4099590000000  0.4571180000000 1.0
C      1  0.5617060000000  0.5728000000000  0.4566260000000 1.0
C      1  0.4704910000000  0.5744860000000  0.5274680000000 1.0
C      1  0.4528150000000  0.4391140000000  0.5295350000000 1.0
C      1  0.5836100000000  0.4875390000000  0.5235950000000 1.0
C      1  0.5463280000000  0.4722240000000  0.4452210000000 1.0
C      1  0.4980320000000  0.5563320000000  0.4468660000000 1.0
C      1  0.4493780000000  0.4721670000000  0.4489510000000 1.0
C      1  0.5079920000000  0.4850270000000  0.5215640000000 1.0
C      1  0.5087160000000  0.5142530000000  0.5248560000000 1.0
C      1  0.4833240000000  0.4990100000000  0.5224620000000 1.0
C      1  0.5176930000000  0.5774850000000  0.5287580000000 1.0
C      1  0.4237830000000  0.4753260000000  0.5331300000000 1.0
C      1  0.5634730000000  0.4453530000000  0.5269070000000 1.0
C      1  0.4547670000000  0.4983360000000  0.4391440000000 1.0
C      1  0.5205580000000  0.4640080000000  0.4367070000000 1.0
C      1  0.5176960000000  0.5383890000000  0.4367030000000 1.0
C      1  0.5413280000000  0.5734010000000  0.4747550000000 1.0
C      1  0.4145610000000  0.5005720000000  0.4797220000000 1.0
C      1  0.5412940000000  0.4273030000000  0.4750340000000 1.0
C      1  0.5478260000000  0.5010180000000  0.4574460000000 1.0
C      1  0.4733160000000  0.5427900000000  0.4602070000000 1.0
C      1  0.4743140000000  0.4571910000000  0.4599150000000 1.0
C      1  0.4852490000000  0.4611330000000  0.5704970000000 1.0
C      1  0.5563290000000  0.5023930000000  0.5673240000000 1.0
C      1  0.4721820000000  0.5399590000000  0.5707970000000 1.0
C      1  0.5041520000000  0.5147570000000  0.4270030000000 1.0
C      1  0.4812950000000  0.4989450000000  0.4277910000000 1.0
C      1  0.5063710000000  0.4870930000000  0.4268490000000 1.0
C      1  0.4996510000000  0.4463920000000  0.4464130000000 1.0
C      1  0.5438880000000  0.5288290000000  0.4448340000000 1.0
C      1  0.4506170000000  0.5256050000000  0.4480460000000 1.0
C      1  0.4229420000000  0.5035780000000  0.5365820000000 1.0
C      1  0.5385730000000  0.4323750000000  0.5327520000000 1.0
C      1  0.5413230000000  0.5619710000000  0.5335170000000 1.0
END
