TITL C-91669-8497-6 -267.797127575988 125000 -497.748743040568 0 0 72 (C1) n - 1
REM
REM in /rds/project/t2_vol4/rds-t2-cs072/BORA/CARBON/from-Arr/AIRSS/Generating-Clusters/GAP-ML-2020/Higher-Symm/SD-CG/HFTN-CG
REM
REM
REM
REM
REM
REM ./C.cell (b20cbc046b6831c77cfcea5457e17084)
REM AIRSS Version 0.9.1 bugfix July 2018 build 013d7b7c2542+ Fri, 06 Jul 2018 19:26:36 +0100
REM compiler GCC version 9.3.0
REM options -cpp -mtune=generic -march=x86-64 -g -O0
REM seed 1480458415 -1392694260 1608938241 -834516106 441964498 1924923951 1708865611 -994493435 1817997075 -1192518328 -403431794 -1140360582 2087632275 1713109122 1886700817 -620695713 -1461478865 -1061114638 188882139 -337461605 -861917361 615304791 -1012460243 -1836108720 -1015949876 1624214693 1742783294 -1079349676 -494323498 1099579755 -23206157 -391906516 -1791613637
REM
CELL 1.54180   50.00000   50.00000   50.00000   90.00000   90.00000   90.00000
LATT -1
SFAC C  
C      1  0.4406720000000  0.4773030000000  0.4467260000000 1.0
C      1  0.5522220000000  0.4630990000000  0.4556630000000 1.0
C      1  0.5098490000000  0.5694810000000  0.4495200000000 1.0
C      1  0.4367900000000  0.5038630000000  0.5604360000000 1.0
C      1  0.5250740000000  0.4391090000000  0.5572470000000 1.0
C      1  0.5289160000000  0.5213920000000  0.5623070000000 1.0
C      1  0.4931500000000  0.5423840000000  0.5117050000000 1.0
C      1  0.4599440000000  0.4799360000000  0.5146200000000 1.0
C      1  0.5187730000000  0.4956410000000  0.5040010000000 1.0
C      1  0.5033090000000  0.5076750000000  0.5663040000000 1.0
C      1  0.5036910000000  0.4793900000000  0.5680250000000 1.0
C      1  0.5288970000000  0.4659460000000  0.5668580000000 1.0
C      1  0.4827200000000  0.4319620000000  0.4859230000000 1.0
C      1  0.5686700000000  0.5245370000000  0.4873230000000 1.0
C      1  0.4463050000000  0.5541800000000  0.4801380000000 1.0
C      1  0.4677930000000  0.5191030000000  0.4490100000000 1.0
C      1  0.5036650000000  0.4673820000000  0.4554870000000 1.0
C      1  0.5319290000000  0.5266330000000  0.4514530000000 1.0
C      1  0.5706460000000  0.5202140000000  0.5358710000000 1.0
C      1  0.4445070000000  0.5484080000000  0.5309370000000 1.0
C      1  0.4854570000000  0.4161040000000  0.5389760000000 1.0
C      1  0.5295460000000  0.4741710000000  0.4425190000000 1.0
C      1  0.5131020000000  0.5443710000000  0.4368700000000 1.0
C      1  0.4620490000000  0.4926680000000  0.4364650000000 1.0
C      1  0.5499240000000  0.4785540000000  0.5525700000000 1.0
C      1  0.4823850000000  0.5247040000000  0.5544700000000 1.0
C      1  0.4857600000000  0.4610930000000  0.5521940000000 1.0
C      1  0.5443730000000  0.5638560000000  0.4825450000000 1.0
C      1  0.4270430000000  0.5114730000000  0.4775670000000 1.0
C      1  0.5283730000000  0.4355460000000  0.4856720000000 1.0
C      1  0.4831590000000  0.5409210000000  0.4360990000000 1.0
C      1  0.4790460000000  0.4685630000000  0.4395060000000 1.0
C      1  0.5422330000000  0.5010240000000  0.4423990000000 1.0
C      1  0.4933980000000  0.4276230000000  0.5138310000000 1.0
C      1  0.5695810000000  0.5366200000000  0.5135210000000 1.0
C      1  0.4344100000000  0.5486770000000  0.5058840000000 1.0
C      1  0.4854710000000  0.5131810000000  0.4751860000000 1.0
C      1  0.4991010000000  0.4883920000000  0.4814060000000 1.0
C      1  0.5119020000000  0.5248990000000  0.4749460000000 1.0
C      1  0.4919610000000  0.4807000000000  0.5087250000000 1.0
C      1  0.5187210000000  0.5268920000000  0.5035290000000 1.0
C      1  0.4736870000000  0.5235560000000  0.5000600000000 1.0
C      1  0.4590240000000  0.4452780000000  0.4772330000000 1.0
C      1  0.5666440000000  0.4966610000000  0.4842970000000 1.0
C      1  0.4708120000000  0.5674910000000  0.4749870000000 1.0
C      1  0.5479680000000  0.4783350000000  0.5019180000000 1.0
C      1  0.4939510000000  0.5665200000000  0.4920980000000 1.0
C      1  0.4463420000000  0.4675220000000  0.4910390000000 1.0
C      1  0.5391750000000  0.4379100000000  0.5326550000000 1.0
C      1  0.5235650000000  0.5446540000000  0.5473030000000 1.0
C      1  0.4388590000000  0.4783640000000  0.5605370000000 1.0
C      1  0.5049490000000  0.4395870000000  0.4704120000000 1.0
C      1  0.5537280000000  0.5411480000000  0.4689810000000 1.0
C      1  0.4423630000000  0.5306340000000  0.4633400000000 1.0
C      1  0.5535560000000  0.5073030000000  0.5534320000000 1.0
C      1  0.4542640000000  0.5223290000000  0.5438640000000 1.0
C      1  0.4968960000000  0.4322450000000  0.5580930000000 1.0
C      1  0.4528680000000  0.5091600000000  0.5161690000000 1.0
C      1  0.4985510000000  0.4588390000000  0.5241970000000 1.0
C      1  0.5348290000000  0.5485030000000  0.5219020000000 1.0
C      1  0.5548890000000  0.5620540000000  0.5093520000000 1.0
C      1  0.4280220000000  0.5201210000000  0.5039710000000 1.0
C      1  0.5234930000000  0.4267360000000  0.5111780000000 1.0
C      1  0.4588300000000  0.4679600000000  0.5426930000000 1.0
C      1  0.5527660000000  0.4635860000000  0.5284250000000 1.0
C      1  0.4958600000000  0.5446490000000  0.5411760000000 1.0
C      1  0.4577910000000  0.4530760000000  0.4500050000000 1.0
C      1  0.5641340000000  0.4898090000000  0.4571580000000 1.0
C      1  0.4801900000000  0.5666400000000  0.4483450000000 1.0
C      1  0.4316690000000  0.4841890000000  0.4725850000000 1.0
C      1  0.5478880000000  0.4547860000000  0.4816690000000 1.0
C      1  0.5179170000000  0.5726830000000  0.4764930000000 1.0
END
