TITL C-91688-8373-1 -158.755461215129 125000 -321.266446328841 0 0 49 (Cs) n - 1
REM
REM in /rds/project/t2_vol4/rds-t2-cs072/BORA/CARBON/from-Arr/AIRSS/Generating-Clusters/GAP-ML-2020/Higher-Symm/SD-CG/HFTN-CG
REM
REM
REM
REM
REM
REM ./C.cell (b20cbc046b6831c77cfcea5457e17084)
REM AIRSS Version 0.9.1 bugfix July 2018 build 013d7b7c2542+ Fri, 06 Jul 2018 19:26:36 +0100
REM compiler GCC version 9.3.0
REM options -cpp -mtune=generic -march=x86-64 -g -O0
REM seed -1920882985 -1879610157 1124950093 1254361769 -885095667 367581227 -187046273 1297024914 746879504 -2129043865 -1826098325 2014473009 -887216844 1321538783 1364051241 445611324 -57762059 1654604669 1454325771 234002440 64587054 1685106547 1127388258 528812303 688847319 -1332933070 901863536 -2127614265 -1772402587 611136680 -1976152026 -274813322 536352021
REM
CELL 1.54180   50.00000   50.00000   50.00000   90.00000   90.00000   90.00000
LATT -1
SFAC C  
C      1  0.4875350000000  0.4882500000000  0.4426750000000 1.0
C      1  0.5166850000000  0.5176350000000  0.4387350000000 1.0
C      1  0.5167860000000  0.4883610000000  0.4432600000000 1.0
C      1  0.4875960000000  0.5175250000000  0.4381530000000 1.0
C      1  0.5154750000000  0.4402450000000  0.5396550000000 1.0
C      1  0.4844530000000  0.5590120000000  0.5368420000000 1.0
C      1  0.4853560000000  0.4401320000000  0.5390520000000 1.0
C      1  0.5155670000000  0.5591300000000  0.5374650000000 1.0
C      1  0.4647340000000  0.5328510000000  0.4483320000000 1.0
C      1  0.5393200000000  0.4745230000000  0.4562660000000 1.0
C      1  0.5390050000000  0.5331320000000  0.4498170000000 1.0
C      1  0.4646050000000  0.4742400000000  0.4547720000000 1.0
C      1  0.5148450000000  0.5345420000000  0.5542660000000 1.0
C      1  0.4851930000000  0.4634480000000  0.5585500000000 1.0
C      1  0.4846880000000  0.5344280000000  0.5536620000000 1.0
C      1  0.5146820000000  0.4635590000000  0.5591400000000 1.0
C      1  0.4409480000000  0.4903530000000  0.4504990000000 1.0
C      1  0.5616650000000  0.5160060000000  0.4486610000000 1.0
C      1  0.5630060000000  0.4908150000000  0.4529400000000 1.0
C      1  0.4422680000000  0.5155550000000  0.4462730000000 1.0
C      1  0.4526600000000  0.5105100000000  0.5244820000000 1.0
C      1  0.5465600000000  0.4822510000000  0.5303910000000 1.0
C      1  0.5481940000000  0.5108710000000  0.5263930000000 1.0
C      1  0.4543500000000  0.4819020000000  0.5285470000000 1.0
C      1  0.4870610000000  0.5278450000000  0.4899010000000 1.0
C      1  0.5148750000000  0.4646900000000  0.4901800000000 1.0
C      1  0.5150740000000  0.5279520000000  0.4904620000000 1.0
C      1  0.4877480000000  0.4645870000000  0.4896370000000 1.0
C      1  0.5311990000000  0.5471960000000  0.4742670000000 1.0
C      1  0.4688990000000  0.4518250000000  0.4727990000000 1.0
C      1  0.4714510000000  0.5469690000000  0.4730720000000 1.0
C      1  0.5344780000000  0.4520730000000  0.4741100000000 1.0
C      1  0.5237660000000  0.4830620000000  0.5101450000000 1.0
C      1  0.4686430000000  0.5095870000000  0.5006830000000 1.0
C      1  0.4779270000000  0.4828890000000  0.5092280000000 1.0
C      1  0.5331830000000  0.5098310000000  0.5019740000000 1.0
C      1  0.4683490000000  0.4310360000000  0.5190390000000 1.0
C      1  0.5304040000000  0.5673050000000  0.5165180000000 1.0
C      1  0.5333360000000  0.4312820000000  0.5203380000000 1.0
C      1  0.4704050000000  0.5670780000000  0.5153170000000 1.0
C      1  0.5337540000000  0.5136320000000  0.5513150000000 1.0
C      1  0.4656740000000  0.4841710000000  0.5548840000000 1.0
C      1  0.4660710000000  0.5133770000000  0.5499610000000 1.0
C      1  0.5341750000000  0.4844300000000  0.5562540000000 1.0
C      1  0.5376860000000  0.5680650000000  0.4913210000000 1.0
C      1  0.4621510000000  0.4348370000000  0.4937160000000 1.0
C      1  0.4641300000000  0.5677870000000  0.4898490000000 1.0
C      1  0.5405130000000  0.4351340000000  0.4952830000000 1.0
C      1  0.5005250000000  0.4896690000000  0.5245390000000 1.0
END
