TITL C-91669-8497-5 -0.156574446883424 125000 -919.001451789278 0 0 135 (C1) n - 1
REM
REM in /rds/project/t2_vol4/rds-t2-cs072/BORA/CARBON/from-Arr/AIRSS/Generating-Clusters/GAP-ML-2020/Higher-Symm/SD-CG/HFTN-CG
REM
REM
REM
REM
REM
REM ./C.cell (b20cbc046b6831c77cfcea5457e17084)
REM AIRSS Version 0.9.1 bugfix July 2018 build 013d7b7c2542+ Fri, 06 Jul 2018 19:26:36 +0100
REM compiler GCC version 9.3.0
REM options -cpp -mtune=generic -march=x86-64 -g -O0
REM seed 51465857 977887463 -1331957306 -1368419090 -1615720014 -676365532 507973453 808331127 76387847 1201086573 263641106 -627275928 288981149 -136550832 -939286234 -2132101091 -1088560724 1020473147 -1840294349 331112832 1112043304 1188890207 -1782020824 -1290569119 -1405549809 148693172 1422095213 -1657415456 1401075571 -2133118776 316096185 282391894 2016060915
REM
CELL 1.54180   50.00000   50.00000   50.00000   90.00000   90.00000   90.00000
LATT -1
SFAC C  
C      1  0.4187960000000  0.5186020000000  0.5689510000000 1.0
C      1  0.4181040000000  0.5673930000000  0.5365050000000 1.0
C      1  0.4130800000000  0.5658720000000  0.4782330000000 1.0
C      1  0.4107640000000  0.5086710000000  0.4384120000000 1.0
C      1  0.4165860000000  0.4531990000000  0.4455230000000 1.0
C      1  0.4190670000000  0.4253690000000  0.4956520000000 1.0
C      1  0.4185700000000  0.4509050000000  0.5486400000000 1.0
C      1  0.5353060000000  0.5394740000000  0.5700110000000 1.0
C      1  0.5321930000000  0.5810710000000  0.5118190000000 1.0
C      1  0.5276830000000  0.5601440000000  0.4440560000000 1.0
C      1  0.5258470000000  0.4974760000000  0.4133220000000 1.0
C      1  0.5362050000000  0.4356450000000  0.4498460000000 1.0
C      1  0.5350550000000  0.4225210000000  0.5202320000000 1.0
C      1  0.5335030000000  0.4685000000000  0.5738800000000 1.0
C      1  0.4639760000000  0.5778320000000  0.5454970000000 1.0
C      1  0.4575090000000  0.5822320000000  0.4698430000000 1.0
C      1  0.4529190000000  0.5236460000000  0.4203540000000 1.0
C      1  0.4608040000000  0.4488370000000  0.4282080000000 1.0
C      1  0.4647590000000  0.4106940000000  0.4917270000000 1.0
C      1  0.4625050000000  0.4403140000000  0.5629310000000 1.0
C      1  0.4629640000000  0.5129880000000  0.5856450000000 1.0
C      1  0.5598950000000  0.4702400000000  0.4855290000000 1.0
C      1  0.5575420000000  0.4740710000000  0.5147570000000 1.0
C      1  0.5573520000000  0.4990660000000  0.5298910000000 1.0
C      1  0.5596960000000  0.5270880000000  0.5191810000000 1.0
C      1  0.5606050000000  0.5373520000000  0.4897910000000 1.0
C      1  0.5741530000000  0.5195560000000  0.4688600000000 1.0
C      1  0.5588590000000  0.4929090000000  0.4647080000000 1.0
C      1  0.6061600000000  0.5244390000000  0.5065570000000 1.0
C      1  0.6002420000000  0.5106880000000  0.4828470000000 1.0
C      1  0.6082270000000  0.4833430000000  0.4821880000000 1.0
C      1  0.5990040000000  0.4615170000000  0.4947960000000 1.0
C      1  0.5949550000000  0.4665480000000  0.5247450000000 1.0
C      1  0.5950940000000  0.4926830000000  0.5409770000000 1.0
C      1  0.5987770000000  0.5215120000000  0.5323550000000 1.0
C      1  0.5260750000000  0.4726320000000  0.5142320000000 1.0
C      1  0.5259700000000  0.4970370000000  0.5302960000000 1.0
C      1  0.5278410000000  0.5250980000000  0.5214230000000 1.0
C      1  0.5271450000000  0.5341760000000  0.4933980000000 1.0
C      1  0.5123770000000  0.5167670000000  0.4744610000000 1.0
C      1  0.5272480000000  0.4924010000000  0.4659650000000 1.0
C      1  0.5276980000000  0.4699640000000  0.4851450000000 1.0
C      1  0.4859320000000  0.4873160000000  0.4377010000000 1.0
C      1  0.4900710000000  0.4438270000000  0.4703390000000 1.0
C      1  0.4892150000000  0.4428370000000  0.5248390000000 1.0
C      1  0.4885290000000  0.4847440000000  0.5593530000000 1.0
C      1  0.4897320000000  0.5383800000000  0.5492820000000 1.0
C      1  0.4869420000000  0.5632990000000  0.5007630000000 1.0
C      1  0.4813370000000  0.5425790000000  0.4503850000000 1.0
C      1  0.4736220000000  0.5115700000000  0.5556130000000 1.0
C      1  0.4738490000000  0.5526370000000  0.5269010000000 1.0
C      1  0.4685820000000  0.5539490000000  0.4764550000000 1.0
C      1  0.4693450000000  0.5142120000000  0.4444510000000 1.0
C      1  0.4724350000000  0.4641450000000  0.4534690000000 1.0
C      1  0.4751770000000  0.4411480000000  0.4976230000000 1.0
C      1  0.4731750000000  0.4630580000000  0.5430750000000 1.0
C      1  0.5105900000000  0.4587970000000  0.5907540000000 1.0
C      1  0.5124510000000  0.5466160000000  0.5886870000000 1.0
C      1  0.5093190000000  0.5989960000000  0.5190810000000 1.0
C      1  0.5039740000000  0.5761250000000  0.4327000000000 1.0
C      1  0.5012630000000  0.4979220000000  0.3960510000000 1.0
C      1  0.5131520000000  0.4201530000000  0.4376470000000 1.0
C      1  0.5122890000000  0.4032240000000  0.5229450000000 1.0
C      1  0.4260410000000  0.5195460000000  0.4207150000000 1.0
C      1  0.4339840000000  0.4444060000000  0.4284410000000 1.0
C      1  0.4378960000000  0.4072790000000  0.4944630000000 1.0
C      1  0.4356530000000  0.4411060000000  0.5657170000000 1.0
C      1  0.4364130000000  0.5163570000000  0.5879100000000 1.0
C      1  0.4372200000000  0.5824230000000  0.5455470000000 1.0
C      1  0.4302290000000  0.5821030000000  0.4683380000000 1.0
C      1  0.4164730000000  0.5388590000000  0.4920340000000 1.0
C      1  0.4067970000000  0.4978430000000  0.4642930000000 1.0
C      1  0.4206300000000  0.4704400000000  0.4694010000000 1.0
C      1  0.4221870000000  0.4540880000000  0.4973630000000 1.0
C      1  0.4222940000000  0.4650230000000  0.5255460000000 1.0
C      1  0.4230250000000  0.5182650000000  0.5419090000000 1.0
C      1  0.4221770000000  0.5415430000000  0.5237040000000 1.0
C      1  0.4861920000000  0.5036600000000  0.6003800000000 1.0
C      1  0.4873640000000  0.5821720000000  0.5614100000000 1.0
C      1  0.4809500000000  0.5988410000000  0.4741870000000 1.0
C      1  0.4736780000000  0.5402310000000  0.4075290000000 1.0
C      1  0.4831690000000  0.4518020000000  0.4102310000000 1.0
C      1  0.4878370000000  0.3996670000000  0.4785820000000 1.0
C      1  0.4854810000000  0.4223650000000  0.5642490000000 1.0
C      1  0.5082750000000  0.4413950000000  0.4191060000000 1.0
C      1  0.5110850000000  0.4007780000000  0.4947600000000 1.0
C      1  0.5086090000000  0.4353540000000  0.5746070000000 1.0
C      1  0.5098750000000  0.5194050000000  0.5967190000000 1.0
C      1  0.5101020000000  0.5894540000000  0.5457440000000 1.0
C      1  0.5028060000000  0.5910380000000  0.4571600000000 1.0
C      1  0.4971820000000  0.5253980000000  0.4023670000000 1.0
C      1  0.5316450000000  0.4433210000000  0.5572970000000 1.0
C      1  0.5322690000000  0.5105720000000  0.5794550000000 1.0
C      1  0.5334900000000  0.5707230000000  0.5408510000000 1.0
C      1  0.5268910000000  0.5778850000000  0.4688490000000 1.0
C      1  0.5208410000000  0.5260680000000  0.4202580000000 1.0
C      1  0.5309710000000  0.4580660000000  0.4289120000000 1.0
C      1  0.5341500000000  0.4197180000000  0.4897820000000 1.0
C      1  0.5665770000000  0.5242350000000  0.4390180000000 1.0
C      1  0.5639820000000  0.4952580000000  0.4348500000000 1.0
C      1  0.5749620000000  0.4455130000000  0.4807220000000 1.0
C      1  0.5710470000000  0.4520850000000  0.5311520000000 1.0
C      1  0.5710200000000  0.4947170000000  0.5569360000000 1.0
C      1  0.5747210000000  0.5413060000000  0.5401890000000 1.0
C      1  0.5682210000000  0.5657140000000  0.4887490000000 1.0
C      1  0.4514080000000  0.5074350000000  0.5337440000000 1.0
C      1  0.4533230000000  0.5328860000000  0.5166670000000 1.0
C      1  0.4501300000000  0.5318710000000  0.4873930000000 1.0
C      1  0.4611790000000  0.5072130000000  0.4730370000000 1.0
C      1  0.4522210000000  0.4779190000000  0.4729280000000 1.0
C      1  0.4545990000000  0.4635390000000  0.4985370000000 1.0
C      1  0.4513700000000  0.4775610000000  0.5258580000000 1.0
C      1  0.4909250000000  0.4141820000000  0.5378910000000 1.0
C      1  0.4902160000000  0.4777290000000  0.5905050000000 1.0
C      1  0.4914560000000  0.5577890000000  0.5744530000000 1.0
C      1  0.4880800000000  0.5948510000000  0.5012010000000 1.0
C      1  0.4816360000000  0.5604310000000  0.4256470000000 1.0
C      1  0.4844150000000  0.4795850000000  0.4075510000000 1.0
C      1  0.4925990000000  0.4154020000000  0.4559880000000 1.0
C      1  0.5511910000000  0.5859210000000  0.4878220000000 1.0
C      1  0.5463280000000  0.5417610000000  0.4287300000000 1.0
C      1  0.5493090000000  0.4803140000000  0.4158820000000 1.0
C      1  0.5584490000000  0.4255190000000  0.4691530000000 1.0
C      1  0.5552510000000  0.4307760000000  0.5411680000000 1.0
C      1  0.5546940000000  0.4891610000000  0.5796020000000 1.0
C      1  0.5577280000000  0.5564540000000  0.5572890000000 1.0
C      1  0.5198280000000  0.4441340000000  0.4752360000000 1.0
C      1  0.5183220000000  0.4479330000000  0.5280480000000 1.0
C      1  0.5176650000000  0.4910940000000  0.5579710000000 1.0
C      1  0.5193380000000  0.5423320000000  0.5433010000000 1.0
C      1  0.5166140000000  0.5614250000000  0.4938480000000 1.0
C      1  0.5095440000000  0.5343810000000  0.4494430000000 1.0
C      1  0.5157540000000  0.4832510000000  0.4400870000000 1.0
C      1  0.4010290000000  0.5168520000000  0.4827480000000 1.0
C      1  0.4868390000000  0.5068420000000  0.4873300000000 1.0
END
