TITL C-91685-9002-8 142.317677772313 125000 -349.195307915013 0 0 52 (C3) n - 1
REM
REM in /rds/project/t2_vol4/rds-t2-cs072/BORA/CARBON/from-Arr/AIRSS/Generating-Clusters/GAP-ML-2020/Higher-Symm/SD-CG/HFTN-CG
REM
REM
REM
REM
REM
REM ./C.cell (b20cbc046b6831c77cfcea5457e17084)
REM AIRSS Version 0.9.1 bugfix July 2018 build 013d7b7c2542+ Fri, 06 Jul 2018 19:26:36 +0100
REM compiler GCC version 9.3.0
REM options -cpp -mtune=generic -march=x86-64 -g -O0
REM seed -1044501917 -688312690 -473160411 1722083535 -1389060936 -986424431 1444657586 -1021180800 -403776618 -691802332 -1323979504 1519771015 -1426154511 1045153684 469874066 -1946503486 1630654731 -283416513 -1722367161 -1225569250 1515801305 80035069 1348978272 736516242 -1230284210 -1436079969 -834356424 -947281898 1294959419 209252815 288657277 1345581229 -283456974
REM
CELL 1.54180   50.00000   50.00000   50.00000   90.00000   90.00000   90.00000
LATT -1
SFAC C  
C      1  0.4638370000000  0.4981650000000  0.4426540000000 1.0
C      1  0.5669750000000  0.4980650000000  0.4983800000000 1.0
C      1  0.4671460000000  0.4981020000000  0.5598380000000 1.0
C      1  0.4440920000000  0.5046900000000  0.4591640000000 1.0
C      1  0.5625600000000  0.5046020000000  0.4730270000000 1.0
C      1  0.4913200000000  0.5046010000000  0.5686920000000 1.0
C      1  0.4692350000000  0.5189530000000  0.4924730000000 1.0
C      1  0.5211630000000  0.5189240000000  0.4781500000000 1.0
C      1  0.5076030000000  0.5189070000000  0.5302820000000 1.0
C      1  0.4967340000000  0.4364530000000  0.5281820000000 1.0
C      1  0.4763660000000  0.4364900000000  0.4840950000000 1.0
C      1  0.5247310000000  0.4364540000000  0.4884990000000 1.0
C      1  0.5296730000000  0.4732960000000  0.4594660000000 1.0
C      1  0.5194610000000  0.4732580000000  0.5469850000000 1.0
C      1  0.4487730000000  0.4733340000000  0.4943820000000 1.0
C      1  0.4749310000000  0.5482550000000  0.5454690000000 1.0
C      1  0.4724630000000  0.5483030000000  0.4565900000000 1.0
C      1  0.5506680000000  0.5482270000000  0.4988920000000 1.0
C      1  0.4946670000000  0.4828310000000  0.4734830000000 1.0
C      1  0.5248390000000  0.4827920000000  0.5096630000000 1.0
C      1  0.4784210000000  0.4828200000000  0.5177030000000 1.0
C      1  0.5095270000000  0.5676150000000  0.5258720000000 1.0
C      1  0.4721650000000  0.5676560000000  0.4963530000000 1.0
C      1  0.5164110000000  0.5676350000000  0.4787560000000 1.0
C      1  0.4639980000000  0.5219610000000  0.5439810000000 1.0
C      1  0.4791780000000  0.5220010000000  0.4478610000000 1.0
C      1  0.5548310000000  0.5219170000000  0.5090680000000 1.0
C      1  0.4932820000000  0.5120870000000  0.4724340000000 1.0
C      1  0.5264840000000  0.5120450000000  0.5089940000000 1.0
C      1  0.4782210000000  0.5120730000000  0.5194670000000 1.0
C      1  0.5228830000000  0.4367370000000  0.5169530000000 1.0
C      1  0.4730160000000  0.4367740000000  0.5123550000000 1.0
C      1  0.5019320000000  0.4367760000000  0.4714680000000 1.0
C      1  0.4953070000000  0.4572580000000  0.5480850000000 1.0
C      1  0.4598740000000  0.4573220000000  0.4729110000000 1.0
C      1  0.5426930000000  0.4572610000000  0.4798120000000 1.0
C      1  0.4801440000000  0.5667420000000  0.5226520000000 1.0
C      1  0.4896440000000  0.5667620000000  0.4725160000000 1.0
C      1  0.5283120000000  0.5667180000000  0.5058120000000 1.0
C      1  0.4600240000000  0.5457280000000  0.4829990000000 1.0
C      1  0.5340130000000  0.5456810000000  0.4749140000000 1.0
C      1  0.5040200000000  0.5456670000000  0.5430330000000 1.0
C      1  0.4467410000000  0.5004980000000  0.4859200000000 1.0
C      1  0.5380570000000  0.5004470000000  0.4619430000000 1.0
C      1  0.5131640000000  0.5004170000000  0.5530130000000 1.0
C      1  0.5527150000000  0.4720160000000  0.5028630000000 1.0
C      1  0.4703550000000  0.4720500000000  0.5452420000000 1.0
C      1  0.4748340000000  0.4720950000000  0.4527260000000 1.0
C      1  0.5040780000000  0.4610520000000  0.4541100000000 1.0
C      1  0.5368790000000  0.4609910000000  0.5274950000000 1.0
C      1  0.4569250000000  0.4610500000000  0.5192090000000 1.0
C      1  0.4993030000000  0.4741430000000  0.5002780000000 1.0
END
