TITL C-91678-8334-7 -120.967396497447 125000 -494.571798175963 0 0 74 (C2) n - 1
REM
REM in /rds/project/t2_vol4/rds-t2-cs072/BORA/CARBON/from-Arr/AIRSS/Generating-Clusters/GAP-ML-2020/Higher-Symm/SD-CG/HFTN-CG
REM
REM
REM
REM
REM
REM ./C.cell (b20cbc046b6831c77cfcea5457e17084)
REM AIRSS Version 0.9.1 bugfix July 2018 build 013d7b7c2542+ Fri, 06 Jul 2018 19:26:36 +0100
REM compiler GCC version 9.3.0
REM options -cpp -mtune=generic -march=x86-64 -g -O0
REM seed -1085990299 -2146454725 -1631589460 775900587 -1409776295 1543939348 1231699417 -1134509030 -2051453109 1881681210 -1300137139 -1270960006 234915936 1376485372 217393333 -49178047 1271083492 -18386894 2002497293 -2144438683 1255562945 -742453794 -1558551394 -1289365226 1759872644 1939512022 697803925 2049053414 -2036823948 845595953 340066105 -948051223 -347307640
REM
CELL 1.54180   50.00000   50.00000   50.00000   90.00000   90.00000   90.00000
LATT -1
SFAC C  
C      1  0.4842870000000  0.4856240000000  0.5333020000000 1.0
C      1  0.4950410000000  0.5345040000000  0.5076930000000 1.0
C      1  0.4888450000000  0.4906520000000  0.4593700000000 1.0
C      1  0.5087540000000  0.4775140000000  0.4738160000000 1.0
C      1  0.5174100000000  0.5399070000000  0.4919420000000 1.0
C      1  0.5128550000000  0.4762480000000  0.5298720000000 1.0
C      1  0.5396160000000  0.4585250000000  0.5643850000000 1.0
C      1  0.5474060000000  0.5680640000000  0.5077500000000 1.0
C      1  0.5413850000000  0.4606730000000  0.4445800000000 1.0
C      1  0.4593110000000  0.4659790000000  0.4378890000000 1.0
C      1  0.4649480000000  0.5704740000000  0.5057760000000 1.0
C      1  0.4524370000000  0.4649900000000  0.5612530000000 1.0
C      1  0.4733630000000  0.5140950000000  0.4685130000000 1.0
C      1  0.4730550000000  0.4871550000000  0.5068340000000 1.0
C      1  0.4736850000000  0.5163490000000  0.4979310000000 1.0
C      1  0.5272060000000  0.4982310000000  0.5180460000000 1.0
C      1  0.5297420000000  0.4928940000000  0.4880960000000 1.0
C      1  0.5333620000000  0.5200060000000  0.4770310000000 1.0
C      1  0.4434380000000  0.4492740000000  0.5120770000000 1.0
C      1  0.4486370000000  0.5368320000000  0.5363000000000 1.0
C      1  0.4514840000000  0.5135130000000  0.4262230000000 1.0
C      1  0.5515130000000  0.4477090000000  0.4899560000000 1.0
C      1  0.5599690000000  0.5562240000000  0.4612870000000 1.0
C      1  0.5531840000000  0.5086730000000  0.5574900000000 1.0
C      1  0.5558450000000  0.4974790000000  0.5303500000000 1.0
C      1  0.5615640000000  0.5236740000000  0.4889660000000 1.0
C      1  0.5564020000000  0.4776580000000  0.4884650000000 1.0
C      1  0.4442910000000  0.5038720000000  0.4672530000000 1.0
C      1  0.4461350000000  0.5248820000000  0.5084790000000 1.0
C      1  0.4431880000000  0.4786480000000  0.5096090000000 1.0
C      1  0.5080850000000  0.4318950000000  0.4728280000000 1.0
C      1  0.5077340000000  0.5030430000000  0.5690960000000 1.0
C      1  0.5177250000000  0.5705410000000  0.4643190000000 1.0
C      1  0.4866780000000  0.4382480000000  0.5275940000000 1.0
C      1  0.4940010000000  0.5012530000000  0.4198400000000 1.0
C      1  0.4925210000000  0.5560890000000  0.5478210000000 1.0
C      1  0.4867120000000  0.5591910000000  0.5207560000000 1.0
C      1  0.4847430000000  0.4784290000000  0.4333330000000 1.0
C      1  0.4751630000000  0.4608420000000  0.5447760000000 1.0
C      1  0.5236540000000  0.5682820000000  0.4916760000000 1.0
C      1  0.5187490000000  0.4766810000000  0.5580520000000 1.0
C      1  0.5172500000000  0.4540850000000  0.4587040000000 1.0
C      1  0.5553900000000  0.4811220000000  0.5556290000000 1.0
C      1  0.5646170000000  0.5516690000000  0.4880100000000 1.0
C      1  0.5604000000000  0.4588480000000  0.4667580000000 1.0
C      1  0.4434040000000  0.4922040000000  0.4416220000000 1.0
C      1  0.4433720000000  0.5529950000000  0.5150350000000 1.0
C      1  0.4394800000000  0.4636210000000  0.5354400000000 1.0
C      1  0.5116860000000  0.5219640000000  0.5274120000000 1.0
C      1  0.5212450000000  0.5276880000000  0.4479310000000 1.0
C      1  0.5072340000000  0.4529980000000  0.5125550000000 1.0
C      1  0.4893450000000  0.5355510000000  0.4501610000000 1.0
C      1  0.4902120000000  0.5111660000000  0.5468860000000 1.0
C      1  0.4890400000000  0.4669220000000  0.4917690000000 1.0
C      1  0.4727400000000  0.5725270000000  0.4798230000000 1.0
C      1  0.4634330000000  0.4454720000000  0.4551260000000 1.0
C      1  0.4656220000000  0.4815640000000  0.5802480000000 1.0
C      1  0.5398110000000  0.5623940000000  0.5331440000000 1.0
C      1  0.5255200000000  0.4350790000000  0.5565840000000 1.0
C      1  0.5368720000000  0.4833370000000  0.4302810000000 1.0
C      1  0.4855240000000  0.4953710000000  0.5883600000000 1.0
C      1  0.4894370000000  0.5642280000000  0.4602180000000 1.0
C      1  0.4787250000000  0.4392990000000  0.4784520000000 1.0
C      1  0.5220440000000  0.5057200000000  0.4269490000000 1.0
C      1  0.5214720000000  0.5456070000000  0.5472120000000 1.0
C      1  0.5058520000000  0.4230360000000  0.5455990000000 1.0
C      1  0.4736520000000  0.5353130000000  0.5500230000000 1.0
C      1  0.4766930000000  0.5233620000000  0.4253490000000 1.0
C      1  0.4665150000000  0.4330020000000  0.5055980000000 1.0
C      1  0.5358170000000  0.5543410000000  0.4491880000000 1.0
C      1  0.5299140000000  0.5234940000000  0.5663290000000 1.0
C      1  0.5250120000000  0.4380290000000  0.4944710000000 1.0
C      1  0.5691660000000  0.4998990000000  0.5041800000000 1.0
C      1  0.4332510000000  0.5017370000000  0.4942360000000 1.0
END
