TITL C-91696-1605-3 0.0228720574394431 125000 -118.096872742984 0 0 18 (C1) n - 1
REM
REM in /rds/project/t2_vol4/rds-t2-cs072/BORA/CARBON/from-Arr/AIRSS/Generating-Clusters/GAP-ML-2020/Higher-Symm/SD-CG/HFTN-CG
REM
REM
REM
REM
REM
REM ./C.cell (b20cbc046b6831c77cfcea5457e17084)
REM AIRSS Version 0.9.1 bugfix July 2018 build 013d7b7c2542+ Fri, 06 Jul 2018 19:26:36 +0100
REM compiler GCC version 9.3.0
REM options -cpp -mtune=generic -march=x86-64 -g -O0
REM seed -1102457259 -775171641 -1246221766 -360183403 -487751052 794447623 -1962400966 -207692621 -1928630509 -350666378 -1266437539 804248163 1542925506 -1906588762 -931903964 -1608380242 541629947 234886305 1689709713 -1816613661 1411232823 -1858749199 -52241229 -1195488907 1037636863 -487880033 -1250770095 -1911987368 1556765243 1800748357 -2093390910 -1890950786 -2062154143
REM
CELL 1.54180   50.00000   50.00000   50.00000   90.00000   90.00000   90.00000
LATT -1
SFAC C  
C      1  0.4958160000000  0.4860010000000  0.4574660000000 1.0
C      1  0.4892670000000  0.4583720000000  0.4928010000000 1.0
C      1  0.4752410000000  0.4612410000000  0.5367590000000 1.0
C      1  0.4797180000000  0.5091180000000  0.5489850000000 1.0
C      1  0.4789020000000  0.5472100000000  0.5150770000000 1.0
C      1  0.4812890000000  0.5365700000000  0.4654120000000 1.0
C      1  0.4963490000000  0.5155930000000  0.4559560000000 1.0
C      1  0.4913870000000  0.5440930000000  0.4906040000000 1.0
C      1  0.4904310000000  0.5283250000000  0.5320190000000 1.0
C      1  0.4898220000000  0.4845820000000  0.5399380000000 1.0
C      1  0.4740400000000  0.4495940000000  0.5139670000000 1.0
C      1  0.4799010000000  0.4659390000000  0.4670240000000 1.0
C      1  0.5202710000000  0.4866260000000  0.4741150000000 1.0
C      1  0.5215140000000  0.5149380000000  0.4723710000000 1.0
C      1  0.5132810000000  0.4892390000000  0.5228990000000 1.0
C      1  0.5152100000000  0.5181160000000  0.5205790000000 1.0
C      1  0.5177980000000  0.5312370000000  0.4952930000000 1.0
C      1  0.5142930000000  0.4732060000000  0.4987340000000 1.0
END
