TITL C-91668-8388-2 -543.16926379989 125000 -620.905011094833 0 0 88 (C1) n - 1
REM
REM in /rds/project/t2_vol4/rds-t2-cs072/BORA/CARBON/from-Arr/AIRSS/Generating-Clusters/GAP-ML-2020/Higher-Symm/SD-CG/HFTN-CG
REM
REM
REM
REM
REM
REM ./C.cell (b20cbc046b6831c77cfcea5457e17084)
REM AIRSS Version 0.9.1 bugfix July 2018 build 013d7b7c2542+ Fri, 06 Jul 2018 19:26:36 +0100
REM compiler GCC version 9.3.0
REM options -cpp -mtune=generic -march=x86-64 -g -O0
REM seed -487017201 -1316792243 580825350 1280856311 -77643384 -1645063650 1954186060 1844981998 1403099219 -602614341 -1784007551 -738515135 1912987447 450454945 -1313880717 1514065559 83978814 299221172 494104009 -1250482601 255465868 -403744095 -1950445948 -1823832902 1343626490 1388694011 -1083810117 -902989164 129436049 1487232216 -2146476330 1417323236 1961109090
REM
CELL 1.54180   50.00000   50.00000   50.00000   90.00000   90.00000   90.00000
LATT -1
SFAC C  
C      1  0.4679660000000  0.5770070000000  0.4739710000000 1.0
C      1  0.5386200000000  0.5713080000000  0.4702550000000 1.0
C      1  0.5745670000000  0.5124920000000  0.4695530000000 1.0
C      1  0.5593680000000  0.4467490000000  0.4614650000000 1.0
C      1  0.4987250000000  0.4158120000000  0.4572260000000 1.0
C      1  0.4381300000000  0.4498840000000  0.4711180000000 1.0
C      1  0.4255610000000  0.5192540000000  0.4779750000000 1.0
C      1  0.5017030000000  0.5360940000000  0.4185350000000 1.0
C      1  0.5268360000000  0.5216980000000  0.4155670000000 1.0
C      1  0.5327270000000  0.4938630000000  0.4117960000000 1.0
C      1  0.5135100000000  0.4728670000000  0.4120190000000 1.0
C      1  0.4855190000000  0.4753510000000  0.4176940000000 1.0
C      1  0.4695550000000  0.4979730000000  0.4233140000000 1.0
C      1  0.4755360000000  0.5254770000000  0.4220280000000 1.0
C      1  0.5196280000000  0.5545470000000  0.5203230000000 1.0
C      1  0.5515870000000  0.5200900000000  0.5226600000000 1.0
C      1  0.5491500000000  0.4716680000000  0.5293210000000 1.0
C      1  0.5113140000000  0.4442560000000  0.5340850000000 1.0
C      1  0.4613700000000  0.4561090000000  0.5306160000000 1.0
C      1  0.4468860000000  0.5011760000000  0.5259440000000 1.0
C      1  0.4711270000000  0.5499230000000  0.5270800000000 1.0
C      1  0.4757270000000  0.4799050000000  0.6008250000000 1.0
C      1  0.4641450000000  0.5044920000000  0.5988600000000 1.0
C      1  0.4778390000000  0.5297130000000  0.5964680000000 1.0
C      1  0.5043680000000  0.5363930000000  0.5891620000000 1.0
C      1  0.5264260000000  0.5201620000000  0.5935190000000 1.0
C      1  0.5255640000000  0.4914830000000  0.5986340000000 1.0
C      1  0.5047260000000  0.4740450000000  0.6019930000000 1.0
C      1  0.5629790000000  0.5094710000000  0.4431720000000 1.0
C      1  0.5501750000000  0.4579540000000  0.4366140000000 1.0
C      1  0.5003270000000  0.4378730000000  0.4389430000000 1.0
C      1  0.4601490000000  0.4674780000000  0.4581280000000 1.0
C      1  0.4513750000000  0.5176570000000  0.4624750000000 1.0
C      1  0.4810030000000  0.5567590000000  0.4562740000000 1.0
C      1  0.5298280000000  0.5491820000000  0.4526210000000 1.0
C      1  0.4785650000000  0.4557440000000  0.4367900000000 1.0
C      1  0.4548390000000  0.4933130000000  0.4464780000000 1.0
C      1  0.4628760000000  0.5378380000000  0.4439480000000 1.0
C      1  0.5047730000000  0.5556510000000  0.4385470000000 1.0
C      1  0.5455340000000  0.5314410000000  0.4346270000000 1.0
C      1  0.5549920000000  0.4858360000000  0.4286510000000 1.0
C      1  0.5237080000000  0.4508090000000  0.4270900000000 1.0
C      1  0.5313510000000  0.4538940000000  0.5157140000000 1.0
C      1  0.4855550000000  0.4437570000000  0.5223290000000 1.0
C      1  0.4500540000000  0.4748440000000  0.5094320000000 1.0
C      1  0.4539530000000  0.5283890000000  0.5135760000000 1.0
C      1  0.4927420000000  0.5595530000000  0.5089960000000 1.0
C      1  0.5377160000000  0.5390030000000  0.5031700000000 1.0
C      1  0.5608540000000  0.4942970000000  0.5155170000000 1.0
C      1  0.4762020000000  0.5506400000000  0.5545870000000 1.0
C      1  0.5250230000000  0.5500080000000  0.5470510000000 1.0
C      1  0.5458120000000  0.5297320000000  0.5486720000000 1.0
C      1  0.5427560000000  0.4687830000000  0.5573440000000 1.0
C      1  0.5194400000000  0.4510690000000  0.5600790000000 1.0
C      1  0.4569070000000  0.4667890000000  0.5564780000000 1.0
C      1  0.4457710000000  0.4938550000000  0.5536500000000 1.0
C      1  0.5174900000000  0.5851590000000  0.4796310000000 1.0
C      1  0.5779690000000  0.5396290000000  0.4770890000000 1.0
C      1  0.5694790000000  0.4651940000000  0.4784300000000 1.0
C      1  0.5250240000000  0.4094330000000  0.4650890000000 1.0
C      1  0.4507300000000  0.4259760000000  0.4754390000000 1.0
C      1  0.4147770000000  0.4944840000000  0.4826330000000 1.0
C      1  0.4474870000000  0.5634050000000  0.4851780000000 1.0
C      1  0.4469870000000  0.5117650000000  0.5752280000000 1.0
C      1  0.4602160000000  0.5377580000000  0.5740090000000 1.0
C      1  0.5035350000000  0.5515570000000  0.5648400000000 1.0
C      1  0.5468120000000  0.5163510000000  0.5728240000000 1.0
C      1  0.5463900000000  0.4873840000000  0.5777170000000 1.0
C      1  0.5011020000000  0.4536530000000  0.5809050000000 1.0
C      1  0.4725110000000  0.4604220000000  0.5789260000000 1.0
C      1  0.5189920000000  0.5303810000000  0.4783150000000 1.0
C      1  0.5236670000000  0.4771780000000  0.4702040000000 1.0
C      1  0.5207290000000  0.4529250000000  0.4878480000000 1.0
C      1  0.4897270000000  0.4463080000000  0.4931000000000 1.0
C      1  0.4727070000000  0.4715370000000  0.4879380000000 1.0
C      1  0.4709660000000  0.5204760000000  0.4884650000000 1.0
C      1  0.4912000000000  0.5420170000000  0.4832240000000 1.0
C      1  0.4338210000000  0.5426510000000  0.4953750000000 1.0
C      1  0.4925940000000  0.5847210000000  0.4910030000000 1.0
C      1  0.5578710000000  0.5550010000000  0.4866750000000 1.0
C      1  0.5715110000000  0.4899590000000  0.4885050000000 1.0
C      1  0.5381510000000  0.4312040000000  0.4736630000000 1.0
C      1  0.4783400000000  0.4233810000000  0.4765330000000 1.0
C      1  0.4264140000000  0.4703260000000  0.4896320000000 1.0
C      1  0.4884290000000  0.4967150000000  0.4941970000000 1.0
C      1  0.5025600000000  0.5056130000000  0.5445440000000 1.0
C      1  0.4956750000000  0.4974790000000  0.5222220000000 1.0
C      1  0.5113640000000  0.5005780000000  0.4754510000000 1.0
END
