TITL C-91686-8401-6 -0.070852730544273 125000 -831.894387293906 0 0 119 (C1) n - 1
REM
REM in /rds/project/t2_vol4/rds-t2-cs072/BORA/CARBON/from-Arr/AIRSS/Generating-Clusters/GAP-ML-2020/Higher-Symm/SD-CG/HFTN-CG
REM
REM
REM
REM
REM
REM ./C.cell (b20cbc046b6831c77cfcea5457e17084)
REM AIRSS Version 0.9.1 bugfix July 2018 build 013d7b7c2542+ Fri, 06 Jul 2018 19:26:36 +0100
REM compiler GCC version 9.3.0
REM options -cpp -mtune=generic -march=x86-64 -g -O0
REM seed 267627597 1900957003 -956905969 -1716424893 -1459519744 -1315622381 924842679 -213939924 1877811687 878966406 634582917 -751608400 1908918461 -424667912 898346581 -145675676 1093040903 1688734530 2124561160 -274919093 1499023659 1607169770 394298735 1449028998 546246617 -177022218 -941709642 1528882769 213429097 322798407 -104825807 -1363371732 -822349732
REM
CELL 1.54180   50.00000   50.00000   50.00000   90.00000   90.00000   90.00000
LATT -1
SFAC C  
C      1  0.5685290000000  0.5703590000000  0.4852890000000 1.0
C      1  0.5247070000000  0.4058640000000  0.4856490000000 1.0
C      1  0.4064650000000  0.5245950000000  0.4852340000000 1.0
C      1  0.5423270000000  0.4209840000000  0.4672370000000 1.0
C      1  0.4122960000000  0.5014140000000  0.4679140000000 1.0
C      1  0.5462610000000  0.5776990000000  0.4671430000000 1.0
C      1  0.5742540000000  0.5558510000000  0.5313170000000 1.0
C      1  0.5098620000000  0.4079710000000  0.5312750000000 1.0
C      1  0.4137500000000  0.5371550000000  0.5316320000000 1.0
C      1  0.4969680000000  0.3997890000000  0.4872180000000 1.0
C      1  0.4144600000000  0.5516830000000  0.4869880000000 1.0
C      1  0.5867340000000  0.5486920000000  0.4867160000000 1.0
C      1  0.4869530000000  0.4302570000000  0.5707190000000 1.0
C      1  0.4445110000000  0.5452200000000  0.5706530000000 1.0
C      1  0.5658040000000  0.5244240000000  0.5703170000000 1.0
C      1  0.4381410000000  0.5800160000000  0.5166990000000 1.0
C      1  0.5996870000000  0.5134490000000  0.5155630000000 1.0
C      1  0.4603540000000  0.4062890000000  0.5168820000000 1.0
C      1  0.4198000000000  0.4552720000000  0.4973030000000 1.0
C      1  0.5009680000000  0.5914340000000  0.4969850000000 1.0
C      1  0.5760560000000  0.4551080000000  0.4954100000000 1.0
C      1  0.4531910000000  0.5854010000000  0.5415380000000 1.0
C      1  0.5971500000000  0.4973730000000  0.5405970000000 1.0
C      1  0.4477740000000  0.4164200000000  0.5419680000000 1.0
C      1  0.5246940000000  0.5066360000000  0.5262240000000 1.0
C      1  0.4880260000000  0.4813600000000  0.5288360000000 1.0
C      1  0.4946680000000  0.5122370000000  0.5267980000000 1.0
C      1  0.5290940000000  0.4155500000000  0.5118580000000 1.0
C      1  0.4107960000000  0.5167110000000  0.5122080000000 1.0
C      1  0.5588290000000  0.5698370000000  0.5120550000000 1.0
C      1  0.4327260000000  0.4971880000000  0.5096720000000 1.0
C      1  0.5312060000000  0.5607840000000  0.5084900000000 1.0
C      1  0.5347320000000  0.4445300000000  0.5078110000000 1.0
C      1  0.5605460000000  0.5489530000000  0.5551890000000 1.0
C      1  0.5105530000000  0.4233250000000  0.5549050000000 1.0
C      1  0.4259510000000  0.5285280000000  0.5556320000000 1.0
C      1  0.5943100000000  0.5028830000000  0.4891740000000 1.0
C      1  0.4531960000000  0.4158930000000  0.4906650000000 1.0
C      1  0.4502750000000  0.5813690000000  0.4906690000000 1.0
C      1  0.4775630000000  0.5824660000000  0.4827910000000 1.0
C      1  0.5795100000000  0.4797810000000  0.4814400000000 1.0
C      1  0.4390120000000  0.4392660000000  0.4828420000000 1.0
C      1  0.4812790000000  0.5065350000000  0.4494880000000 1.0
C      1  0.5160070000000  0.5222330000000  0.4457080000000 1.0
C      1  0.5100280000000  0.4734000000000  0.4445350000000 1.0
C      1  0.4760250000000  0.4123840000000  0.4728280000000 1.0
C      1  0.4362610000000  0.5630070000000  0.4729800000000 1.0
C      1  0.5858750000000  0.5246670000000  0.4719210000000 1.0
C      1  0.5279280000000  0.4895050000000  0.4807310000000 1.0
C      1  0.4700460000000  0.4759000000000  0.4864720000000 1.0
C      1  0.4948130000000  0.5377640000000  0.4860230000000 1.0
C      1  0.4444060000000  0.5137320000000  0.4242690000000 1.0
C      1  0.5433460000000  0.5446820000000  0.4203440000000 1.0
C      1  0.5159200000000  0.4382630000000  0.4209930000000 1.0
C      1  0.5177450000000  0.5251700000000  0.4167600000000 1.0
C      1  0.5138120000000  0.4713060000000  0.4160290000000 1.0
C      1  0.4733640000000  0.5023070000000  0.4201880000000 1.0
C      1  0.4637470000000  0.4181060000000  0.5647310000000 1.0
C      1  0.4468820000000  0.5706980000000  0.5637830000000 1.0
C      1  0.5868930000000  0.5094410000000  0.5633160000000 1.0
C      1  0.4516450000000  0.5418280000000  0.4267740000000 1.0
C      1  0.5617220000000  0.5225210000000  0.4243760000000 1.0
C      1  0.4867890000000  0.4346410000000  0.4249720000000 1.0
C      1  0.4333100000000  0.5014140000000  0.5597110000000 1.0
C      1  0.5331550000000  0.5559210000000  0.5589310000000 1.0
C      1  0.5300410000000  0.4437330000000  0.5581400000000 1.0
C      1  0.4331360000000  0.5057210000000  0.4489650000000 1.0
C      1  0.5419800000000  0.5601800000000  0.4449920000000 1.0
C      1  0.5275760000000  0.4326260000000  0.4463600000000 1.0
C      1  0.5084150000000  0.4503380000000  0.4618290000000 1.0
C      1  0.4565600000000  0.5154520000000  0.4643860000000 1.0
C      1  0.5365040000000  0.5361560000000  0.4613880000000 1.0
C      1  0.5156190000000  0.4620330000000  0.4898120000000 1.0
C      1  0.4592420000000  0.5040390000000  0.4919240000000 1.0
C      1  0.5249060000000  0.5366600000000  0.4893390000000 1.0
C      1  0.5003490000000  0.5866270000000  0.5271620000000 1.0
C      1  0.5740470000000  0.4569130000000  0.5257970000000 1.0
C      1  0.4223390000000  0.4563100000000  0.5275850000000 1.0
C      1  0.4759610000000  0.4812530000000  0.5747820000000 1.0
C      1  0.4940040000000  0.5290260000000  0.5739960000000 1.0
C      1  0.5262710000000  0.4902440000000  0.5726160000000 1.0
C      1  0.4372630000000  0.4821060000000  0.5366940000000 1.0
C      1  0.5148660000000  0.5608690000000  0.5353550000000 1.0
C      1  0.5442280000000  0.4573890000000  0.5347270000000 1.0
C      1  0.4553270000000  0.5463830000000  0.4576920000000 1.0
C      1  0.5618270000000  0.5178590000000  0.4559020000000 1.0
C      1  0.4809310000000  0.4364860000000  0.4567120000000 1.0
C      1  0.5399550000000  0.5163430000000  0.5818750000000 1.0
C      1  0.4924570000000  0.4565860000000  0.5824430000000 1.0
C      1  0.4646810000000  0.5275230000000  0.5820920000000 1.0
C      1  0.4830690000000  0.4756090000000  0.4097570000000 1.0
C      1  0.4892200000000  0.5274610000000  0.4081930000000 1.0
C      1  0.5307050000000  0.4954580000000  0.4070410000000 1.0
C      1  0.4717160000000  0.4502610000000  0.4088600000000 1.0
C      1  0.4713730000000  0.5485080000000  0.4092030000000 1.0
C      1  0.5573620000000  0.5005940000000  0.4078540000000 1.0
C      1  0.4880640000000  0.3994670000000  0.5151320000000 1.0
C      1  0.4180900000000  0.5598320000000  0.5150450000000 1.0
C      1  0.5917330000000  0.5408780000000  0.5144960000000 1.0
C      1  0.5331450000000  0.5111270000000  0.5005330000000 1.0
C      1  0.4904620000000  0.4671230000000  0.5041370000000 1.0
C      1  0.4789970000000  0.5223730000000  0.5038740000000 1.0
C      1  0.5347440000000  0.4862960000000  0.5429480000000 1.0
C      1  0.4666700000000  0.4754290000000  0.5456150000000 1.0
C      1  0.4949930000000  0.5362750000000  0.5438380000000 1.0
C      1  0.4790000000000  0.5954030000000  0.5405880000000 1.0
C      1  0.5938240000000  0.4697680000000  0.5383660000000 1.0
C      1  0.4252040000000  0.4328010000000  0.5401550000000 1.0
C      1  0.5563390000000  0.4906120000000  0.4674560000000 1.0
C      1  0.4592830000000  0.4548070000000  0.4686100000000 1.0
C      1  0.4809860000000  0.5574590000000  0.4687060000000 1.0
C      1  0.5562280000000  0.4380940000000  0.4867460000000 1.0
C      1  0.4168010000000  0.4812450000000  0.4885410000000 1.0
C      1  0.5256020000000  0.5832680000000  0.4878660000000 1.0
C      1  0.5202120000000  0.4615290000000  0.5781240000000 1.0
C      1  0.4543570000000  0.5011070000000  0.5794080000000 1.0
C      1  0.5222320000000  0.5383310000000  0.5789630000000 1.0
C      1  0.4989590000000  0.5000300000000  0.5779460000000 1.0
C      1  0.5086920000000  0.4980240000000  0.4579960000000 1.0
END
