TITL C-91684-8337-10 -95.6459967157045 125000 -246.494621580965 0 0 37 (C3) n - 1
REM
REM in /rds/project/t2_vol4/rds-t2-cs072/BORA/CARBON/from-Arr/AIRSS/Generating-Clusters/GAP-ML-2020/Higher-Symm/SD-CG/HFTN-CG
REM
REM
REM
REM
REM
REM ./C.cell (b20cbc046b6831c77cfcea5457e17084)
REM AIRSS Version 0.9.1 bugfix July 2018 build 013d7b7c2542+ Fri, 06 Jul 2018 19:26:36 +0100
REM compiler GCC version 9.3.0
REM options -cpp -mtune=generic -march=x86-64 -g -O0
REM seed 2120295352 603325292 129512754 55156229 -1937414101 1251548879 -1098243904 -274315377 -1656354207 -986648705 -780300713 1562492093 -1383130320 115833444 1233689960 1043171927 710221711 1741434234 326325648 1110491578 -376170893 -1435942114 -2019892730 121197054 111426985 -779291515 1820321270 1419944305 -848892143 1758725498 -1253732513 -1108321970 940137477
REM
CELL 1.54180   50.00000   50.00000   50.00000   90.00000   90.00000   90.00000
LATT -1
SFAC C  
C      1  0.5072910000000  0.4870630000000  0.4358890000000 1.0
C      1  0.5110010000000  0.5616600000000  0.5206240000000 1.0
C      1  0.5104820000000  0.4509170000000  0.5428560000000 1.0
C      1  0.5300450000000  0.4465360000000  0.4588590000000 1.0
C      1  0.5318370000000  0.5609950000000  0.4731560000000 1.0
C      1  0.5341380000000  0.4913390000000  0.5650870000000 1.0
C      1  0.4462490000000  0.5220110000000  0.4824430000000 1.0
C      1  0.4476830000000  0.5067560000000  0.5301690000000 1.0
C      1  0.4460480000000  0.4730360000000  0.4931180000000 1.0
C      1  0.4706670000000  0.5430680000000  0.5080290000000 1.0
C      1  0.4707620000000  0.4729710000000  0.5346660000000 1.0
C      1  0.4684060000000  0.4849630000000  0.4606810000000 1.0
C      1  0.4922550000000  0.5290530000000  0.4619990000000 1.0
C      1  0.4949200000000  0.5187880000000  0.5445890000000 1.0
C      1  0.4924690000000  0.4523620000000  0.4944360000000 1.0
C      1  0.5614610000000  0.5072580000000  0.4841230000000 1.0
C      1  0.5623980000000  0.5073390000000  0.5118820000000 1.0
C      1  0.5616570000000  0.4832470000000  0.4980810000000 1.0
C      1  0.5356040000000  0.5123820000000  0.5219210000000 1.0
C      1  0.5343670000000  0.4732840000000  0.4985330000000 1.0
C      1  0.5340770000000  0.5131110000000  0.4763770000000 1.0
C      1  0.4452370000000  0.4956900000000  0.4742970000000 1.0
C      1  0.4468490000000  0.5270040000000  0.5114750000000 1.0
C      1  0.4465880000000  0.4791230000000  0.5200030000000 1.0
C      1  0.5199540000000  0.4541990000000  0.4847400000000 1.0
C      1  0.5202950000000  0.5352480000000  0.4673060000000 1.0
C      1  0.5226620000000  0.5098020000000  0.5461720000000 1.0
C      1  0.4913880000000  0.5423110000000  0.5272760000000 1.0
C      1  0.4902720000000  0.4557430000000  0.5235790000000 1.0
C      1  0.4883420000000  0.5022600000000  0.4504940000000 1.0
C      1  0.5186850000000  0.4661850000000  0.4455200000000 1.0
C      1  0.5215400000000  0.5632380000000  0.4972810000000 1.0
C      1  0.5224300000000  0.4698290000000  0.5554260000000 1.0
C      1  0.4711880000000  0.5381080000000  0.4790040000000 1.0
C      1  0.4729760000000  0.5005300000000  0.5448120000000 1.0
C      1  0.4703330000000  0.4623120000000  0.4794030000000 1.0
C      1  0.5210270000000  0.4997490000000  0.4994040000000 1.0
END
