TITL C-91684-8337-4 32.9100749928862 125000 -826.37450745721 0 0 115 (C1) n - 1
REM
REM in /rds/project/t2_vol4/rds-t2-cs072/BORA/CARBON/from-Arr/AIRSS/Generating-Clusters/GAP-ML-2020/Higher-Symm/SD-CG/HFTN-CG
REM
REM
REM
REM
REM
REM ./C.cell (b20cbc046b6831c77cfcea5457e17084)
REM AIRSS Version 0.9.1 bugfix July 2018 build 013d7b7c2542+ Fri, 06 Jul 2018 19:26:36 +0100
REM compiler GCC version 9.3.0
REM options -cpp -mtune=generic -march=x86-64 -g -O0
REM seed -868391561 2086325911 -1381245824 -434022755 -478184195 -1712857540 1093414385 -659823591 1069664143 98019595 197029330 -286601137 -1126079481 337017341 -1879918189 2108997419 -2145499035 -1539252047 1127817507 -984461344 -411179291 69866533 749651483 1772202728 1562732802 1574814779 223620907 -1497092262 -65711906 -833702143 -187536582 1307877891 200507867
REM
CELL 1.54180   50.00000   50.00000   50.00000   90.00000   90.00000   90.00000
LATT -1
SFAC C  
C      1  0.4642440000000  0.5117830000000  0.5117960000000 1.0
C      1  0.4644470000000  0.4873750000000  0.4960780000000 1.0
C      1  0.5444520000000  0.5133960000000  0.5076250000000 1.0
C      1  0.5428250000000  0.4872350000000  0.4913710000000 1.0
C      1  0.4276280000000  0.4457810000000  0.4934280000000 1.0
C      1  0.4280080000000  0.5531410000000  0.5054380000000 1.0
C      1  0.5673980000000  0.4419290000000  0.4920120000000 1.0
C      1  0.5679420000000  0.5570690000000  0.5085420000000 1.0
C      1  0.5180210000000  0.4124780000000  0.5140540000000 1.0
C      1  0.5171340000000  0.5855940000000  0.4858150000000 1.0
C      1  0.4893460000000  0.4193220000000  0.5171760000000 1.0
C      1  0.4882700000000  0.5790270000000  0.4832690000000 1.0
C      1  0.4276810000000  0.5198410000000  0.5524040000000 1.0
C      1  0.4290540000000  0.4791720000000  0.4460890000000 1.0
C      1  0.5842690000000  0.5049770000000  0.5546050000000 1.0
C      1  0.5827220000000  0.4925730000000  0.4453510000000 1.0
C      1  0.4768630000000  0.5295900000000  0.4937570000000 1.0
C      1  0.4758260000000  0.4676940000000  0.5120800000000 1.0
C      1  0.5242840000000  0.5296170000000  0.4933280000000 1.0
C      1  0.5249030000000  0.4704420000000  0.5067620000000 1.0
C      1  0.4151370000000  0.4805490000000  0.5217640000000 1.0
C      1  0.4159620000000  0.5180610000000  0.4772110000000 1.0
C      1  0.5829050000000  0.4776810000000  0.5194370000000 1.0
C      1  0.5836220000000  0.5214090000000  0.4801850000000 1.0
C      1  0.4868410000000  0.4478140000000  0.5759990000000 1.0
C      1  0.4869550000000  0.5501100000000  0.4230640000000 1.0
C      1  0.5160650000000  0.4471010000000  0.5758910000000 1.0
C      1  0.5159640000000  0.5511750000000  0.4237050000000 1.0
C      1  0.5365510000000  0.5162420000000  0.5685550000000 1.0
C      1  0.5350160000000  0.4826830000000  0.4317930000000 1.0
C      1  0.4708530000000  0.5165930000000  0.5703080000000 1.0
C      1  0.4671820000000  0.4793420000000  0.4163190000000 1.0
C      1  0.5732580000000  0.4732090000000  0.4918550000000 1.0
C      1  0.5745130000000  0.5260180000000  0.5078060000000 1.0
C      1  0.4149190000000  0.4718590000000  0.4940680000000 1.0
C      1  0.4150290000000  0.5270970000000  0.5046650000000 1.0
C      1  0.5175270000000  0.4816080000000  0.5309620000000 1.0
C      1  0.5151820000000  0.5193210000000  0.4678640000000 1.0
C      1  0.4895770000000  0.4812130000000  0.5332860000000 1.0
C      1  0.4857960000000  0.5183490000000  0.4684930000000 1.0
C      1  0.5156480000000  0.4317030000000  0.4384640000000 1.0
C      1  0.5156570000000  0.5684350000000  0.5627570000000 1.0
C      1  0.4852020000000  0.4331410000000  0.4348880000000 1.0
C      1  0.4851240000000  0.5663520000000  0.5651300000000 1.0
C      1  0.5599560000000  0.5458750000000  0.4399830000000 1.0
C      1  0.5602220000000  0.4526710000000  0.5599160000000 1.0
C      1  0.4428150000000  0.5427680000000  0.4383650000000 1.0
C      1  0.4423070000000  0.4549410000000  0.5607210000000 1.0
C      1  0.4413450000000  0.5616100000000  0.5288150000000 1.0
C      1  0.4419120000000  0.4383360000000  0.4704130000000 1.0
C      1  0.5511590000000  0.5713860000000  0.5262950000000 1.0
C      1  0.5504240000000  0.4272530000000  0.4750200000000 1.0
C      1  0.4424040000000  0.4537820000000  0.4466640000000 1.0
C      1  0.4409110000000  0.5457640000000  0.5521830000000 1.0
C      1  0.5440660000000  0.4340390000000  0.4478480000000 1.0
C      1  0.5437980000000  0.5654790000000  0.5536880000000 1.0
C      1  0.4654050000000  0.5608640000000  0.4406420000000 1.0
C      1  0.4651040000000  0.4372580000000  0.5584110000000 1.0
C      1  0.5367380000000  0.5627810000000  0.4421080000000 1.0
C      1  0.5369730000000  0.4356050000000  0.5577540000000 1.0
C      1  0.4642030000000  0.5740620000000  0.4663790000000 1.0
C      1  0.4643070000000  0.4238620000000  0.5330030000000 1.0
C      1  0.5383610000000  0.5764820000000  0.4682790000000 1.0
C      1  0.5392200000000  0.4217990000000  0.5317670000000 1.0
C      1  0.5166320000000  0.4996540000000  0.4134720000000 1.0
C      1  0.5173420000000  0.4984920000000  0.5853580000000 1.0
C      1  0.4883840000000  0.4987730000000  0.4090150000000 1.0
C      1  0.4891620000000  0.4987540000000  0.5865630000000 1.0
C      1  0.4270250000000  0.4576980000000  0.5365520000000 1.0
C      1  0.4277520000000  0.5405810000000  0.4624040000000 1.0
C      1  0.5744610000000  0.4550470000000  0.5353050000000 1.0
C      1  0.5741150000000  0.5437990000000  0.4647340000000 1.0
C      1  0.5291280000000  0.5085740000000  0.5356950000000 1.0
C      1  0.5259850000000  0.4922020000000  0.4644200000000 1.0
C      1  0.4799620000000  0.5092610000000  0.5376320000000 1.0
C      1  0.4776090000000  0.4911070000000  0.4708560000000 1.0
C      1  0.5869510000000  0.5055480000000  0.5278120000000 1.0
C      1  0.5864360000000  0.4933470000000  0.4719150000000 1.0
C      1  0.4147490000000  0.5093620000000  0.5279900000000 1.0
C      1  0.4161140000000  0.4895050000000  0.4704030000000 1.0
C      1  0.4665140000000  0.4270070000000  0.4783940000000 1.0
C      1  0.4666750000000  0.5732380000000  0.5221820000000 1.0
C      1  0.5270490000000  0.4129670000000  0.4856030000000 1.0
C      1  0.5250870000000  0.5810610000000  0.5154390000000 1.0
C      1  0.4490500000000  0.4770090000000  0.5768270000000 1.0
C      1  0.4493570000000  0.5213470000000  0.4212010000000 1.0
C      1  0.5551670000000  0.4743290000000  0.5769710000000 1.0
C      1  0.5544610000000  0.5240220000000  0.4231120000000 1.0
C      1  0.5614880000000  0.4972420000000  0.4294080000000 1.0
C      1  0.5630760000000  0.5010010000000  0.5709890000000 1.0
C      1  0.4437860000000  0.4936560000000  0.4251660000000 1.0
C      1  0.4439650000000  0.5042290000000  0.5705560000000 1.0
C      1  0.4657000000000  0.4530710000000  0.4287250000000 1.0
C      1  0.4658990000000  0.5455640000000  0.5681800000000 1.0
C      1  0.5355280000000  0.4525430000000  0.4300410000000 1.0
C      1  0.5356580000000  0.5465490000000  0.5710540000000 1.0
C      1  0.4834030000000  0.4414260000000  0.4991600000000 1.0
C      1  0.4844120000000  0.5573370000000  0.5033430000000 1.0
C      1  0.5057000000000  0.4583680000000  0.4900180000000 1.0
C      1  0.5108070000000  0.5493120000000  0.5138290000000 1.0
C      1  0.5282990000000  0.4720670000000  0.5857840000000 1.0
C      1  0.5277780000000  0.5261450000000  0.4138620000000 1.0
C      1  0.4760580000000  0.4730260000000  0.5859890000000 1.0
C      1  0.4761320000000  0.5251610000000  0.4123000000000 1.0
C      1  0.4822590000000  0.5839290000000  0.5425310000000 1.0
C      1  0.4821960000000  0.4164740000000  0.4582570000000 1.0
C      1  0.5103270000000  0.5877480000000  0.5392120000000 1.0
C      1  0.5103140000000  0.4130750000000  0.4628670000000 1.0
C      1  0.5637430000000  0.4341550000000  0.5191200000000 1.0
C      1  0.5630270000000  0.5643050000000  0.4813210000000 1.0
C      1  0.4374270000000  0.4372790000000  0.5195210000000 1.0
C      1  0.4383900000000  0.5609330000000  0.4794510000000 1.0
C      1  0.5014020000000  0.4762010000000  0.4692320000000 1.0
C      1  0.5049670000000  0.5243270000000  0.5308280000000 1.0
C      1  0.5016760000000  0.5130990000000  0.5027390000000 1.0
END
