TITL C-91671-8484-8 0.322730244178067 125000 -421.872769449893 0 0 63 (C1) n - 1
REM
REM in /rds/project/t2_vol4/rds-t2-cs072/BORA/CARBON/from-Arr/AIRSS/Generating-Clusters/GAP-ML-2020/Higher-Symm/SD-CG/HFTN-CG
REM
REM
REM
REM
REM
REM ./C.cell (b20cbc046b6831c77cfcea5457e17084)
REM AIRSS Version 0.9.1 bugfix July 2018 build 013d7b7c2542+ Fri, 06 Jul 2018 19:26:36 +0100
REM compiler GCC version 9.3.0
REM options -cpp -mtune=generic -march=x86-64 -g -O0
REM seed 1801598706 1081971003 1710900700 -1241364914 -355305812 -1734194534 1464379455 -348212361 709620330 1105734275 -2126704930 -1011005146 -2023496143 -1428236532 -943682913 1411991985 -2089347235 -1988320371 -1722282235 272135841 1470595450 1380396183 -567109892 779984240 -1039605528 -1302963372 1943882684 1434538429 -84037746 -68288245 -1713546197 -2070096875 1695234077
REM
CELL 1.54180   50.00000   50.00000   50.00000   90.00000   90.00000   90.00000
LATT -1
SFAC C  
C      1  0.5687500000000  0.4902060000000  0.5464470000000 1.0
C      1  0.5655860000000  0.4553650000000  0.5079300000000 1.0
C      1  0.5637660000000  0.4844380000000  0.4714150000000 1.0
C      1  0.5637640000000  0.5271770000000  0.4737890000000 1.0
C      1  0.5492680000000  0.5217860000000  0.5149330000000 1.0
C      1  0.4886960000000  0.4431660000000  0.5338440000000 1.0
C      1  0.4877130000000  0.4491540000000  0.4581960000000 1.0
C      1  0.4889180000000  0.5228320000000  0.4423780000000 1.0
C      1  0.4862030000000  0.5667740000000  0.5019510000000 1.0
C      1  0.4880340000000  0.5117430000000  0.5654820000000 1.0
C      1  0.5091370000000  0.5238390000000  0.4898750000000 1.0
C      1  0.5189710000000  0.5204150000000  0.5177450000000 1.0
C      1  0.5082360000000  0.4939420000000  0.5260010000000 1.0
C      1  0.5093690000000  0.4720650000000  0.5067490000000 1.0
C      1  0.5106540000000  0.4800100000000  0.4790500000000 1.0
C      1  0.4293310000000  0.4951540000000  0.5255790000000 1.0
C      1  0.4294590000000  0.4744090000000  0.5049120000000 1.0
C      1  0.4291890000000  0.4870140000000  0.4781600000000 1.0
C      1  0.4294480000000  0.5155850000000  0.4815620000000 1.0
C      1  0.4355690000000  0.5199910000000  0.5100280000000 1.0
C      1  0.5569620000000  0.4587090000000  0.4817910000000 1.0
C      1  0.5611380000000  0.5075220000000  0.4519980000000 1.0
C      1  0.5545490000000  0.5435210000000  0.4943620000000 1.0
C      1  0.5565690000000  0.5142260000000  0.5431530000000 1.0
C      1  0.5600210000000  0.4667020000000  0.5325490000000 1.0
C      1  0.4865960000000  0.5596720000000  0.4741050000000 1.0
C      1  0.4875760000000  0.5368480000000  0.5523250000000 1.0
C      1  0.4887860000000  0.4636000000000  0.5536650000000 1.0
C      1  0.4883950000000  0.4354330000000  0.4837250000000 1.0
C      1  0.4888780000000  0.4944300000000  0.4364670000000 1.0
C      1  0.5149800000000  0.4328940000000  0.4928460000000 1.0
C      1  0.5153130000000  0.4847680000000  0.4365750000000 1.0
C      1  0.5135570000000  0.5512800000000  0.4692850000000 1.0
C      1  0.5134520000000  0.5419350000000  0.5390110000000 1.0
C      1  0.5148730000000  0.4772030000000  0.5523180000000 1.0
C      1  0.5147240000000  0.4602630000000  0.4550940000000 1.0
C      1  0.5150140000000  0.5327150000000  0.4453650000000 1.0
C      1  0.5120140000000  0.5631250000000  0.5143360000000 1.0
C      1  0.5147940000000  0.5031510000000  0.5667100000000 1.0
C      1  0.5152740000000  0.4447810000000  0.5205580000000 1.0
C      1  0.4664090000000  0.5399500000000  0.5336210000000 1.0
C      1  0.4782600000000  0.4940540000000  0.5258500000000 1.0
C      1  0.4784370000000  0.4732260000000  0.5050800000000 1.0
C      1  0.4811470000000  0.4879190000000  0.4794760000000 1.0
C      1  0.4806340000000  0.5166860000000  0.4864610000000 1.0
C      1  0.4619240000000  0.5644050000000  0.5175530000000 1.0
C      1  0.4701640000000  0.4887270000000  0.5545150000000 1.0
C      1  0.4704050000000  0.4441860000000  0.5083000000000 1.0
C      1  0.4703860000000  0.4749020000000  0.4531910000000 1.0
C      1  0.4703950000000  0.5358710000000  0.4636230000000 1.0
C      1  0.4423140000000  0.4911100000000  0.5499770000000 1.0
C      1  0.4427140000000  0.4499640000000  0.5084660000000 1.0
C      1  0.4423090000000  0.4760050000000  0.4557580000000 1.0
C      1  0.4423810000000  0.5329000000000  0.4641580000000 1.0
C      1  0.4397680000000  0.5485750000000  0.5208500000000 1.0
C      1  0.5321030000000  0.5081710000000  0.4464320000000 1.0
C      1  0.5306580000000  0.5593630000000  0.4911070000000 1.0
C      1  0.5326580000000  0.5237770000000  0.5574130000000 1.0
C      1  0.5338740000000  0.4579440000000  0.5400330000000 1.0
C      1  0.5330160000000  0.4451770000000  0.4726380000000 1.0
C      1  0.5528410000000  0.5040190000000  0.4909760000000 1.0
C      1  0.5258750000000  0.5038990000000  0.4770000000000 1.0
C      1  0.4670260000000  0.5175280000000  0.5132000000000 1.0
END
