TITL C-91683-8512-6 -0.0262722428707685 125000 -248.70048727269 0 0 38 (C1) n - 1
REM
REM in /rds/project/t2_vol4/rds-t2-cs072/BORA/CARBON/from-Arr/AIRSS/Generating-Clusters/GAP-ML-2020/Higher-Symm/SD-CG/HFTN-CG
REM
REM
REM
REM
REM
REM ./C.cell (b20cbc046b6831c77cfcea5457e17084)
REM AIRSS Version 0.9.1 bugfix July 2018 build 013d7b7c2542+ Fri, 06 Jul 2018 19:26:36 +0100
REM compiler GCC version 9.3.0
REM options -cpp -mtune=generic -march=x86-64 -g -O0
REM seed 585665360 1134819176 1427108374 -923819965 1522403058 299450893 -1358953075 -1480377169 -1373337589 248959100 -1973347770 2008678429 -960731639 -1673997621 -443303522 1815817746 1760939802 363941046 1669963311 -1136210810 1071854314 -1753036324 -1516425943 -921170152 -366268021 -1259317152 -2065097080 2119164366 -1215355128 203324992 1917057646 49835450 -555379258
REM
CELL 1.54180   50.00000   50.00000   50.00000   90.00000   90.00000   90.00000
LATT -1
SFAC C  
C      1  0.4886780000000  0.4616240000000  0.4781850000000 1.0
C      1  0.5263180000000  0.4583170000000  0.5047810000000 1.0
C      1  0.4842700000000  0.4612260000000  0.5235600000000 1.0
C      1  0.5097440000000  0.5096500000000  0.5652310000000 1.0
C      1  0.4372100000000  0.5081040000000  0.4766510000000 1.0
C      1  0.5495760000000  0.5102060000000  0.4584860000000 1.0
C      1  0.5075710000000  0.5515060000000  0.4750250000000 1.0
C      1  0.5235170000000  0.5580100000000  0.5189340000000 1.0
C      1  0.4736360000000  0.5559300000000  0.5109520000000 1.0
C      1  0.4415030000000  0.5144440000000  0.5033500000000 1.0
C      1  0.5251040000000  0.5139010000000  0.4464370000000 1.0
C      1  0.5306430000000  0.5148220000000  0.5477630000000 1.0
C      1  0.4571700000000  0.4674520000000  0.5119390000000 1.0
C      1  0.5110390000000  0.4675110000000  0.4592240000000 1.0
C      1  0.5290760000000  0.4676450000000  0.5320170000000 1.0
C      1  0.5394550000000  0.5104970000000  0.5073500000000 1.0
C      1  0.4705240000000  0.5090560000000  0.5330340000000 1.0
C      1  0.4856000000000  0.5080720000000  0.4604730000000 1.0
C      1  0.4604360000000  0.4647200000000  0.4831400000000 1.0
C      1  0.5332230000000  0.4711580000000  0.4796110000000 1.0
C      1  0.5029610000000  0.4652770000000  0.5454350000000 1.0
C      1  0.5063090000000  0.4917570000000  0.4458540000000 1.0
C      1  0.5413620000000  0.4929710000000  0.5319930000000 1.0
C      1  0.4487070000000  0.4926820000000  0.5210250000000 1.0
C      1  0.5046870000000  0.5317910000000  0.4581500000000 1.0
C      1  0.5327010000000  0.5337190000000  0.5254530000000 1.0
C      1  0.4608210000000  0.5331540000000  0.5167140000000 1.0
C      1  0.4808880000000  0.5073470000000  0.5601830000000 1.0
C      1  0.4573150000000  0.5056310000000  0.4551390000000 1.0
C      1  0.5591620000000  0.5109050000000  0.4851950000000 1.0
C      1  0.5186850000000  0.4953490000000  0.4919640000000 1.0
C      1  0.4900740000000  0.4918140000000  0.5180330000000 1.0
C      1  0.4888780000000  0.4926630000000  0.4878210000000 1.0
C      1  0.4972510000000  0.4853120000000  0.5641330000000 1.0
C      1  0.4462080000000  0.4833370000000  0.4676240000000 1.0
C      1  0.5565040000000  0.4863340000000  0.4717590000000 1.0
C      1  0.5008600000000  0.5577880000000  0.5014420000000 1.0
C      1  0.4998740000000  0.4491460000000  0.5020320000000 1.0
END
