TITL C-91667-8580-1 -153.358372614496 125000 -671.407415662095 0 0 98 (C1) n - 1
REM
REM in /rds/project/t2_vol4/rds-t2-cs072/BORA/CARBON/from-Arr/AIRSS/Generating-Clusters/GAP-ML-2020/Higher-Symm/SD-CG/HFTN-CG
REM
REM
REM
REM
REM
REM ./C.cell (b20cbc046b6831c77cfcea5457e17084)
REM AIRSS Version 0.9.1 bugfix July 2018 build 013d7b7c2542+ Fri, 06 Jul 2018 19:26:36 +0100
REM compiler GCC version 9.3.0
REM options -cpp -mtune=generic -march=x86-64 -g -O0
REM seed 1015188925 -796676795 -1009858640 185942828 -3791114 -336894945 1198079511 2011034070 1530218597 1506532635 1606163272 1953900639 -697145928 702752553 -670106873 -1650761820 -1566828360 -1547785784 -1986582365 -340785550 1999275478 671027766 -660580156 -1554582325 -1039646462 1388045246 1731819285 -1071300847 1330616071 19998751 2417609 1349913511 -1446230429
REM
CELL 1.54180   50.00000   50.00000   50.00000   90.00000   90.00000   90.00000
LATT -1
SFAC C  
C      1  0.4406430000000  0.5436550000000  0.4653690000000 1.0
C      1  0.5043070000000  0.4223670000000  0.4480310000000 1.0
C      1  0.4803130000000  0.5675930000000  0.5358760000000 1.0
C      1  0.5514840000000  0.5414280000000  0.4733780000000 1.0
C      1  0.5597390000000  0.5053850000000  0.5553330000000 1.0
C      1  0.5761010000000  0.5295110000000  0.5164860000000 1.0
C      1  0.5366300000000  0.5178760000000  0.4575760000000 1.0
C      1  0.4640520000000  0.5089420000000  0.4849500000000 1.0
C      1  0.4659140000000  0.4739200000000  0.5243510000000 1.0
C      1  0.4715110000000  0.4967260000000  0.4406960000000 1.0
C      1  0.4680010000000  0.4691340000000  0.5690580000000 1.0
C      1  0.4710340000000  0.4982260000000  0.5682300000000 1.0
C      1  0.5407790000000  0.5653080000000  0.4583060000000 1.0
C      1  0.5803260000000  0.4770930000000  0.4925740000000 1.0
C      1  0.5451430000000  0.4818570000000  0.5636410000000 1.0
C      1  0.4842540000000  0.5504700000000  0.4943100000000 1.0
C      1  0.4990550000000  0.5027360000000  0.5749950000000 1.0
C      1  0.4889150000000  0.5770710000000  0.5104300000000 1.0
C      1  0.5254030000000  0.5433080000000  0.5659640000000 1.0
C      1  0.4442960000000  0.5617070000000  0.4880630000000 1.0
C      1  0.4935790000000  0.5426270000000  0.5437290000000 1.0
C      1  0.4611350000000  0.4782970000000  0.4941880000000 1.0
C      1  0.5727920000000  0.5009710000000  0.4802210000000 1.0
C      1  0.5398280000000  0.4455410000000  0.4741930000000 1.0
C      1  0.4572550000000  0.5494650000000  0.4450260000000 1.0
C      1  0.4187180000000  0.5008160000000  0.5161230000000 1.0
C      1  0.5579160000000  0.5465020000000  0.5308820000000 1.0
C      1  0.4444290000000  0.4936900000000  0.4472380000000 1.0
C      1  0.5651270000000  0.4392660000000  0.5134040000000 1.0
C      1  0.5667000000000  0.4509710000000  0.4877810000000 1.0
C      1  0.5233830000000  0.4339160000000  0.4966090000000 1.0
C      1  0.5333220000000  0.5573130000000  0.4325560000000 1.0
C      1  0.4866880000000  0.4723110000000  0.4370300000000 1.0
C      1  0.5076410000000  0.5290570000000  0.4570210000000 1.0
C      1  0.4227580000000  0.5277150000000  0.5253700000000 1.0
C      1  0.5185310000000  0.5572860000000  0.5430500000000 1.0
C      1  0.5446090000000  0.4773740000000  0.4373640000000 1.0
C      1  0.5305670000000  0.4564890000000  0.4254220000000 1.0
C      1  0.4681770000000  0.4086370000000  0.4792610000000 1.0
C      1  0.5145880000000  0.4817840000000  0.5637050000000 1.0
C      1  0.4687010000000  0.5292440000000  0.5050930000000 1.0
C      1  0.4943570000000  0.4416380000000  0.4991390000000 1.0
C      1  0.5340050000000  0.5605780000000  0.5185350000000 1.0
C      1  0.5781600000000  0.5051800000000  0.5329070000000 1.0
C      1  0.5420350000000  0.5337570000000  0.4183580000000 1.0
C      1  0.5082240000000  0.4725770000000  0.4170690000000 1.0
C      1  0.4539550000000  0.5587550000000  0.5393050000000 1.0
C      1  0.5168710000000  0.4996660000000  0.4143950000000 1.0
C      1  0.4371630000000  0.5130070000000  0.4694700000000 1.0
C      1  0.4461680000000  0.4623230000000  0.5463990000000 1.0
C      1  0.5434870000000  0.4980630000000  0.4778960000000 1.0
C      1  0.4666140000000  0.5280590000000  0.5756640000000 1.0
C      1  0.4811640000000  0.5616580000000  0.4403880000000 1.0
C      1  0.4962780000000  0.4930160000000  0.4849600000000 1.0
C      1  0.5391680000000  0.4300280000000  0.5202630000000 1.0
C      1  0.4775750000000  0.4232150000000  0.4561070000000 1.0
C      1  0.4864930000000  0.5179660000000  0.5253340000000 1.0
C      1  0.4909470000000  0.4570530000000  0.5240600000000 1.0
C      1  0.5337360000000  0.4734590000000  0.4649630000000 1.0
C      1  0.5041580000000  0.4754390000000  0.4639690000000 1.0
C      1  0.4237140000000  0.4839020000000  0.5423750000000 1.0
C      1  0.5275360000000  0.4357030000000  0.4462490000000 1.0
C      1  0.4171970000000  0.5014230000000  0.5628040000000 1.0
C      1  0.5547120000000  0.4567650000000  0.5545660000000 1.0
C      1  0.5318220000000  0.5391030000000  0.4966910000000 1.0
C      1  0.4953920000000  0.4588750000000  0.5708510000000 1.0
C      1  0.4432830000000  0.5460880000000  0.5146220000000 1.0
C      1  0.4686520000000  0.4523420000000  0.4525790000000 1.0
C      1  0.5419840000000  0.5059560000000  0.4309390000000 1.0
C      1  0.4894710000000  0.4336560000000  0.5421250000000 1.0
C      1  0.5081190000000  0.4999730000000  0.5132480000000 1.0
C      1  0.5044270000000  0.5454140000000  0.4313480000000 1.0
C      1  0.4734720000000  0.4191250000000  0.5034160000000 1.0
C      1  0.4695030000000  0.4994690000000  0.5384040000000 1.0
C      1  0.4857690000000  0.5103910000000  0.4637450000000 1.0
C      1  0.4821620000000  0.4610410000000  0.4793320000000 1.0
C      1  0.5081940000000  0.5459080000000  0.4803990000000 1.0
C      1  0.5322690000000  0.5106390000000  0.5033010000000 1.0
C      1  0.4654000000000  0.4212390000000  0.5317780000000 1.0
C      1  0.4884330000000  0.5791860000000  0.4624530000000 1.0
C      1  0.5750010000000  0.5283380000000  0.4878570000000 1.0
C      1  0.4439870000000  0.4339010000000  0.5432260000000 1.0
C      1  0.4418460000000  0.4666400000000  0.4544860000000 1.0
C      1  0.5842270000000  0.4802390000000  0.5212310000000 1.0
C      1  0.5110090000000  0.4769950000000  0.5310160000000 1.0
C      1  0.4240790000000  0.5269240000000  0.5542060000000 1.0
C      1  0.4203230000000  0.4960770000000  0.4883720000000 1.0
C      1  0.4470400000000  0.5422940000000  0.5618630000000 1.0
C      1  0.4335950000000  0.4720020000000  0.4808810000000 1.0
C      1  0.4971150000000  0.5313930000000  0.5721340000000 1.0
C      1  0.5344370000000  0.4367990000000  0.5484930000000 1.0
C      1  0.5169610000000  0.5807650000000  0.5029440000000 1.0
C      1  0.5163050000000  0.5750710000000  0.4738360000000 1.0
C      1  0.5743590000000  0.4567820000000  0.5339970000000 1.0
C      1  0.5089950000000  0.4349720000000  0.5613080000000 1.0
C      1  0.5143030000000  0.5270550000000  0.4099640000000 1.0
C      1  0.5493930000000  0.5326230000000  0.5548380000000 1.0
C      1  0.4706120000000  0.5759060000000  0.4860570000000 1.0
END
