TITL C-91679-8382-10 0.0197352965138797 125000 -679.649774866224 0 0 96 (C1) n - 1
REM
REM in /rds/project/t2_vol4/rds-t2-cs072/BORA/CARBON/from-Arr/AIRSS/Generating-Clusters/GAP-ML-2020/Higher-Symm/SD-CG/HFTN-CG
REM
REM
REM
REM
REM
REM ./C.cell (b20cbc046b6831c77cfcea5457e17084)
REM AIRSS Version 0.9.1 bugfix July 2018 build 013d7b7c2542+ Fri, 06 Jul 2018 19:26:36 +0100
REM compiler GCC version 9.3.0
REM options -cpp -mtune=generic -march=x86-64 -g -O0
REM seed -514248348 -692653126 -180640450 -855874404 1664441155 -878045805 129758751 -454467980 55364382 1258823062 160191065 462557295 143170609 1636378095 2005946642 720155943 862443762 884163519 -427365011 694073893 -993839280 636116896 1946618780 -925474633 -732745961 1628954020 -1982943134 -1175543883 -425359948 1269635114 2033393511 1705671394 1289762508
REM
CELL 1.54180   50.00000   50.00000   50.00000   90.00000   90.00000   90.00000
LATT -1
SFAC C  
C      1  0.5373490000000  0.5708300000000  0.5353950000000 1.0
C      1  0.5769560000000  0.4881020000000  0.5350430000000 1.0
C      1  0.5105860000000  0.4214310000000  0.5348100000000 1.0
C      1  0.4296000000000  0.4658820000000  0.5356240000000 1.0
C      1  0.4462910000000  0.5568200000000  0.5360660000000 1.0
C      1  0.5371840000000  0.5702680000000  0.4646380000000 1.0
C      1  0.5761320000000  0.4864800000000  0.4641750000000 1.0
C      1  0.5106290000000  0.4212940000000  0.4642580000000 1.0
C      1  0.4299180000000  0.4642350000000  0.4642650000000 1.0
C      1  0.4446900000000  0.5560720000000  0.4644160000000 1.0
C      1  0.5759880000000  0.5181450000000  0.5350830000000 1.0
C      1  0.5386630000000  0.4323450000000  0.5338120000000 1.0
C      1  0.4488970000000  0.4425370000000  0.5339150000000 1.0
C      1  0.4291690000000  0.5318390000000  0.5351120000000 1.0
C      1  0.5082990000000  0.5790320000000  0.5353630000000 1.0
C      1  0.5742080000000  0.5166670000000  0.4657060000000 1.0
C      1  0.5389020000000  0.4319260000000  0.4644460000000 1.0
C      1  0.4484680000000  0.4405430000000  0.4642640000000 1.0
C      1  0.4277700000000  0.5312980000000  0.4648970000000 1.0
C      1  0.5080120000000  0.5781230000000  0.4657010000000 1.0
C      1  0.4909280000000  0.5233590000000  0.4153350000000 1.0
C      1  0.5182590000000  0.5150360000000  0.4164930000000 1.0
C      1  0.5190210000000  0.4863680000000  0.4165290000000 1.0
C      1  0.4921150000000  0.4767020000000  0.4154580000000 1.0
C      1  0.4746490000000  0.4995370000000  0.4149550000000 1.0
C      1  0.4927560000000  0.5230760000000  0.5836620000000 1.0
C      1  0.5200900000000  0.5150170000000  0.5845480000000 1.0
C      1  0.5207910000000  0.4861810000000  0.5841830000000 1.0
C      1  0.4937570000000  0.4767130000000  0.5835040000000 1.0
C      1  0.4764770000000  0.4994560000000  0.5829770000000 1.0
C      1  0.5564670000000  0.5634640000000  0.5151200000000 1.0
C      1  0.5656410000000  0.4713330000000  0.5129040000000 1.0
C      1  0.4907440000000  0.4159870000000  0.5147700000000 1.0
C      1  0.4192980000000  0.4838130000000  0.5165620000000 1.0
C      1  0.4599920000000  0.5721450000000  0.5167420000000 1.0
C      1  0.5563600000000  0.5629410000000  0.4845780000000 1.0
C      1  0.5736350000000  0.4661390000000  0.4832260000000 1.0
C      1  0.4908160000000  0.4154530000000  0.4842070000000 1.0
C      1  0.4287460000000  0.4839750000000  0.4867820000000 1.0
C      1  0.4633930000000  0.5632380000000  0.4869640000000 1.0
C      1  0.5406430000000  0.5313140000000  0.5727350000000 1.0
C      1  0.5421740000000  0.4711300000000  0.5717980000000 1.0
C      1  0.4858050000000  0.4515790000000  0.5718810000000 1.0
C      1  0.4497300000000  0.4987390000000  0.5724430000000 1.0
C      1  0.4841480000000  0.5481340000000  0.5727190000000 1.0
C      1  0.5393820000000  0.5309870000000  0.4276880000000 1.0
C      1  0.5408080000000  0.4709970000000  0.4273170000000 1.0
C      1  0.4848340000000  0.4511560000000  0.4265780000000 1.0
C      1  0.4484670000000  0.4986110000000  0.4271330000000 1.0
C      1  0.4824910000000  0.5483650000000  0.4275560000000 1.0
C      1  0.5616730000000  0.5165600000000  0.5607950000000 1.0
C      1  0.5339130000000  0.4467980000000  0.5590570000000 1.0
C      1  0.4598080000000  0.4510310000000  0.5601390000000 1.0
C      1  0.4412830000000  0.5234040000000  0.5607910000000 1.0
C      1  0.5044790000000  0.5640330000000  0.5605650000000 1.0
C      1  0.5605350000000  0.5160520000000  0.4394750000000 1.0
C      1  0.5334360000000  0.4461240000000  0.4391520000000 1.0
C      1  0.4590880000000  0.4503080000000  0.4384490000000 1.0
C      1  0.4401490000000  0.5231810000000  0.4392580000000 1.0
C      1  0.5033940000000  0.5634690000000  0.4403760000000 1.0
C      1  0.4418910000000  0.4735810000000  0.5613810000000 1.0
C      1  0.4579030000000  0.5470290000000  0.5615080000000 1.0
C      1  0.5324340000000  0.5559100000000  0.5604950000000 1.0
C      1  0.5627990000000  0.4874530000000  0.5607890000000 1.0
C      1  0.5066790000000  0.4363330000000  0.5599880000000 1.0
C      1  0.4412540000000  0.4733470000000  0.4386500000000 1.0
C      1  0.4563060000000  0.5475830000000  0.4387330000000 1.0
C      1  0.5314130000000  0.5557590000000  0.4395280000000 1.0
C      1  0.5614600000000  0.4872590000000  0.4385250000000 1.0
C      1  0.5060710000000  0.4362960000000  0.4390200000000 1.0
C      1  0.4627160000000  0.4257730000000  0.4842850000000 1.0
C      1  0.4197280000000  0.5132250000000  0.4854190000000 1.0
C      1  0.4881040000000  0.5812290000000  0.4858000000000 1.0
C      1  0.5723190000000  0.5374530000000  0.4853230000000 1.0
C      1  0.5579760000000  0.4409830000000  0.4840540000000 1.0
C      1  0.4626050000000  0.4268480000000  0.5141410000000 1.0
C      1  0.4184290000000  0.5136160000000  0.5154020000000 1.0
C      1  0.4874880000000  0.5834080000000  0.5157260000000 1.0
C      1  0.5728730000000  0.5383480000000  0.5150880000000 1.0
C      1  0.5563290000000  0.4421910000000  0.5138830000000 1.0
C      1  0.4888290000000  0.5201140000000  0.4700480000000 1.0
C      1  0.5182410000000  0.5175000000000  0.4794940000000 1.0
C      1  0.5289490000000  0.4890690000000  0.4804420000000 1.0
C      1  0.5029330000000  0.4726520000000  0.4769060000000 1.0
C      1  0.4796880000000  0.4916580000000  0.4728550000000 1.0
C      1  0.4811890000000  0.5222440000000  0.5172530000000 1.0
C      1  0.5110380000000  0.5222980000000  0.5254490000000 1.0
C      1  0.5196720000000  0.4930660000000  0.5288160000000 1.0
C      1  0.4947360000000  0.4774200000000  0.5227530000000 1.0
C      1  0.4684440000000  0.4947210000000  0.5193350000000 1.0
C      1  0.4752970000000  0.5350730000000  0.4913400000000 1.0
C      1  0.5238520000000  0.5337110000000  0.5025470000000 1.0
C      1  0.4989680000000  0.4586120000000  0.5014240000000 1.0
C      1  0.5397230000000  0.4867040000000  0.5077710000000 1.0
C      1  0.4586630000000  0.4868930000000  0.4929250000000 1.0
C      1  0.4992190000000  0.5002210000000  0.4997180000000 1.0
END
