TITL C-91677-8616-8 134.084915337676 125000 -1003.59731482676 0 0 138 (C3i) n - 1
REM
REM in /rds/project/t2_vol4/rds-t2-cs072/BORA/CARBON/from-Arr/AIRSS/Generating-Clusters/GAP-ML-2020/Higher-Symm/SD-CG/HFTN-CG
REM
REM
REM
REM
REM
REM ./C.cell (b20cbc046b6831c77cfcea5457e17084)
REM AIRSS Version 0.9.1 bugfix July 2018 build 013d7b7c2542+ Fri, 06 Jul 2018 19:26:36 +0100
REM compiler GCC version 9.3.0
REM options -cpp -mtune=generic -march=x86-64 -g -O0
REM seed -631484146 -81070012 -1718229195 1379477560 126297847 -1631587744 -814222144 -365435987 -1356118128 -1941440515 -1331379287 2017667120 486066074 -600055066 -18847143 845249978 -315774467 -1112005812 1496506851 -1858138126 17129937 -461510949 2013243194 -863970067 1375450498 816326006 -972048935 1410739904 532986204 -369070511 815626861 360403325 1668631919
REM
CELL 1.54180   50.00000   50.00000   50.00000   90.00000   90.00000   90.00000
LATT -1
SFAC C  
C      1  0.4208110000000  0.4465140000000  0.5011980000000 1.0
C      1  0.4614170000000  0.5534640000000  0.5691830000000 1.0
C      1  0.5406480000000  0.4465510000000  0.5680010000000 1.0
C      1  0.5791890000000  0.5534860000000  0.4988020000000 1.0
C      1  0.5385830000000  0.4465360000000  0.4308170000000 1.0
C      1  0.4593520000000  0.5534490000000  0.4319990000000 1.0
C      1  0.5175960000000  0.4553260000000  0.5820120000000 1.0
C      1  0.5798020000000  0.5447090000000  0.5257710000000 1.0
C      1  0.5622400000000  0.4553240000000  0.4437720000000 1.0
C      1  0.4824040000000  0.5446730000000  0.4179880000000 1.0
C      1  0.4201990000000  0.4552910000000  0.4742290000000 1.0
C      1  0.4377600000000  0.5446760000000  0.5562280000000 1.0
C      1  0.4671300000000  0.5073880000000  0.5883260000000 1.0
C      1  0.5600610000000  0.4926360000000  0.5726290000000 1.0
C      1  0.5929260000000  0.5074090000000  0.4843010000000 1.0
C      1  0.5328700000000  0.4926120000000  0.4116740000000 1.0
C      1  0.4399390000000  0.5073640000000  0.4273710000000 1.0
C      1  0.4070740000000  0.4925910000000  0.5156990000000 1.0
C      1  0.5263300000000  0.4780210000000  0.4914570000000 1.0
C      1  0.5057560000000  0.5219830000000  0.4729270000000 1.0
C      1  0.4794430000000  0.4780090000000  0.4814770000000 1.0
C      1  0.4736700000000  0.5219790000000  0.5085430000000 1.0
C      1  0.4942440000000  0.4780170000000  0.5270730000000 1.0
C      1  0.5205570000000  0.5219920000000  0.5185230000000 1.0
C      1  0.5471230000000  0.4919990000000  0.4826980000000 1.0
C      1  0.5085740000000  0.5080080000000  0.4505390000000 1.0
C      1  0.4614570000000  0.4919760000000  0.4678440000000 1.0
C      1  0.4528770000000  0.5080010000000  0.5173020000000 1.0
C      1  0.4914260000000  0.4919920000000  0.5494610000000 1.0
C      1  0.5385430000000  0.5080240000000  0.5321560000000 1.0
C      1  0.5279290000000  0.6063020000000  0.5045190000000 1.0
C      1  0.5179280000000  0.3937080000000  0.4780650000000 1.0
C      1  0.4899180000000  0.6062890000000  0.4735140000000 1.0
C      1  0.4720710000000  0.3936980000000  0.4954810000000 1.0
C      1  0.4820720000000  0.6062920000000  0.5219350000000 1.0
C      1  0.5100820000000  0.3937110000000  0.5264860000000 1.0
C      1  0.4348420000000  0.4234530000000  0.5094320000000 1.0
C      1  0.4755530000000  0.5765310000000  0.5611500000000 1.0
C      1  0.5407700000000  0.4234850000000  0.5517410000000 1.0
C      1  0.5651580000000  0.5765470000000  0.4905680000000 1.0
C      1  0.5244470000000  0.4234690000000  0.4388500000000 1.0
C      1  0.4592300000000  0.5765150000000  0.4482590000000 1.0
C      1  0.5393550000000  0.4815780000000  0.5360490000000 1.0
C      1  0.5508880000000  0.5184470000000  0.4839430000000 1.0
C      1  0.5115470000000  0.4815620000000  0.4479000000000 1.0
C      1  0.4606450000000  0.5184220000000  0.4639510000000 1.0
C      1  0.4491120000000  0.4815540000000  0.5160570000000 1.0
C      1  0.4884530000000  0.5184380000000  0.5521000000000 1.0
C      1  0.5195280000000  0.4673510000000  0.4223890000000 1.0
C      1  0.4425350000000  0.5326260000000  0.4442850000000 1.0
C      1  0.4230330000000  0.4673370000000  0.5219060000000 1.0
C      1  0.4804720000000  0.5326490000000  0.5776110000000 1.0
C      1  0.5574640000000  0.4673740000000  0.5557150000000 1.0
C      1  0.5769680000000  0.5326630000000  0.4780940000000 1.0
C      1  0.4646960000000  0.4979310000000  0.4143090000000 1.0
C      1  0.4081360000000  0.5020270000000  0.4877290000000 1.0
C      1  0.4434420000000  0.4979420000000  0.5734210000000 1.0
C      1  0.5353040000000  0.5020690000000  0.5856910000000 1.0
C      1  0.5918640000000  0.4979730000000  0.5122710000000 1.0
C      1  0.5565580000000  0.5020580000000  0.4265790000000 1.0
C      1  0.4490050000000  0.4092110000000  0.4890340000000 1.0
C      1  0.4649630000000  0.5907700000000  0.5386860000000 1.0
C      1  0.5160270000000  0.4092340000000  0.5496800000000 1.0
C      1  0.5509950000000  0.5907890000000  0.5109660000000 1.0
C      1  0.5350370000000  0.4092300000000  0.4613140000000 1.0
C      1  0.4839730000000  0.5907660000000  0.4503200000000 1.0
C      1  0.5731010000000  0.4530500000000  0.5325480000000 1.0
C      1  0.5647150000000  0.5469830000000  0.4529700000000 1.0
C      1  0.4916500000000  0.4530180000000  0.4204360000000 1.0
C      1  0.4268990000000  0.5469500000000  0.4674520000000 1.0
C      1  0.4352850000000  0.4530170000000  0.5470300000000 1.0
C      1  0.5083500000000  0.5469820000000  0.5795640000000 1.0
C      1  0.4129530000000  0.5380390000000  0.5172300000000 1.0
C      1  0.4714160000000  0.4619420000000  0.5839970000000 1.0
C      1  0.5584340000000  0.5380810000000  0.5667550000000 1.0
C      1  0.5870460000000  0.4619610000000  0.4827700000000 1.0
C      1  0.5285840000000  0.5380580000000  0.4160030000000 1.0
C      1  0.4415660000000  0.4619190000000  0.4332450000000 1.0
C      1  0.4737320000000  0.4688150000000  0.5083460000000 1.0
C      1  0.4940790000000  0.5311810000000  0.5269240000000 1.0
C      1  0.5203710000000  0.4688270000000  0.5185870000000 1.0
C      1  0.5262680000000  0.5311850000000  0.4916540000000 1.0
C      1  0.5059210000000  0.4688190000000  0.4730760000000 1.0
C      1  0.4796290000000  0.5311730000000  0.4814130000000 1.0
C      1  0.5333900000000  0.5311530000000  0.5815450000000 1.0
C      1  0.5873300000000  0.4688870000000  0.5118540000000 1.0
C      1  0.5539160000000  0.5311430000000  0.4302990000000 1.0
C      1  0.4666100000000  0.4688470000000  0.4184550000000 1.0
C      1  0.4126700000000  0.5311130000000  0.4881460000000 1.0
C      1  0.4460840000000  0.4688570000000  0.5697010000000 1.0
C      1  0.5039170000000  0.5730990000000  0.5660590000000 1.0
C      1  0.5592010000000  0.4269260000000  0.5296320000000 1.0
C      1  0.5552290000000  0.5731020000000  0.4635510000000 1.0
C      1  0.4960830000000  0.4269010000000  0.4339410000000 1.0
C      1  0.4407990000000  0.5730740000000  0.4703680000000 1.0
C      1  0.4447710000000  0.4268980000000  0.5364490000000 1.0
C      1  0.4815150000000  0.3944710000000  0.5221480000000 1.0
C      1  0.5098890000000  0.6055320000000  0.5270890000000 1.0
C      1  0.5284540000000  0.3944810000000  0.5049730000000 1.0
C      1  0.5184850000000  0.6055290000000  0.4778520000000 1.0
C      1  0.4901110000000  0.3944680000000  0.4729110000000 1.0
C      1  0.4715460000000  0.6055190000000  0.4950270000000 1.0
C      1  0.5088970000000  0.5800890000000  0.4399250000000 1.0
C      1  0.4524590000000  0.4198920000000  0.4622520000000 1.0
C      1  0.4435010000000  0.5800800000000  0.5223030000000 1.0
C      1  0.4911030000000  0.4199110000000  0.5600750000000 1.0
C      1  0.5475410000000  0.5801080000000  0.5377480000000 1.0
C      1  0.5564990000000  0.4199200000000  0.4776970000000 1.0
C      1  0.4479280000000  0.5881190000000  0.4944970000000 1.0
C      1  0.4692400000000  0.4118640000000  0.5423380000000 1.0
C      1  0.5212450000000  0.5881430000000  0.5478140000000 1.0
C      1  0.5520710000000  0.4118810000000  0.5055030000000 1.0
C      1  0.5307600000000  0.5881360000000  0.4576620000000 1.0
C      1  0.4787550000000  0.4118570000000  0.4521860000000 1.0
C      1  0.5042910000000  0.4416640000000  0.4837240000000 1.0
C      1  0.4880230000000  0.5583310000000  0.4881500000000 1.0
C      1  0.4837760000000  0.4416610000000  0.5044440000000 1.0
C      1  0.4957100000000  0.5583360000000  0.5162760000000 1.0
C      1  0.5119770000000  0.4416690000000  0.5118500000000 1.0
C      1  0.5162240000000  0.5583390000000  0.4955560000000 1.0
C      1  0.4289010000000  0.5573430000000  0.5318960000000 1.0
C      1  0.4921000000000  0.4426480000000  0.5775180000000 1.0
C      1  0.5631560000000  0.5573780000000  0.5456040000000 1.0
C      1  0.5710990000000  0.4426570000000  0.4681040000000 1.0
C      1  0.5079000000000  0.5573520000000  0.4224820000000 1.0
C      1  0.4368440000000  0.4426220000000  0.4543960000000 1.0
C      1  0.4859820000000  0.5172870000000  0.4094860000000 1.0
C      1  0.4146120000000  0.4826750000000  0.4668820000000 1.0
C      1  0.4286170000000  0.5172870000000  0.5573900000000 1.0
C      1  0.5140180000000  0.4827130000000  0.5905140000000 1.0
C      1  0.5853880000000  0.5173250000000  0.5331180000000 1.0
C      1  0.5713830000000  0.4827130000000  0.4426100000000 1.0
C      1  0.5737350000000  0.5148400000000  0.5607330000000 1.0
C      1  0.5894710000000  0.4852040000000  0.4665090000000 1.0
C      1  0.5157250000000  0.5148100000000  0.4057710000000 1.0
C      1  0.4262650000000  0.4851600000000  0.4392670000000 1.0
C      1  0.4105290000000  0.5147960000000  0.5334910000000 1.0
C      1  0.4842750000000  0.4851900000000  0.5942290000000 1.0
END
