TITL C-91692-8885-8 -0.0393115577980848 125000 -412.493048586479 0 0 59 (C1) n - 1
REM
REM in /rds/project/t2_vol4/rds-t2-cs072/BORA/CARBON/from-Arr/AIRSS/Generating-Clusters/GAP-ML-2020/Higher-Symm/SD-CG/HFTN-CG
REM
REM
REM
REM
REM
REM ./C.cell (b20cbc046b6831c77cfcea5457e17084)
REM AIRSS Version 0.9.1 bugfix July 2018 build 013d7b7c2542+ Fri, 06 Jul 2018 19:26:36 +0100
REM compiler GCC version 9.3.0
REM options -cpp -mtune=generic -march=x86-64 -g -O0
REM seed -107674791 -1275119580 -1947460849 -1709229887 797102432 268703038 1428967846 -1715394229 918880501 1088676563 2469338 617152426 2132653455 -1940941673 -265392592 1771086667 138194097 -1814305725 -373793589 1766705981 -1169068383 -106660650 -1279413454 1252391477 -667400850 -1940751342 -2007812842 994697919 -1621599327 1883280326 1655624474 1286121962 -361485796
REM
CELL 1.54180   50.00000   50.00000   50.00000   90.00000   90.00000   90.00000
LATT -1
SFAC C  
C      1  0.4322890000000  0.5252760000000  0.4830310000000 1.0
C      1  0.4302100000000  0.5293570000000  0.5112900000000 1.0
C      1  0.4301470000000  0.5108980000000  0.5328630000000 1.0
C      1  0.4314120000000  0.4829340000000  0.5306420000000 1.0
C      1  0.4328570000000  0.4680660000000  0.5067350000000 1.0
C      1  0.4341710000000  0.4756360000000  0.4793090000000 1.0
C      1  0.4356840000000  0.5013300000000  0.4681690000000 1.0
C      1  0.5421050000000  0.4822170000000  0.5046460000000 1.0
C      1  0.5115230000000  0.4774230000000  0.4917820000000 1.0
C      1  0.5153260000000  0.4863390000000  0.4642140000000 1.0
C      1  0.5188200000000  0.5168680000000  0.4544150000000 1.0
C      1  0.5372600000000  0.5214190000000  0.4788680000000 1.0
C      1  0.5182730000000  0.5201490000000  0.5050570000000 1.0
C      1  0.5387510000000  0.5051810000000  0.5208500000000 1.0
C      1  0.5087370000000  0.4384240000000  0.5145600000000 1.0
C      1  0.5104300000000  0.4446100000000  0.4606620000000 1.0
C      1  0.5169090000000  0.4791890000000  0.4222250000000 1.0
C      1  0.5053930000000  0.5604560000000  0.4711460000000 1.0
C      1  0.5072600000000  0.5477440000000  0.5169180000000 1.0
C      1  0.5065470000000  0.5225220000000  0.5579350000000 1.0
C      1  0.5088360000000  0.4716520000000  0.5529770000000 1.0
C      1  0.5374540000000  0.4372920000000  0.5126600000000 1.0
C      1  0.5384040000000  0.4484440000000  0.4667220000000 1.0
C      1  0.5439670000000  0.4829280000000  0.4309520000000 1.0
C      1  0.5318480000000  0.5684180000000  0.4713630000000 1.0
C      1  0.5364990000000  0.5560970000000  0.5180110000000 1.0
C      1  0.5353200000000  0.5267040000000  0.5571970000000 1.0
C      1  0.5371170000000  0.4740800000000  0.5491370000000 1.0
C      1  0.5456520000000  0.5021240000000  0.5479700000000 1.0
C      1  0.5475220000000  0.4613430000000  0.5245910000000 1.0
C      1  0.5475240000000  0.4332250000000  0.4865670000000 1.0
C      1  0.5456520000000  0.4765910000000  0.4588960000000 1.0
C      1  0.5280150000000  0.5057430000000  0.4269020000000 1.0
C      1  0.5439760000000  0.5501970000000  0.4872520000000 1.0
C      1  0.5456370000000  0.5485500000000  0.5418200000000 1.0
C      1  0.4670900000000  0.4520770000000  0.5364730000000 1.0
C      1  0.4689380000000  0.4449940000000  0.4875190000000 1.0
C      1  0.4721110000000  0.4764380000000  0.4492310000000 1.0
C      1  0.4706160000000  0.5300320000000  0.4546740000000 1.0
C      1  0.4640160000000  0.5581060000000  0.4952450000000 1.0
C      1  0.4644090000000  0.5418930000000  0.5420390000000 1.0
C      1  0.4659710000000  0.4957790000000  0.5607940000000 1.0
C      1  0.4956070000000  0.4509100000000  0.5371840000000 1.0
C      1  0.4976530000000  0.4471510000000  0.4883430000000 1.0
C      1  0.5003670000000  0.4684080000000  0.4448760000000 1.0
C      1  0.4979440000000  0.5373290000000  0.4559620000000 1.0
C      1  0.4918510000000  0.5616440000000  0.4961860000000 1.0
C      1  0.4926940000000  0.5419060000000  0.5422680000000 1.0
C      1  0.4947310000000  0.4962070000000  0.5611330000000 1.0
C      1  0.4527800000000  0.5431290000000  0.4733130000000 1.0
C      1  0.4500950000000  0.5493980000000  0.5183220000000 1.0
C      1  0.4509800000000  0.5186110000000  0.5518780000000 1.0
C      1  0.4527020000000  0.4735270000000  0.5485770000000 1.0
C      1  0.4536480000000  0.4481110000000  0.5111860000000 1.0
C      1  0.4562220000000  0.4607460000000  0.4670840000000 1.0
C      1  0.4600690000000  0.5029830000000  0.4515010000000 1.0
C      1  0.5528350000000  0.4948420000000  0.4799330000000 1.0
C      1  0.4710020000000  0.5023910000000  0.5056470000000 1.0
C      1  0.4964540000000  0.4991860000000  0.5038220000000 1.0
END
