TITL C-91687-8334-3 -2.70684566232272 125000 -473.919944225906 0 0 65 (C1) n - 1
REM
REM in /rds/project/t2_vol4/rds-t2-cs072/BORA/CARBON/from-Arr/AIRSS/Generating-Clusters/GAP-ML-2020/Higher-Symm/SD-CG/HFTN-CG
REM
REM
REM
REM
REM
REM ./C.cell (b20cbc046b6831c77cfcea5457e17084)
REM AIRSS Version 0.9.1 bugfix July 2018 build 013d7b7c2542+ Fri, 06 Jul 2018 19:26:36 +0100
REM compiler GCC version 9.3.0
REM options -cpp -mtune=generic -march=x86-64 -g -O0
REM seed 1951900362 2003149421 1157421257 -767256719 -739845771 1348674312 952732497 -1801703378 -1877180330 -773004953 2004400319 -1347530656 1010839982 1496917279 -590581303 579591239 -1852434100 -20146498 -917584986 -649204237 1871231936 -1103940825 -789891899 505382001 -1456212992 1611160983 1469858760 1257532278 1923812163 1278446858 1208364239 1245344460 -2069810943
REM
CELL 1.54180   50.00000   50.00000   50.00000   90.00000   90.00000   90.00000
LATT -1
SFAC C  
C      1  0.5613440000000  0.5078310000000  0.5402250000000 1.0
C      1  0.5264110000000  0.4436830000000  0.5385630000000 1.0
C      1  0.4542690000000  0.4554080000000  0.5367350000000 1.0
C      1  0.4438780000000  0.5278620000000  0.5367720000000 1.0
C      1  0.5098310000000  0.5596950000000  0.5375690000000 1.0
C      1  0.5432000000000  0.5596970000000  0.5125850000000 1.0
C      1  0.5693710000000  0.4781660000000  0.5125050000000 1.0
C      1  0.5012780000000  0.4272300000000  0.5101420000000 1.0
C      1  0.4306380000000  0.4748870000000  0.5085410000000 1.0
C      1  0.4538370000000  0.5581000000000  0.5112450000000 1.0
C      1  0.4358710000000  0.5349870000000  0.5096870000000 1.0
C      1  0.5162180000000  0.5710670000000  0.5115990000000 1.0
C      1  0.5726090000000  0.5074050000000  0.5127390000000 1.0
C      1  0.5298090000000  0.4339140000000  0.5110240000000 1.0
C      1  0.4461820000000  0.4498000000000  0.5088830000000 1.0
C      1  0.4747880000000  0.5008130000000  0.5618330000000 1.0
C      1  0.4933640000000  0.5221850000000  0.5620620000000 1.0
C      1  0.5194850000000  0.5111120000000  0.5640290000000 1.0
C      1  0.5168910000000  0.4827720000000  0.5643090000000 1.0
C      1  0.4891410000000  0.4763900000000  0.5632000000000 1.0
C      1  0.5120760000000  0.5596040000000  0.4649350000000 1.0
C      1  0.5624460000000  0.5082830000000  0.4651800000000 1.0
C      1  0.5282730000000  0.4448590000000  0.4638130000000 1.0
C      1  0.4571280000000  0.4568140000000  0.4617800000000 1.0
C      1  0.4474520000000  0.5277870000000  0.4624780000000 1.0
C      1  0.5684480000000  0.5225690000000  0.4896230000000 1.0
C      1  0.5432180000000  0.4431930000000  0.4883760000000 1.0
C      1  0.4598970000000  0.4413060000000  0.4860620000000 1.0
C      1  0.4330780000000  0.5199230000000  0.4863770000000 1.0
C      1  0.5007840000000  0.5703350000000  0.4888120000000 1.0
C      1  0.4392300000000  0.4800400000000  0.5362910000000 1.0
C      1  0.4618590000000  0.5500790000000  0.5386640000000 1.0
C      1  0.5363440000000  0.5487360000000  0.5392010000000 1.0
C      1  0.5583170000000  0.4792190000000  0.5396560000000 1.0
C      1  0.4984590000000  0.4371310000000  0.5376510000000 1.0
C      1  0.5440010000000  0.5245560000000  0.4502650000000 1.0
C      1  0.5386160000000  0.4675920000000  0.4495960000000 1.0
C      1  0.4825470000000  0.4549070000000  0.4480230000000 1.0
C      1  0.4531450000000  0.5038530000000  0.4478740000000 1.0
C      1  0.4912540000000  0.5468480000000  0.4498480000000 1.0
C      1  0.4491450000000  0.5031920000000  0.5491170000000 1.0
C      1  0.4876490000000  0.5478920000000  0.5500290000000 1.0
C      1  0.5421130000000  0.5246180000000  0.5525140000000 1.0
C      1  0.5367870000000  0.4660060000000  0.5523350000000 1.0
C      1  0.4789020000000  0.4526920000000  0.5506070000000 1.0
C      1  0.4717420000000  0.5066370000000  0.4977080000000 1.0
C      1  0.4849100000000  0.5309660000000  0.4991580000000 1.0
C      1  0.5127090000000  0.5261480000000  0.5014610000000 1.0
C      1  0.5147520000000  0.4985200000000  0.5011500000000 1.0
C      1  0.4914670000000  0.4873330000000  0.4989990000000 1.0
C      1  0.5206890000000  0.4834620000000  0.4354410000000 1.0
C      1  0.4927730000000  0.4771940000000  0.4348930000000 1.0
C      1  0.4781720000000  0.5016470000000  0.4354530000000 1.0
C      1  0.4970870000000  0.5229710000000  0.4366050000000 1.0
C      1  0.5233430000000  0.5118430000000  0.4364080000000 1.0
C      1  0.4733900000000  0.5582510000000  0.4907610000000 1.0
C      1  0.5539640000000  0.5479300000000  0.4893780000000 1.0
C      1  0.5627520000000  0.4647060000000  0.4889860000000 1.0
C      1  0.4866510000000  0.4298450000000  0.4866110000000 1.0
C      1  0.4290930000000  0.4906970000000  0.4854860000000 1.0
C      1  0.4421710000000  0.4809830000000  0.4615540000000 1.0
C      1  0.4662690000000  0.5485760000000  0.4636880000000 1.0
C      1  0.5382370000000  0.5487550000000  0.4649910000000 1.0
C      1  0.5595610000000  0.4801100000000  0.4649440000000 1.0
C      1  0.5006840000000  0.4383890000000  0.4629680000000 1.0
END
