TITL C-91686-8401-1 57.1009027605752 125000 -276.1203368493 0 0 42 (C1) n - 1
REM
REM in /rds/project/t2_vol4/rds-t2-cs072/BORA/CARBON/from-Arr/AIRSS/Generating-Clusters/GAP-ML-2020/Higher-Symm/SD-CG/HFTN-CG
REM
REM
REM
REM
REM
REM ./C.cell (b20cbc046b6831c77cfcea5457e17084)
REM AIRSS Version 0.9.1 bugfix July 2018 build 013d7b7c2542+ Fri, 06 Jul 2018 19:26:36 +0100
REM compiler GCC version 9.3.0
REM options -cpp -mtune=generic -march=x86-64 -g -O0
REM seed -66654966 64922626 1334477353 754452506 16586332 2127895115 677844043 305279029 -1716797530 -25053929 1126611330 -2050687008 -2100420655 839712536 -1614200807 1291887924 -2095178849 584942910 258028589 611852835 316778662 1008409284 2035074420 1126774960 -302439580 762504773 679935396 885478946 826745853 -454155426 -1822430622 881299904 1652073952
REM
CELL 1.54180   50.00000   50.00000   50.00000   90.00000   90.00000   90.00000
LATT -1
SFAC C  
C      1  0.4375450000000  0.5201590000000  0.4838780000000 1.0
C      1  0.5618390000000  0.5136420000000  0.4755820000000 1.0
C      1  0.5177220000000  0.5690170000000  0.4810380000000 1.0
C      1  0.4873600000000  0.5705620000000  0.4831070000000 1.0
C      1  0.5152660000000  0.5504660000000  0.4581370000000 1.0
C      1  0.4848060000000  0.5520590000000  0.4602000000000 1.0
C      1  0.4875580000000  0.5160070000000  0.5272900000000 1.0
C      1  0.5178880000000  0.5145770000000  0.5252550000000 1.0
C      1  0.4775740000000  0.4988830000000  0.5054440000000 1.0
C      1  0.5231210000000  0.4966890000000  0.5023770000000 1.0
C      1  0.4715340000000  0.5284400000000  0.4625240000000 1.0
C      1  0.5262700000000  0.5256020000000  0.4588230000000 1.0
C      1  0.5467340000000  0.5058760000000  0.4529920000000 1.0
C      1  0.4485780000000  0.5110110000000  0.4594740000000 1.0
C      1  0.4385630000000  0.5064160000000  0.5077010000000 1.0
C      1  0.5627980000000  0.5000790000000  0.4994680000000 1.0
C      1  0.5245640000000  0.4390640000000  0.5168250000000 1.0
C      1  0.4714560000000  0.4415710000000  0.5197230000000 1.0
C      1  0.5303470000000  0.4828430000000  0.4590300000000 1.0
C      1  0.4632140000000  0.4863200000000  0.4634340000000 1.0
C      1  0.5354970000000  0.4745170000000  0.5505710000000 1.0
C      1  0.4700070000000  0.4773010000000  0.5548120000000 1.0
C      1  0.4593600000000  0.4646310000000  0.5322780000000 1.0
C      1  0.5413070000000  0.4607040000000  0.5271900000000 1.0
C      1  0.5070980000000  0.4248650000000  0.5321960000000 1.0
C      1  0.4820850000000  0.4203720000000  0.5337490000000 1.0
C      1  0.4888710000000  0.4969390000000  0.5512120000000 1.0
C      1  0.5179560000000  0.4956140000000  0.5492020000000 1.0
C      1  0.5330020000000  0.4628200000000  0.4780630000000 1.0
C      1  0.4610900000000  0.4664430000000  0.4826910000000 1.0
C      1  0.5561580000000  0.5285770000000  0.4989070000000 1.0
C      1  0.4477770000000  0.5341350000000  0.5062380000000 1.0
C      1  0.4843010000000  0.5053870000000  0.4771480000000 1.0
C      1  0.5133220000000  0.5038940000000  0.4751910000000 1.0
C      1  0.5343890000000  0.5376580000000  0.5151720000000 1.0
C      1  0.4723320000000  0.5408050000000  0.5193440000000 1.0
C      1  0.5456690000000  0.4774510000000  0.5027710000000 1.0
C      1  0.4534700000000  0.4819610000000  0.5087920000000 1.0
C      1  0.4821570000000  0.4488560000000  0.4928280000000 1.0
C      1  0.5116510000000  0.4476100000000  0.4910940000000 1.0
C      1  0.5187630000000  0.5593340000000  0.5081090000000 1.0
C      1  0.4890000000000  0.5608430000000  0.5101420000000 1.0
END
