TITL C-91694-96-2 -0.0561171461016278 125000 -788.163990327295 0 0 113 (C1) n - 1
REM
REM in /rds/project/t2_vol4/rds-t2-cs072/BORA/CARBON/from-Arr/AIRSS/Generating-Clusters/GAP-ML-2020/Higher-Symm/SD-CG/HFTN-CG
REM
REM
REM
REM
REM
REM ./C.cell (b20cbc046b6831c77cfcea5457e17084)
REM AIRSS Version 0.9.1 bugfix July 2018 build 013d7b7c2542+ Fri, 06 Jul 2018 19:26:36 +0100
REM compiler GCC version 9.3.0
REM options -cpp -mtune=generic -march=x86-64 -g -O0
REM seed -1431211618 778752716 860927309 301072780 633740682 1289928012 -315908787 -2052608152 1442145521 518033108 -350138676 -1657466292 -1202452138 -627665273 872530990 -1885428305 1827781110 360807769 1488771447 -873818888 -37002106 261123674 -2008568765 -162878351 -538328758 -1337758228 501022415 -1816525907 2059886290 -1874657542 427342226 -1188505316 -1462815071
REM
CELL 1.54180   50.00000   50.00000   50.00000   90.00000   90.00000   90.00000
LATT -1
SFAC C  
C      1  0.5760890000000  0.5329870000000  0.5287770000000 1.0
C      1  0.4885270000000  0.4908520000000  0.4201130000000 1.0
C      1  0.4731920000000  0.5180420000000  0.4791550000000 1.0
C      1  0.4541270000000  0.5202680000000  0.5773970000000 1.0
C      1  0.4459530000000  0.5294360000000  0.4649010000000 1.0
C      1  0.4314640000000  0.4620750000000  0.5054460000000 1.0
C      1  0.5722700000000  0.5073840000000  0.5126120000000 1.0
C      1  0.4438150000000  0.4901900000000  0.5448650000000 1.0
C      1  0.4469540000000  0.5717460000000  0.4929710000000 1.0
C      1  0.4763320000000  0.5400440000000  0.4192810000000 1.0
C      1  0.5265320000000  0.5859200000000  0.4869320000000 1.0
C      1  0.4890450000000  0.4918850000000  0.4670640000000 1.0
C      1  0.5364520000000  0.4378730000000  0.5163230000000 1.0
C      1  0.4545290000000  0.4816710000000  0.5143140000000 1.0
C      1  0.4928810000000  0.5750670000000  0.5525050000000 1.0
C      1  0.4382610000000  0.5172240000000  0.5543990000000 1.0
C      1  0.4889160000000  0.5648980000000  0.4274150000000 1.0
C      1  0.5228530000000  0.5377840000000  0.5226110000000 1.0
C      1  0.4323740000000  0.4041850000000  0.5023370000000 1.0
C      1  0.5052990000000  0.4053410000000  0.4980090000000 1.0
C      1  0.4600580000000  0.5825150000000  0.4699660000000 1.0
C      1  0.4596230000000  0.5762340000000  0.5187310000000 1.0
C      1  0.5370380000000  0.4212050000000  0.4680960000000 1.0
C      1  0.5560930000000  0.5117050000000  0.4210270000000 1.0
C      1  0.4859820000000  0.5728050000000  0.4730000000000 1.0
C      1  0.4570630000000  0.4750240000000  0.5653670000000 1.0
C      1  0.4406410000000  0.4848580000000  0.4492330000000 1.0
C      1  0.5341710000000  0.4966750000000  0.4099700000000 1.0
C      1  0.5231810000000  0.5208550000000  0.5452990000000 1.0
C      1  0.4104500000000  0.4989620000000  0.4817390000000 1.0
C      1  0.5428120000000  0.4475870000000  0.4585770000000 1.0
C      1  0.5382340000000  0.4698720000000  0.5074460000000 1.0
C      1  0.5535790000000  0.5144170000000  0.4889030000000 1.0
C      1  0.5177660000000  0.5842370000000  0.5135210000000 1.0
C      1  0.5876550000000  0.5111700000000  0.4640050000000 1.0
C      1  0.4523070000000  0.4220480000000  0.4863970000000 1.0
C      1  0.4902910000000  0.5430430000000  0.4855390000000 1.0
C      1  0.4220620000000  0.5342040000000  0.5115460000000 1.0
C      1  0.4085270000000  0.5097360000000  0.5073580000000 1.0
C      1  0.4753550000000  0.4495040000000  0.5648460000000 1.0
C      1  0.4284290000000  0.5060270000000  0.4615510000000 1.0
C      1  0.5140940000000  0.4766730000000  0.5556980000000 1.0
C      1  0.5419380000000  0.5369390000000  0.4139010000000 1.0
C      1  0.5253490000000  0.4318020000000  0.5607550000000 1.0
C      1  0.5618070000000  0.5568080000000  0.5337730000000 1.0
C      1  0.5512230000000  0.4455830000000  0.5558660000000 1.0
C      1  0.4937590000000  0.5427710000000  0.5161570000000 1.0
C      1  0.5273270000000  0.5193980000000  0.4992550000000 1.0
C      1  0.4987150000000  0.5310380000000  0.5864650000000 1.0
C      1  0.4509740000000  0.4469980000000  0.5549440000000 1.0
C      1  0.5030500000000  0.4496660000000  0.5580860000000 1.0
C      1  0.4728490000000  0.5418800000000  0.5799810000000 1.0
C      1  0.4949990000000  0.4753060000000  0.4909750000000 1.0
C      1  0.5162830000000  0.4867710000000  0.5834440000000 1.0
C      1  0.5187560000000  0.5237320000000  0.4518900000000 1.0
C      1  0.4691930000000  0.5635070000000  0.5624620000000 1.0
C      1  0.5676570000000  0.5401250000000  0.5545840000000 1.0
C      1  0.5636320000000  0.4387110000000  0.5309210000000 1.0
C      1  0.4761630000000  0.4292680000000  0.4427130000000 1.0
C      1  0.5690030000000  0.5327040000000  0.4680600000000 1.0
C      1  0.4685640000000  0.4343540000000  0.5107030000000 1.0
C      1  0.5473140000000  0.4747260000000  0.5547360000000 1.0
C      1  0.5309920000000  0.4179610000000  0.4954090000000 1.0
C      1  0.4261890000000  0.4152290000000  0.5244320000000 1.0
C      1  0.5181940000000  0.4960710000000  0.4548960000000 1.0
C      1  0.5169100000000  0.4805430000000  0.4272730000000 1.0
C      1  0.5661420000000  0.5033170000000  0.4462810000000 1.0
C      1  0.5221680000000  0.5400620000000  0.5710490000000 1.0
C      1  0.5137710000000  0.4283790000000  0.5351030000000 1.0
C      1  0.4897550000000  0.5783100000000  0.5240650000000 1.0
C      1  0.4673200000000  0.4958790000000  0.5841070000000 1.0
C      1  0.5605150000000  0.4817420000000  0.5268690000000 1.0
C      1  0.5793430000000  0.4594260000000  0.5189630000000 1.0
C      1  0.4549270000000  0.5443450000000  0.4395540000000 1.0
C      1  0.5817550000000  0.4686530000000  0.4914280000000 1.0
C      1  0.5442240000000  0.4909380000000  0.5812580000000 1.0
C      1  0.5163380000000  0.4901270000000  0.5079210000000 1.0
C      1  0.4419400000000  0.4401450000000  0.5278610000000 1.0
C      1  0.4360570000000  0.4465140000000  0.4809630000000 1.0
C      1  0.4615640000000  0.4521860000000  0.4404870000000 1.0
C      1  0.4493650000000  0.5626040000000  0.5414920000000 1.0
C      1  0.5051200000000  0.4300450000000  0.4369840000000 1.0
C      1  0.4094010000000  0.4812160000000  0.5034430000000 1.0
C      1  0.4915900000000  0.4171110000000  0.5196500000000 1.0
C      1  0.5234660000000  0.4528670000000  0.4369060000000 1.0
C      1  0.4827410000000  0.5170020000000  0.5262040000000 1.0
C      1  0.5184790000000  0.5661080000000  0.5577750000000 1.0
C      1  0.5463550000000  0.4928700000000  0.4670310000000 1.0
C      1  0.4951690000000  0.4001210000000  0.4721010000000 1.0
C      1  0.5335780000000  0.5662920000000  0.5318200000000 1.0
C      1  0.5405310000000  0.5584490000000  0.4321250000000 1.0
C      1  0.4754830000000  0.4628810000000  0.5064560000000 1.0
C      1  0.4649250000000  0.5075510000000  0.5063070000000 1.0
C      1  0.4378760000000  0.4570250000000  0.4555980000000 1.0
C      1  0.4918820000000  0.5174140000000  0.4107790000000 1.0
C      1  0.4703750000000  0.4812620000000  0.4413040000000 1.0
C      1  0.5569470000000  0.5118960000000  0.5925430000000 1.0
C      1  0.4703340000000  0.4123990000000  0.4652910000000 1.0
C      1  0.5156020000000  0.4097090000000  0.4535650000000 1.0
C      1  0.5529230000000  0.4671530000000  0.4793980000000 1.0
C      1  0.5512160000000  0.5343820000000  0.5772740000000 1.0
C      1  0.4651490000000  0.5707870000000  0.4448500000000 1.0
C      1  0.4320480000000  0.5400820000000  0.5380250000000 1.0
C      1  0.5888060000000  0.4962940000000  0.4897920000000 1.0
C      1  0.5193520000000  0.5207650000000  0.4036050000000 1.0
C      1  0.5151890000000  0.5723580000000  0.4368150000000 1.0
C      1  0.4948220000000  0.5029080000000  0.5906740000000 1.0
C      1  0.5566870000000  0.5559960000000  0.4571240000000 1.0
C      1  0.5386250000000  0.5621280000000  0.4781970000000 1.0
C      1  0.5177600000000  0.5365850000000  0.4770010000000 1.0
C      1  0.4341870000000  0.5472530000000  0.4882820000000 1.0
C      1  0.5106020000000  0.5837590000000  0.4629730000000 1.0
C      1  0.5054730000000  0.4985870000000  0.5357860000000 1.0
END
