TITL C-91674-9892-6 0.119592885682575 125000 -290.471885751996 0 0 43 (C1) n - 1
REM
REM in /rds/project/t2_vol4/rds-t2-cs072/BORA/CARBON/from-Arr/AIRSS/Generating-Clusters/GAP-ML-2020/Higher-Symm/SD-CG/HFTN-CG
REM
REM
REM
REM
REM
REM ./C.cell (b20cbc046b6831c77cfcea5457e17084)
REM AIRSS Version 0.9.1 bugfix July 2018 build 013d7b7c2542+ Fri, 06 Jul 2018 19:26:36 +0100
REM compiler GCC version 9.3.0
REM options -cpp -mtune=generic -march=x86-64 -g -O0
REM seed -1495444212 -1168057845 2120867008 1640792580 889805044 2023808822 1287865443 855715206 967577697 -72584828 220550595 -1045488686 419593087 1244331322 211507967 1561455868 1930643447 1494371695 -839173002 -544907366 -301970382 -2008367453 1857275225 -1455945899 -2027080799 -164034480 -1783117594 -1686524177 2001421841 1097911892 -2062421297 1416291562 -834753883
REM
CELL 1.54180   50.00000   50.00000   50.00000   90.00000   90.00000   90.00000
LATT -1
SFAC C  
C      1  0.4677400000000  0.4499730000000  0.4884590000000 1.0
C      1  0.4499700000000  0.4705540000000  0.4724010000000 1.0
C      1  0.4540770000000  0.4903360000000  0.4552390000000 1.0
C      1  0.4591810000000  0.5174490000000  0.4613280000000 1.0
C      1  0.4828560000000  0.5273240000000  0.4484380000000 1.0
C      1  0.4994890000000  0.5462400000000  0.4608880000000 1.0
C      1  0.5271990000000  0.5436050000000  0.4741850000000 1.0
C      1  0.5453570000000  0.5232070000000  0.4790140000000 1.0
C      1  0.5520560000000  0.5001060000000  0.4622590000000 1.0
C      1  0.5353710000000  0.4785360000000  0.4519650000000 1.0
C      1  0.4957870000000  0.4560860000000  0.4864550000000 1.0
C      1  0.4695550000000  0.5462030000000  0.5000000000000 1.0
C      1  0.4894570000000  0.5582540000000  0.4842720000000 1.0
C      1  0.5154560000000  0.5563050000000  0.4976830000000 1.0
C      1  0.5506340000000  0.5071130000000  0.5031760000000 1.0
C      1  0.5576330000000  0.4832480000000  0.4867540000000 1.0
C      1  0.5411210000000  0.4613130000000  0.4752050000000 1.0
C      1  0.5213480000000  0.4455830000000  0.4858210000000 1.0
C      1  0.4544440000000  0.4595640000000  0.5127400000000 1.0
C      1  0.4398080000000  0.4796630000000  0.4977090000000 1.0
C      1  0.4470230000000  0.5052370000000  0.5079410000000 1.0
C      1  0.4532530000000  0.5258970000000  0.4893610000000 1.0
C      1  0.5331330000000  0.4642230000000  0.5558490000000 1.0
C      1  0.5085000000000  0.4539280000000  0.5591560000000 1.0
C      1  0.4850420000000  0.4595010000000  0.5512440000000 1.0
C      1  0.4660620000000  0.4722880000000  0.5359050000000 1.0
C      1  0.4610270000000  0.5010300000000  0.5329720000000 1.0
C      1  0.4768200000000  0.5219360000000  0.5429470000000 1.0
C      1  0.4814700000000  0.5431020000000  0.5253580000000 1.0
C      1  0.5103060000000  0.5465360000000  0.5231230000000 1.0
C      1  0.5227400000000  0.5268940000000  0.5394630000000 1.0
C      1  0.5425630000000  0.5075420000000  0.5306730000000 1.0
C      1  0.5446860000000  0.4834160000000  0.5443980000000 1.0
C      1  0.4996560000000  0.4853380000000  0.4800950000000 1.0
C      1  0.5083940000000  0.5120860000000  0.4080520000000 1.0
C      1  0.5034310000000  0.5142550000000  0.5846200000000 1.0
C      1  0.4991120000000  0.5053570000000  0.4965080000000 1.0
C      1  0.5081680000000  0.4871030000000  0.4508820000000 1.0
C      1  0.5015130000000  0.5190750000000  0.5583660000000 1.0
C      1  0.4995770000000  0.5078610000000  0.4336610000000 1.0
C      1  0.5070680000000  0.5061290000000  0.6082370000000 1.0
C      1  0.5136780000000  0.5176660000000  0.3838050000000 1.0
C      1  0.5120290000000  0.4917740000000  0.6295150000000 1.0
END
