TITL C-93441-6546-2 18.2742311922969 125000 -1292.65580139047 0 0 189 (C1) n - 1
REM
REM in /rds/project/t2_vol4/rds-t2-cs072/BORA/CARBON/from-Arr/AIRSS/Generating-Clusters/GAP-ML-2020/Higher-Symm/SD-CG/HFTN-CG/C160-200
REM
REM
REM
REM
REM
REM ./C.cell (6b4489405718ea1b717e0baf1da4c2d9)
REM AIRSS Version 0.9.1 bugfix July 2018 build 013d7b7c2542+ Fri, 06 Jul 2018 19:26:36 +0100
REM compiler GCC version 9.3.0
REM options -cpp -mtune=generic -march=x86-64 -g -O0
REM seed -497524580 -1543450862 1062891916 -1740800534 -609587991 1733500104 -1112238186 -2080295969 1316250687 1839168047 402007156 -420754792 596014793 -1884575249 1542942152 1687080518 1846719123 -257267068 -1480164956 480706421 -656955155 1247606144 -1766387452 -1412864879 1292615822 1552265896 -1980371596 -1281935360 -837602042 182244139 420148422 -1346741635 -164765518
REM
CELL 1.54180   50.00000   50.00000   50.00000   90.00000   90.00000   90.00000
LATT -1
SFAC C  
C      1  0.5141890000000  0.5365810000000  0.3996690000000 1.0
C      1  0.4834010000000  0.4633230000000  0.3997160000000 1.0
C      1  0.5132850000000  0.4628360000000  0.6017060000000 1.0
C      1  0.4853090000000  0.5356990000000  0.6001690000000 1.0
C      1  0.5352190000000  0.5145840000000  0.3982680000000 1.0
C      1  0.4627230000000  0.4854080000000  0.3992780000000 1.0
C      1  0.4632540000000  0.5146490000000  0.6003020000000 1.0
C      1  0.5356920000000  0.4835440000000  0.6009690000000 1.0
C      1  0.5283180000000  0.6045440000000  0.5495090000000 1.0
C      1  0.4672280000000  0.3963140000000  0.5512080000000 1.0
C      1  0.5248620000000  0.3955130000000  0.4478090000000 1.0
C      1  0.4698710000000  0.6032050000000  0.4480070000000 1.0
C      1  0.6050240000000  0.5289240000000  0.5540890000000 1.0
C      1  0.3965820000000  0.4702280000000  0.5514830000000 1.0
C      1  0.3972980000000  0.5302590000000  0.4498860000000 1.0
C      1  0.6044990000000  0.4767970000000  0.4391770000000 1.0
C      1  0.5306600000000  0.4500160000000  0.4837050000000 1.0
C      1  0.4709380000000  0.5470290000000  0.4842250000000 1.0
C      1  0.5320090000000  0.5498420000000  0.5173130000000 1.0
C      1  0.4715490000000  0.4489890000000  0.5172830000000 1.0
C      1  0.4501270000000  0.5265460000000  0.4834250000000 1.0
C      1  0.5527080000000  0.4701630000000  0.4832360000000 1.0
C      1  0.5605200000000  0.5367010000000  0.5182500000000 1.0
C      1  0.4512340000000  0.4696890000000  0.5164760000000 1.0
C      1  0.5556770000000  0.5744410000000  0.4446730000000 1.0
C      1  0.4433840000000  0.4209860000000  0.4449050000000 1.0
C      1  0.5537330000000  0.4239160000000  0.5558860000000 1.0
C      1  0.4455380000000  0.5743190000000  0.5558700000000 1.0
C      1  0.5757100000000  0.5547110000000  0.4449380000000 1.0
C      1  0.4254970000000  0.4434900000000  0.4452980000000 1.0
C      1  0.4250510000000  0.5548440000000  0.5557340000000 1.0
C      1  0.5709500000000  0.4461360000000  0.5537320000000 1.0
C      1  0.4192110000000  0.4416420000000  0.4864040000000 1.0
C      1  0.5848680000000  0.5641770000000  0.4864110000000 1.0
C      1  0.4201000000000  0.5565640000000  0.5128940000000 1.0
C      1  0.5815040000000  0.4374880000000  0.5088530000000 1.0
C      1  0.4409980000000  0.4190900000000  0.4873600000000 1.0
C      1  0.5591060000000  0.5824230000000  0.4863300000000 1.0
C      1  0.5555820000000  0.4167640000000  0.5127910000000 1.0
C      1  0.4418690000000  0.5790290000000  0.5126750000000 1.0
C      1  0.5610200000000  0.4729630000000  0.5571820000000 1.0
C      1  0.4352410000000  0.5280700000000  0.5541040000000 1.0
C      1  0.5654540000000  0.5279720000000  0.4425410000000 1.0
C      1  0.4489170000000  0.4616000000000  0.4499550000000 1.0
C      1  0.4726550000000  0.5637550000000  0.5540800000000 1.0
C      1  0.5268520000000  0.4332500000000  0.5556180000000 1.0
C      1  0.5290840000000  0.5636900000000  0.4464860000000 1.0
C      1  0.4686990000000  0.4399440000000  0.4486260000000 1.0
C      1  0.5171530000000  0.5551240000000  0.4728050000000 1.0
C      1  0.4850210000000  0.4422210000000  0.4738860000000 1.0
C      1  0.5156480000000  0.4416130000000  0.5292880000000 1.0
C      1  0.4856070000000  0.5561780000000  0.5285780000000 1.0
C      1  0.5601820000000  0.5138280000000  0.4665510000000 1.0
C      1  0.4466200000000  0.4810640000000  0.4719710000000 1.0
C      1  0.4435030000000  0.5153590000000  0.5283050000000 1.0
C      1  0.5462510000000  0.4907410000000  0.5365380000000 1.0
C      1  0.5628940000000  0.5140490000000  0.3979910000000 1.0
C      1  0.4347300000000  0.4872970000000  0.3999530000000 1.0
C      1  0.5633450000000  0.4831160000000  0.5999730000000 1.0
C      1  0.4357560000000  0.5125730000000  0.5986530000000 1.0
C      1  0.5123020000000  0.5639410000000  0.4021010000000 1.0
C      1  0.4830650000000  0.4356670000000  0.4014120000000 1.0
C      1  0.4881260000000  0.5630720000000  0.5991340000000 1.0
C      1  0.5100520000000  0.4353710000000  0.6006390000000 1.0
C      1  0.5930780000000  0.5435430000000  0.5736700000000 1.0
C      1  0.4065920000000  0.4562610000000  0.5730080000000 1.0
C      1  0.5910000000000  0.4526260000000  0.4388580000000 1.0
C      1  0.4101830000000  0.5475850000000  0.4331760000000 1.0
C      1  0.5441120000000  0.5921330000000  0.5685610000000 1.0
C      1  0.4514700000000  0.4087780000000  0.5697890000000 1.0
C      1  0.4561070000000  0.5940300000000  0.4259040000000 1.0
C      1  0.5391040000000  0.4086040000000  0.4284010000000 1.0
C      1  0.5390570000000  0.3929540000000  0.4733590000000 1.0
C      1  0.4541440000000  0.6010410000000  0.4728220000000 1.0
C      1  0.5379640000000  0.6090440000000  0.5213060000000 1.0
C      1  0.4558500000000  0.3955090000000  0.5240850000000 1.0
C      1  0.3961170000000  0.5410720000000  0.4768970000000 1.0
C      1  0.5922040000000  0.4427580000000  0.4657500000000 1.0
C      1  0.6093810000000  0.5405790000000  0.5270620000000 1.0
C      1  0.3976600000000  0.4550370000000  0.5263470000000 1.0
C      1  0.4833830000000  0.5563010000000  0.4322170000000 1.0
C      1  0.5158780000000  0.4430430000000  0.4313750000000 1.0
C      1  0.4812560000000  0.4428280000000  0.5708700000000 1.0
C      1  0.5180900000000  0.5558920000000  0.5698690000000 1.0
C      1  0.5561960000000  0.4817980000000  0.4292350000000 1.0
C      1  0.4435300000000  0.5184660000000  0.4299440000000 1.0
C      1  0.4430420000000  0.4826680000000  0.5690990000000 1.0
C      1  0.5568140000000  0.5186490000000  0.5711920000000 1.0
C      1  0.4508550000000  0.4890560000000  0.5387990000000 1.0
C      1  0.5627440000000  0.5154750000000  0.5403240000000 1.0
C      1  0.4505930000000  0.5078120000000  0.4607360000000 1.0
C      1  0.5493640000000  0.4887580000000  0.4592420000000 1.0
C      1  0.4896150000000  0.4495630000000  0.5399700000000 1.0
C      1  0.5122140000000  0.5481320000000  0.5394330000000 1.0
C      1  0.5108430000000  0.4505880000000  0.4618580000000 1.0
C      1  0.4906560000000  0.5476630000000  0.4622280000000 1.0
C      1  0.4664960000000  0.5131420000000  0.5064520000000 1.0
C      1  0.5377860000000  0.4843480000000  0.5081450000000 1.0
C      1  0.4677360000000  0.4856120000000  0.4953410000000 1.0
C      1  0.5572990000000  0.5198770000000  0.4935730000000 1.0
C      1  0.5159240000000  0.4637840000000  0.5073050000000 1.0
C      1  0.4871250000000  0.5339710000000  0.5070800000000 1.0
C      1  0.4880460000000  0.4646460000000  0.4960430000000 1.0
C      1  0.5154340000000  0.5328230000000  0.4973800000000 1.0
C      1  0.5849050000000  0.5871980000000  0.5207110000000 1.0
C      1  0.4104640000000  0.4305080000000  0.5150610000000 1.0
C      1  0.5857560000000  0.4199530000000  0.4820060000000 1.0
C      1  0.4098460000000  0.5659630000000  0.4861390000000 1.0
C      1  0.5632720000000  0.5996200000000  0.5112730000000 1.0
C      1  0.4311850000000  0.4099260000000  0.5142950000000 1.0
C      1  0.4302510000000  0.5870920000000  0.4846820000000 1.0
C      1  0.5634030000000  0.4028200000000  0.4863430000000 1.0
C      1  0.4293660000000  0.4679940000000  0.4956710000000 1.0
C      1  0.5869520000000  0.5580300000000  0.5155690000000 1.0
C      1  0.4279230000000  0.5275390000000  0.5046200000000 1.0
C      1  0.5829280000000  0.4615580000000  0.4882640000000 1.0
C      1  0.4703330000000  0.4264250000000  0.4964190000000 1.0
C      1  0.5296810000000  0.5720320000000  0.4955590000000 1.0
C      1  0.5293100000000  0.4270260000000  0.5040480000000 1.0
C      1  0.4685600000000  0.5698080000000  0.5035050000000 1.0
C      1  0.4940610000000  0.5744990000000  0.5730040000000 1.0
C      1  0.5043630000000  0.4235110000000  0.5746580000000 1.0
C      1  0.4904040000000  0.4261070000000  0.4285150000000 1.0
C      1  0.5072130000000  0.5749210000000  0.4288080000000 1.0
C      1  0.5738050000000  0.4929790000000  0.5748340000000 1.0
C      1  0.4243500000000  0.5068260000000  0.5720600000000 1.0
C      1  0.4221410000000  0.5000910000000  0.4210660000000 1.0
C      1  0.5743060000000  0.5065450000000  0.4233320000000 1.0
C      1  0.4691410000000  0.4915050000000  0.5810810000000 1.0
C      1  0.5300140000000  0.5073120000000  0.5803290000000 1.0
C      1  0.4697520000000  0.5083780000000  0.4187780000000 1.0
C      1  0.5293930000000  0.4909160000000  0.4179070000000 1.0
C      1  0.4903500000000  0.4690850000000  0.5821250000000 1.0
C      1  0.5086230000000  0.5292920000000  0.5807750000000 1.0
C      1  0.5071350000000  0.4691710000000  0.4189700000000 1.0
C      1  0.4917090000000  0.5302280000000  0.4193810000000 1.0
C      1  0.4487650000000  0.4020770000000  0.4639260000000 1.0
C      1  0.5481180000000  0.5951580000000  0.4619450000000 1.0
C      1  0.4529540000000  0.5937270000000  0.5374270000000 1.0
C      1  0.5446090000000  0.4038000000000  0.5385390000000 1.0
C      1  0.4048490000000  0.4531650000000  0.4609650000000 1.0
C      1  0.5957140000000  0.5493160000000  0.4643400000000 1.0
C      1  0.5891280000000  0.4525660000000  0.5333660000000 1.0
C      1  0.4054890000000  0.5475230000000  0.5369890000000 1.0
C      1  0.5183060000000  0.6033330000000  0.4996770000000 1.0
C      1  0.4777700000000  0.3965100000000  0.5019910000000 1.0
C      1  0.5207790000000  0.4003420000000  0.4936900000000 1.0
C      1  0.4737420000000  0.5965420000000  0.4924910000000 1.0
C      1  0.6182770000000  0.5244450000000  0.5081620000000 1.0
C      1  0.4024770000000  0.4743500000000  0.5059050000000 1.0
C      1  0.3978650000000  0.5193100000000  0.4988810000000 1.0
C      1  0.6017850000000  0.4828490000000  0.5011700000000 1.0
C      1  0.5008620000000  0.4780830000000  0.4482290000000 1.0
C      1  0.4995210000000  0.5208070000000  0.4482350000000 1.0
C      1  0.5025100000000  0.5198200000000  0.5512410000000 1.0
C      1  0.4981390000000  0.4766730000000  0.5531740000000 1.0
C      1  0.4783890000000  0.5004750000000  0.4477690000000 1.0
C      1  0.5218160000000  0.4985420000000  0.4474200000000 1.0
C      1  0.5214060000000  0.4963420000000  0.5524380000000 1.0
C      1  0.4783830000000  0.4983590000000  0.5521380000000 1.0
C      1  0.4002860000000  0.5018800000000  0.4413020000000 1.0
C      1  0.6004440000000  0.5032130000000  0.4392280000000 1.0
C      1  0.4001200000000  0.5003030000000  0.5520580000000 1.0
C      1  0.5916000000000  0.5023370000000  0.5493360000000 1.0
C      1  0.4952210000000  0.4003490000000  0.4474930000000 1.0
C      1  0.5001190000000  0.5994050000000  0.4475210000000 1.0
C      1  0.4962160000000  0.3991260000000  0.5578100000000 1.0
C      1  0.5001510000000  0.5997200000000  0.5559440000000 1.0
C      1  0.5987850000000  0.4799090000000  0.5292160000000 1.0
C      1  0.3944590000000  0.5212570000000  0.5313510000000 1.0
C      1  0.6067420000000  0.5206500000000  0.4628450000000 1.0
C      1  0.3958610000000  0.4815540000000  0.4610370000000 1.0
C      1  0.4805680000000  0.6054110000000  0.5363490000000 1.0
C      1  0.5156850000000  0.3930160000000  0.5382570000000 1.0
C      1  0.5212110000000  0.6053080000000  0.4677650000000 1.0
C      1  0.4755640000000  0.3932670000000  0.4684940000000 1.0
C      1  0.4356060000000  0.5469910000000  0.4245720000000 1.0
C      1  0.5652290000000  0.4538240000000  0.4245600000000 1.0
C      1  0.4333270000000  0.4552570000000  0.5776510000000 1.0
C      1  0.5663840000000  0.5462160000000  0.5800320000000 1.0
C      1  0.5439950000000  0.4345540000000  0.4229130000000 1.0
C      1  0.4561350000000  0.5668130000000  0.4236990000000 1.0
C      1  0.4530430000000  0.4343730000000  0.5775940000000 1.0
C      1  0.5457690000000  0.5665560000000  0.5774700000000 1.0
C      1  0.5039850000000  0.3890710000000  0.5125780000000 1.0
C      1  0.4913550000000  0.6089470000000  0.5100360000000 1.0
C      1  0.3916150000000  0.4926590000000  0.4876070000000 1.0
C      1  0.6128460000000  0.5070520000000  0.4881950000000 1.0
C      1  0.5312660000000  0.5093710000000  0.4959240000000 1.0
END
