TITL C-93451-6341-1 -35.8999597705547 125000 -1128.9476836123 0 0 167 (C1) n - 1
REM
REM in /rds/project/t2_vol4/rds-t2-cs072/BORA/CARBON/from-Arr/AIRSS/Generating-Clusters/GAP-ML-2020/Higher-Symm/SD-CG/HFTN-CG/C160-200
REM
REM
REM
REM
REM
REM ./C.cell (6b4489405718ea1b717e0baf1da4c2d9)
REM AIRSS Version 0.9.1 bugfix July 2018 build 013d7b7c2542+ Fri, 06 Jul 2018 19:26:36 +0100
REM compiler GCC version 9.3.0
REM options -cpp -mtune=generic -march=x86-64 -g -O0
REM seed 1299453335 -7165655 -466049900 -1195629240 -144394599 1905399898 -2113925673 1056153364 -1984789240 1836658961 86928138 -1055351045 2043128154 1556120166 -1586484388 -1127665588 -63077268 1989256284 76564451 -1744792469 8915662 1144551240 1925334666 -1075703372 488501385 -1290437930 -2047859649 -1600911481 1267166978 -1438350751 -1128188423 -2066663702 1660385233
REM
CELL 1.54180   50.00000   50.00000   50.00000   90.00000   90.00000   90.00000
LATT -1
SFAC C  
C      1  0.5547490000000  0.5336180000000  0.5768460000000 1.0
C      1  0.5571000000000  0.4651440000000  0.4211190000000 1.0
C      1  0.4459490000000  0.5322750000000  0.5768980000000 1.0
C      1  0.4445880000000  0.4680540000000  0.4193200000000 1.0
C      1  0.5956940000000  0.5009780000000  0.5285790000000 1.0
C      1  0.5878720000000  0.4926790000000  0.4713350000000 1.0
C      1  0.4067230000000  0.5000170000000  0.5286030000000 1.0
C      1  0.4113780000000  0.4932440000000  0.4705780000000 1.0
C      1  0.4001150000000  0.5248610000000  0.5107580000000 1.0
C      1  0.4010170000000  0.4690360000000  0.4877720000000 1.0
C      1  0.6009750000000  0.5255690000000  0.5101510000000 1.0
C      1  0.5980130000000  0.4690430000000  0.4885050000000 1.0
C      1  0.4535220000000  0.4225260000000  0.5300650000000 1.0
C      1  0.4504530000000  0.5762770000000  0.4725610000000 1.0
C      1  0.5515280000000  0.4240880000000  0.5290700000000 1.0
C      1  0.5519070000000  0.5747160000000  0.4696150000000 1.0
C      1  0.6005760000000  0.4747910000000  0.5172270000000 1.0
C      1  0.5969960000000  0.5184240000000  0.4822960000000 1.0
C      1  0.4007860000000  0.4737710000000  0.5173360000000 1.0
C      1  0.4035860000000  0.5187190000000  0.4826950000000 1.0
C      1  0.4102520000000  0.4970440000000  0.5598790000000 1.0
C      1  0.4096960000000  0.4996480000000  0.4393500000000 1.0
C      1  0.5913520000000  0.4985450000000  0.5595990000000 1.0
C      1  0.5903520000000  0.4977650000000  0.4404770000000 1.0
C      1  0.5940620000000  0.5513760000000  0.5153530000000 1.0
C      1  0.5922340000000  0.4426140000000  0.4838970000000 1.0
C      1  0.4051700000000  0.5511750000000  0.5158050000000 1.0
C      1  0.4034520000000  0.4434120000000  0.4784160000000 1.0
C      1  0.4858530000000  0.5407680000000  0.6064630000000 1.0
C      1  0.4866940000000  0.4637360000000  0.3943600000000 1.0
C      1  0.5149910000000  0.5412920000000  0.6064520000000 1.0
C      1  0.5154300000000  0.4624950000000  0.3947020000000 1.0
C      1  0.5158720000000  0.5408890000000  0.4185690000000 1.0
C      1  0.5170820000000  0.4602840000000  0.5810970000000 1.0
C      1  0.4843600000000  0.5406040000000  0.4199710000000 1.0
C      1  0.4853490000000  0.4600840000000  0.5813580000000 1.0
C      1  0.5332660000000  0.5947790000000  0.4977910000000 1.0
C      1  0.5323930000000  0.4051670000000  0.5031150000000 1.0
C      1  0.4626340000000  0.5903850000000  0.4960120000000 1.0
C      1  0.4582080000000  0.4099800000000  0.5046630000000 1.0
C      1  0.4470160000000  0.4745650000000  0.5432070000000 1.0
C      1  0.4479590000000  0.5227440000000  0.4559110000000 1.0
C      1  0.5549110000000  0.4757040000000  0.5434600000000 1.0
C      1  0.5518630000000  0.5224920000000  0.4551710000000 1.0
C      1  0.5586470000000  0.5416110000000  0.4197160000000 1.0
C      1  0.5597730000000  0.4571310000000  0.5807480000000 1.0
C      1  0.4417860000000  0.5427020000000  0.4210130000000 1.0
C      1  0.4428120000000  0.4559330000000  0.5813720000000 1.0
C      1  0.5229220000000  0.5490490000000  0.4971510000000 1.0
C      1  0.5155070000000  0.4506470000000  0.5049620000000 1.0
C      1  0.4794820000000  0.5474050000000  0.4975510000000 1.0
C      1  0.4832820000000  0.4499630000000  0.5053990000000 1.0
C      1  0.4773170000000  0.5175840000000  0.5298090000000 1.0
C      1  0.4876960000000  0.4938750000000  0.4793170000000 1.0
C      1  0.5261970000000  0.5201590000000  0.5315840000000 1.0
C      1  0.5084450000000  0.5037310000000  0.4938070000000 1.0
C      1  0.5884210000000  0.4568330000000  0.5351900000000 1.0
C      1  0.5883030000000  0.5380500000000  0.4639280000000 1.0
C      1  0.4135550000000  0.4559320000000  0.5358340000000 1.0
C      1  0.4129300000000  0.5390020000000  0.4654790000000 1.0
C      1  0.5581230000000  0.4119460000000  0.5037420000000 1.0
C      1  0.5577280000000  0.5858520000000  0.4947120000000 1.0
C      1  0.4369910000000  0.4073490000000  0.4881640000000 1.0
C      1  0.4371970000000  0.5852680000000  0.4991590000000 1.0
C      1  0.4738690000000  0.5738940000000  0.4537120000000 1.0
C      1  0.4753790000000  0.4248470000000  0.5497200000000 1.0
C      1  0.5275900000000  0.5738470000000  0.4525140000000 1.0
C      1  0.5280730000000  0.4257850000000  0.5479690000000 1.0
C      1  0.4841470000000  0.4020720000000  0.4488060000000 1.0
C      1  0.4853330000000  0.6003160000000  0.5547350000000 1.0
C      1  0.5127150000000  0.4015780000000  0.4495650000000 1.0
C      1  0.5135370000000  0.6005190000000  0.5540070000000 1.0
C      1  0.5384350000000  0.4970490000000  0.6104170000000 1.0
C      1  0.5385570000000  0.5040070000000  0.3888350000000 1.0
C      1  0.4634870000000  0.4963250000000  0.6107350000000 1.0
C      1  0.4631850000000  0.5059460000000  0.3882500000000 1.0
C      1  0.4395470000000  0.5466060000000  0.4747320000000 1.0
C      1  0.4410320000000  0.4499630000000  0.5254300000000 1.0
C      1  0.5618890000000  0.5462860000000  0.4728750000000 1.0
C      1  0.5604570000000  0.4520950000000  0.5251740000000 1.0
C      1  0.4441380000000  0.4276080000000  0.4511250000000 1.0
C      1  0.4433440000000  0.5715520000000  0.5443680000000 1.0
C      1  0.5536890000000  0.4263670000000  0.4564040000000 1.0
C      1  0.5540460000000  0.5711380000000  0.5422700000000 1.0
C      1  0.4727370000000  0.4270820000000  0.4606210000000 1.0
C      1  0.4734270000000  0.5757560000000  0.5401210000000 1.0
C      1  0.5243590000000  0.4262270000000  0.4622900000000 1.0
C      1  0.5249030000000  0.5763150000000  0.5395850000000 1.0
C      1  0.4756030000000  0.4740100000000  0.5519250000000 1.0
C      1  0.4765400000000  0.5264950000000  0.4487060000000 1.0
C      1  0.5261940000000  0.4747290000000  0.5517020000000 1.0
C      1  0.5239950000000  0.5262110000000  0.4468360000000 1.0
C      1  0.4224590000000  0.4243070000000  0.4707320000000 1.0
C      1  0.4244240000000  0.5707290000000  0.5209690000000 1.0
C      1  0.5718120000000  0.4248830000000  0.4796160000000 1.0
C      1  0.5679260000000  0.5646740000000  0.5166160000000 1.0
C      1  0.4864340000000  0.4515850000000  0.5354680000000 1.0
C      1  0.4863890000000  0.5480120000000  0.4680770000000 1.0
C      1  0.5149540000000  0.4522370000000  0.5348500000000 1.0
C      1  0.5149530000000  0.5478840000000  0.4673840000000 1.0
C      1  0.5786510000000  0.5255630000000  0.4389810000000 1.0
C      1  0.5797930000000  0.4701610000000  0.5609650000000 1.0
C      1  0.4217410000000  0.5274520000000  0.4397150000000 1.0
C      1  0.4222600000000  0.4691670000000  0.5611390000000 1.0
C      1  0.5388160000000  0.4771600000000  0.3949170000000 1.0
C      1  0.5371190000000  0.5237880000000  0.6043520000000 1.0
C      1  0.4637030000000  0.4793240000000  0.3947400000000 1.0
C      1  0.4641330000000  0.5228440000000  0.6039650000000 1.0
C      1  0.5293480000000  0.6039650000000  0.5760720000000 1.0
C      1  0.5157390000000  0.3990550000000  0.4214620000000 1.0
C      1  0.4701320000000  0.6038510000000  0.5770210000000 1.0
C      1  0.4828500000000  0.3995530000000  0.4204710000000 1.0
C      1  0.4833580000000  0.5638390000000  0.5887110000000 1.0
C      1  0.4849390000000  0.4427240000000  0.4151720000000 1.0
C      1  0.5163810000000  0.5647290000000  0.5886490000000 1.0
C      1  0.5154390000000  0.4420040000000  0.4159840000000 1.0
C      1  0.4218630000000  0.5173770000000  0.5732420000000 1.0
C      1  0.4187850000000  0.4810130000000  0.4225060000000 1.0
C      1  0.5792030000000  0.5191560000000  0.5726370000000 1.0
C      1  0.5824090000000  0.4778990000000  0.4242990000000 1.0
C      1  0.5487180000000  0.5140330000000  0.5136660000000 1.0
C      1  0.5376440000000  0.4938750000000  0.4936800000000 1.0
C      1  0.4547400000000  0.5113060000000  0.5120060000000 1.0
C      1  0.4605130000000  0.4901440000000  0.4913030000000 1.0
C      1  0.5576860000000  0.5637310000000  0.5701970000000 1.0
C      1  0.5549530000000  0.4340540000000  0.4284260000000 1.0
C      1  0.4418330000000  0.5630320000000  0.5718720000000 1.0
C      1  0.4449770000000  0.4361170000000  0.4238570000000 1.0
C      1  0.4645040000000  0.4771060000000  0.4454700000000 1.0
C      1  0.4715590000000  0.5283560000000  0.5558290000000 1.0
C      1  0.5334930000000  0.4774700000000  0.4470670000000 1.0
C      1  0.5288240000000  0.5291350000000  0.5580670000000 1.0
C      1  0.4852150000000  0.5536890000000  0.5593450000000 1.0
C      1  0.4838280000000  0.4526110000000  0.4456600000000 1.0
C      1  0.5140510000000  0.5542050000000  0.5597450000000 1.0
C      1  0.5148830000000  0.4524910000000  0.4466940000000 1.0
C      1  0.5407250000000  0.5812430000000  0.5856270000000 1.0
C      1  0.5338900000000  0.4201890000000  0.4140030000000 1.0
C      1  0.4593630000000  0.5806490000000  0.5869660000000 1.0
C      1  0.4664310000000  0.4213330000000  0.4111740000000 1.0
C      1  0.4441850000000  0.4941410000000  0.4667750000000 1.0
C      1  0.4366350000000  0.4982310000000  0.5296450000000 1.0
C      1  0.5522740000000  0.4944950000000  0.4678310000000 1.0
C      1  0.5660450000000  0.4995040000000  0.5302650000000 1.0
C      1  0.5141150000000  0.4980370000000  0.4424440000000 1.0
C      1  0.5153370000000  0.5017080000000  0.5521120000000 1.0
C      1  0.4866160000000  0.4980210000000  0.4504200000000 1.0
C      1  0.4866100000000  0.5011870000000  0.5516080000000 1.0
C      1  0.4815450000000  0.4238590000000  0.4902420000000 1.0
C      1  0.4834760000000  0.5748200000000  0.5112900000000 1.0
C      1  0.5139800000000  0.4233550000000  0.4906420000000 1.0
C      1  0.5149740000000  0.5761540000000  0.5110980000000 1.0
C      1  0.5396120000000  0.4659400000000  0.5018420000000 1.0
C      1  0.5520220000000  0.5415860000000  0.5010870000000 1.0
C      1  0.4580160000000  0.4630890000000  0.5009950000000 1.0
C      1  0.4521190000000  0.5378840000000  0.5002620000000 1.0
C      1  0.4656100000000  0.4382410000000  0.5746070000000 1.0
C      1  0.4636310000000  0.5613460000000  0.4283430000000 1.0
C      1  0.5374290000000  0.4392800000000  0.5734170000000 1.0
C      1  0.5368390000000  0.5607890000000  0.4267680000000 1.0
C      1  0.5390730000000  0.4732630000000  0.5978190000000 1.0
C      1  0.5380550000000  0.5276590000000  0.4013780000000 1.0
C      1  0.4631020000000  0.4725680000000  0.5981510000000 1.0
C      1  0.4624100000000  0.5285630000000  0.4027890000000 1.0
C      1  0.5009810000000  0.5875250000000  0.4536170000000 1.0
C      1  0.5018790000000  0.4113560000000  0.5486320000000 1.0
C      1  0.5030440000000  0.5276530000000  0.5112210000000 1.0
END
