TITL C-93440-6739-3 -5.22618311526031 125000 -1296.75946366538 0 0 186 (C1) n - 1
REM
REM in /rds/project/t2_vol4/rds-t2-cs072/BORA/CARBON/from-Arr/AIRSS/Generating-Clusters/GAP-ML-2020/Higher-Symm/SD-CG/HFTN-CG/C160-200
REM
REM
REM
REM
REM
REM ./C.cell (6b4489405718ea1b717e0baf1da4c2d9)
REM AIRSS Version 0.9.1 bugfix July 2018 build 013d7b7c2542+ Fri, 06 Jul 2018 19:26:36 +0100
REM compiler GCC version 9.3.0
REM options -cpp -mtune=generic -march=x86-64 -g -O0
REM seed -1579261225 -295209261 -349377798 2138869858 761096186 920099812 482113089 -2031781695 781989981 1029315800 1020887753 -1232914384 -263666621 1026762977 -1636558927 9489140 1021817138 866351029 1541528565 -947143877 224018030 2133888965 -2055273543 279403620 -60292780 -908889113 -1042219945 1121720460 452647518 -469576750 266081736 -126999686 1217570195
REM
CELL 1.54180   50.00000   50.00000   50.00000   90.00000   90.00000   90.00000
LATT -1
SFAC C  
C      1  0.5088390000000  0.5078450000000  0.4765370000000 1.0
C      1  0.5247270000000  0.5079840000000  0.5016250000000 1.0
C      1  0.5059500000000  0.5068340000000  0.5250270000000 1.0
C      1  0.4785690000000  0.5060640000000  0.5144470000000 1.0
C      1  0.4802250000000  0.5068910000000  0.4845390000000 1.0
C      1  0.4121250000000  0.5164610000000  0.4315060000000 1.0
C      1  0.5373550000000  0.5192740000000  0.3951630000000 1.0
C      1  0.6105630000000  0.5207790000000  0.5030000000000 1.0
C      1  0.5311850000000  0.5206240000000  0.6064400000000 1.0
C      1  0.4069690000000  0.5172560000000  0.5618780000000 1.0
C      1  0.5333390000000  0.5869210000000  0.5612180000000 1.0
C      1  0.4500740000000  0.5850300000000  0.5519030000000 1.0
C      1  0.4336640000000  0.5845680000000  0.4703130000000 1.0
C      1  0.5059210000000  0.5862040000000  0.4293750000000 1.0
C      1  0.5675130000000  0.5874110000000  0.4853290000000 1.0
C      1  0.4765400000000  0.3954080000000  0.4940560000000 1.0
C      1  0.4974210000000  0.3972120000000  0.4744300000000 1.0
C      1  0.5230480000000  0.3979220000000  0.4873250000000 1.0
C      1  0.5196020000000  0.3974050000000  0.5162070000000 1.0
C      1  0.4897740000000  0.3999820000000  0.5195440000000 1.0
C      1  0.5032330000000  0.5106300000000  0.6094690000000 1.0
C      1  0.3970370000000  0.5073030000000  0.5354960000000 1.0
C      1  0.4341340000000  0.5076970000000  0.4133580000000 1.0
C      1  0.5616780000000  0.5105980000000  0.4101570000000 1.0
C      1  0.6039500000000  0.5115190000000  0.5305690000000 1.0
C      1  0.4369150000000  0.5274010000000  0.4825870000000 1.0
C      1  0.4965980000000  0.5287040000000  0.4349440000000 1.0
C      1  0.5601000000000  0.5300000000000  0.4770550000000 1.0
C      1  0.5397690000000  0.5298310000000  0.5507460000000 1.0
C      1  0.4632010000000  0.5280190000000  0.5545500000000 1.0
C      1  0.4697660000000  0.4799730000000  0.4734290000000 1.0
C      1  0.5165090000000  0.4814860000000  0.4619860000000 1.0
C      1  0.5407680000000  0.4816290000000  0.5036630000000 1.0
C      1  0.5086640000000  0.4794770000000  0.5412400000000 1.0
C      1  0.4654090000000  0.4780170000000  0.5225860000000 1.0
C      1  0.5524100000000  0.5762280000000  0.4458590000000 1.0
C      1  0.5665220000000  0.5768840000000  0.5340360000000 1.0
C      1  0.4861220000000  0.5752810000000  0.5750100000000 1.0
C      1  0.4229610000000  0.5735380000000  0.5112340000000 1.0
C      1  0.4639510000000  0.5742810000000  0.4316630000000 1.0
C      1  0.4120930000000  0.5448370000000  0.4718800000000 1.0
C      1  0.4984990000000  0.5467460000000  0.4083780000000 1.0
C      1  0.5856370000000  0.5485280000000  0.4708140000000 1.0
C      1  0.5532870000000  0.5485390000000  0.5728250000000 1.0
C      1  0.4455940000000  0.5461380000000  0.5740070000000 1.0
C      1  0.5180070000000  0.5849720000000  0.5380300000000 1.0
C      1  0.4678390000000  0.5838590000000  0.5304070000000 1.0
C      1  0.4596350000000  0.5837640000000  0.4804910000000 1.0
C      1  0.5044720000000  0.5847940000000  0.4572060000000 1.0
C      1  0.5405990000000  0.5855330000000  0.4925420000000 1.0
C      1  0.4195710000000  0.5412110000000  0.4416890000000 1.0
C      1  0.5296320000000  0.5436490000000  0.4060220000000 1.0
C      1  0.5975620000000  0.5450900000000  0.4994950000000 1.0
C      1  0.5296290000000  0.5448450000000  0.5931490000000 1.0
C      1  0.4190050000000  0.5418640000000  0.5573060000000 1.0
C      1  0.5379120000000  0.4176870000000  0.5309480000000 1.0
C      1  0.4703200000000  0.4113520000000  0.5428280000000 1.0
C      1  0.4544530000000  0.4162290000000  0.4923890000000 1.0
C      1  0.4925540000000  0.4170750000000  0.4526240000000 1.0
C      1  0.5428220000000  0.4176490000000  0.4755040000000 1.0
C      1  0.4093700000000  0.4662650000000  0.4467500000000 1.0
C      1  0.5223210000000  0.4684920000000  0.3962180000000 1.0
C      1  0.6055230000000  0.4700900000000  0.4879270000000 1.0
C      1  0.5457430000000  0.4703020000000  0.5966710000000 1.0
C      1  0.4207230000000  0.4671270000000  0.5717440000000 1.0
C      1  0.5245110000000  0.5571020000000  0.4985870000000 1.0
C      1  0.5079050000000  0.5565240000000  0.5242180000000 1.0
C      1  0.4785220000000  0.5558120000000  0.5163040000000 1.0
C      1  0.4770300000000  0.5560000000000  0.4858810000000 1.0
C      1  0.5054080000000  0.5567590000000  0.4749110000000 1.0
C      1  0.4457190000000  0.4249930000000  0.5438650000000 1.0
C      1  0.4432490000000  0.4252900000000  0.4649470000000 1.0
C      1  0.5158140000000  0.4265100000000  0.4329380000000 1.0
C      1  0.5688390000000  0.4273230000000  0.4919450000000 1.0
C      1  0.5327760000000  0.4285780000000  0.5624410000000 1.0
C      1  0.4794180000000  0.4884350000000  0.4171900000000 1.0
C      1  0.5723440000000  0.4904610000000  0.4540510000000 1.0
C      1  0.5657970000000  0.4907180000000  0.5539560000000 1.0
C      1  0.4671030000000  0.4891770000000  0.5818440000000 1.0
C      1  0.4157200000000  0.4870440000000  0.4942010000000 1.0
C      1  0.5677970000000  0.4892650000000  0.5054410000000 1.0
C      1  0.5157100000000  0.4882500000000  0.5671070000000 1.0
C      1  0.4420490000000  0.4863560000000  0.5360290000000 1.0
C      1  0.4489570000000  0.4864260000000  0.4556570000000 1.0
C      1  0.5266760000000  0.4885020000000  0.4368700000000 1.0
C      1  0.5818440000000  0.5518730000000  0.5254910000000 1.0
C      1  0.4995060000000  0.5506550000000  0.5867750000000 1.0
C      1  0.4165320000000  0.5482520000000  0.5270070000000 1.0
C      1  0.4474190000000  0.5486560000000  0.4299470000000 1.0
C      1  0.5494030000000  0.5509800000000  0.4289720000000 1.0
C      1  0.5257420000000  0.4674310000000  0.6163320000000 1.0
C      1  0.3977410000000  0.4631580000000  0.5559370000000 1.0
C      1  0.4158680000000  0.4632730000000  0.4194710000000 1.0
C      1  0.5503590000000  0.4661810000000  0.3941090000000 1.0
C      1  0.6164750000000  0.4675690000000  0.5138120000000 1.0
C      1  0.4253430000000  0.4591210000000  0.4918670000000 1.0
C      1  0.4846850000000  0.4602960000000  0.4255240000000 1.0
C      1  0.5661930000000  0.4620070000000  0.4609980000000 1.0
C      1  0.5581560000000  0.4621530000000  0.5498010000000 1.0
C      1  0.4682320000000  0.4605020000000  0.5745760000000 1.0
C      1  0.4233740000000  0.4478310000000  0.4654150000000 1.0
C      1  0.5090630000000  0.4492270000000  0.4146890000000 1.0
C      1  0.5840940000000  0.4505420000000  0.4805410000000 1.0
C      1  0.5475390000000  0.4511430000000  0.5740780000000 1.0
C      1  0.4422950000000  0.4486640000000  0.5662580000000 1.0
C      1  0.4913300000000  0.4651610000000  0.4582160000000 1.0
C      1  0.5373080000000  0.4662360000000  0.4774420000000 1.0
C      1  0.5320990000000  0.4652370000000  0.5277620000000 1.0
C      1  0.4824070000000  0.4637210000000  0.5444630000000 1.0
C      1  0.4593410000000  0.4634860000000  0.4969790000000 1.0
C      1  0.3922250000000  0.5278130000000  0.4887060000000 1.0
C      1  0.4765170000000  0.5296390000000  0.3944230000000 1.0
C      1  0.5923910000000  0.5321140000000  0.4452280000000 1.0
C      1  0.5802370000000  0.5326070000000  0.5709550000000 1.0
C      1  0.4555380000000  0.5302730000000  0.5989810000000 1.0
C      1  0.5001430000000  0.4574610000000  0.6125160000000 1.0
C      1  0.3969900000000  0.4532040000000  0.5302770000000 1.0
C      1  0.4400630000000  0.4536710000000  0.4103630000000 1.0
C      1  0.5666790000000  0.4564130000000  0.4140330000000 1.0
C      1  0.6027550000000  0.4570790000000  0.5352980000000 1.0
C      1  0.3923170000000  0.5014990000000  0.4791100000000 1.0
C      1  0.4860620000000  0.5035730000000  0.3907290000000 1.0
C      1  0.5992730000000  0.5059840000000  0.4525130000000 1.0
C      1  0.5759800000000  0.5064370000000  0.5794860000000 1.0
C      1  0.4448850000000  0.5044450000000  0.5972850000000 1.0
C      1  0.4760920000000  0.4385470000000  0.4959820000000 1.0
C      1  0.4963030000000  0.4397540000000  0.4731810000000 1.0
C      1  0.5248000000000  0.4403350000000  0.4850620000000 1.0
C      1  0.5228730000000  0.4393880000000  0.5153100000000 1.0
C      1  0.4882730000000  0.4336780000000  0.5462550000000 1.0
C      1  0.5058590000000  0.4308220000000  0.5691820000000 1.0
C      1  0.4353900000000  0.4220400000000  0.5175560000000 1.0
C      1  0.4630630000000  0.4228880000000  0.4446540000000 1.0
C      1  0.5413630000000  0.4242470000000  0.4452470000000 1.0
C      1  0.5654130000000  0.4246780000000  0.5201670000000 1.0
C      1  0.4674460000000  0.5280350000000  0.4436170000000 1.0
C      1  0.5430300000000  0.5298080000000  0.4518780000000 1.0
C      1  0.5583090000000  0.5303530000000  0.5264550000000 1.0
C      1  0.4919050000000  0.5287170000000  0.5649340000000 1.0
C      1  0.4359780000000  0.5273070000000  0.5130420000000 1.0
C      1  0.5147880000000  0.4983430000000  0.3937380000000 1.0
C      1  0.6050750000000  0.5001800000000  0.4807490000000 1.0
C      1  0.5511930000000  0.5004710000000  0.5938800000000 1.0
C      1  0.4245970000000  0.4976210000000  0.5771580000000 1.0
C      1  0.4041900000000  0.4958940000000  0.4528850000000 1.0
C      1  0.4944790000000  0.5027310000000  0.5807890000000 1.0
C      1  0.4230380000000  0.5005490000000  0.5197870000000 1.0
C      1  0.4574830000000  0.5013080000000  0.4326490000000 1.0
C      1  0.5509040000000  0.5036000000000  0.4382480000000 1.0
C      1  0.5739040000000  0.5043080000000  0.5290310000000 1.0
C      1  0.4648970000000  0.5308090000000  0.4738510000000 1.0
C      1  0.5135950000000  0.5320180000000  0.4589680000000 1.0
C      1  0.5425010000000  0.5326130000000  0.5008680000000 1.0
C      1  0.5115730000000  0.5316850000000  0.5418180000000 1.0
C      1  0.4636130000000  0.5305100000000  0.5250070000000 1.0
C      1  0.5407240000000  0.5030600000000  0.5642120000000 1.0
C      1  0.4509200000000  0.5009970000000  0.5594840000000 1.0
C      1  0.4296850000000  0.5003940000000  0.4717930000000 1.0
C      1  0.5049330000000  0.5020520000000  0.4239380000000 1.0
C      1  0.5733890000000  0.5033430000000  0.4808870000000 1.0
C      1  0.5962900000000  0.5358220000000  0.5475740000000 1.0
C      1  0.4831890000000  0.5340740000000  0.6073320000000 1.0
C      1  0.3926050000000  0.5311970000000  0.5170520000000 1.0
C      1  0.4496530000000  0.5322280000000  0.4038420000000 1.0
C      1  0.5751640000000  0.5350690000000  0.4225440000000 1.0
C      1  0.4905090000000  0.4452090000000  0.5893330000000 1.0
C      1  0.4149330000000  0.4409860000000  0.5126490000000 1.0
C      1  0.4617270000000  0.4417270000000  0.4233420000000 1.0
C      1  0.5610990000000  0.4437010000000  0.4382570000000 1.0
C      1  0.5781620000000  0.4440610000000  0.5372920000000 1.0
C      1  0.4733420000000  0.5885500000000  0.4552630000000 1.0
C      1  0.5326430000000  0.5897610000000  0.4624530000000 1.0
C      1  0.5440820000000  0.5900870000000  0.5209810000000 1.0
C      1  0.4918280000000  0.5890800000000  0.5500140000000 1.0
C      1  0.4481280000000  0.5880790000000  0.5093800000000 1.0
C      1  0.4306250000000  0.4800710000000  0.4028210000000 1.0
C      1  0.5706230000000  0.4830570000000  0.4031310000000 1.0
C      1  0.6138840000000  0.4839790000000  0.5362360000000 1.0
C      1  0.5039810000000  0.4841290000000  0.6226660000000 1.0
C      1  0.3864900000000  0.4794340000000  0.5363370000000 1.0
C      1  0.5755280000000  0.5745310000000  0.4628020000000 1.0
C      1  0.5576140000000  0.5746760000000  0.5612360000000 1.0
C      1  0.4575250000000  0.5725610000000  0.5748250000000 1.0
C      1  0.4143840000000  0.5711120000000  0.4839240000000 1.0
C      1  0.4872810000000  0.5726870000000  0.4149510000000 1.0
C      1  0.4948590000000  0.4309980000000  0.5183900000000 1.0
END
