TITL C-93434-7469-1 590.086636598016 125000 -1216.31081072178 0 0 180 (C1) n - 1
REM
REM in /rds/project/t2_vol4/rds-t2-cs072/BORA/CARBON/from-Arr/AIRSS/Generating-Clusters/GAP-ML-2020/Higher-Symm/SD-CG/HFTN-CG/C160-200
REM
REM
REM
REM
REM
REM ./C.cell (6b4489405718ea1b717e0baf1da4c2d9)
REM AIRSS Version 0.9.1 bugfix July 2018 build 013d7b7c2542+ Fri, 06 Jul 2018 19:26:36 +0100
REM compiler GCC version 9.3.0
REM options -cpp -mtune=generic -march=x86-64 -g -O0
REM seed 166555067 -1971202580 -1375582611 1432411532 -1648672261 -1423733591 -1435402568 -1661119439 -1469948523 -1941318262 1915274506 1239008618 -876808489 1874531747 324538257 -1796945322 -885830703 1615063751 1108454080 1404341494 1256926756 -436543289 747427178 -1233258839 1278849433 792172223 1035740735 -655479696 627042664 1875422892 1027705283 -1833872836 -2009282669
REM
CELL 1.54180   50.00000   50.00000   50.00000   90.00000   90.00000   90.00000
LATT -1
SFAC C  
C      1  0.4797270000000  0.5117840000000  0.5488710000000 1.0
C      1  0.5525750000000  0.5119060000000  0.4932420000000 1.0
C      1  0.4678890000000  0.5112970000000  0.4581540000000 1.0
C      1  0.5251360000000  0.5647470000000  0.4497700000000 1.0
C      1  0.4439640000000  0.5647960000000  0.5029850000000 1.0
C      1  0.5306670000000  0.5651950000000  0.5466470000000 1.0
C      1  0.5419380000000  0.5931130000000  0.5483540000000 1.0
C      1  0.5210990000000  0.5925780000000  0.4388690000000 1.0
C      1  0.4365870000000  0.5927070000000  0.5117310000000 1.0
C      1  0.5831120000000  0.5013210000000  0.4287390000000 1.0
C      1  0.3966360000000  0.5015470000000  0.4631240000000 1.0
C      1  0.5199280000000  0.5026150000000  0.6080470000000 1.0
C      1  0.4374710000000  0.5444640000000  0.5242860000000 1.0
C      1  0.5524100000000  0.5449000000000  0.5419070000000 1.0
C      1  0.5101390000000  0.5443010000000  0.4335730000000 1.0
C      1  0.5684160000000  0.5860730000000  0.5469800000000 1.0
C      1  0.5066150000000  0.5852530000000  0.4167330000000 1.0
C      1  0.4246910000000  0.5855490000000  0.5353960000000 1.0
C      1  0.5178910000000  0.3854210000000  0.4602440000000 1.0
C      1  0.4564060000000  0.3858700000000  0.5046690000000 1.0
C      1  0.5254320000000  0.3859320000000  0.5365700000000 1.0
C      1  0.4044190000000  0.4955960000000  0.5415910000000 1.0
C      1  0.5839530000000  0.4961290000000  0.5620680000000 1.0
C      1  0.5117010000000  0.4954040000000  0.3959760000000 1.0
C      1  0.4645400000000  0.5927360000000  0.4452680000000 1.0
C      1  0.4704020000000  0.5932680000000  0.5575720000000 1.0
C      1  0.5650400000000  0.5933710000000  0.4961380000000 1.0
C      1  0.5162660000000  0.6055730000000  0.5416760000000 1.0
C      1  0.5281380000000  0.6052170000000  0.4643480000000 1.0
C      1  0.4551550000000  0.6052290000000  0.4928280000000 1.0
C      1  0.5084970000000  0.4825480000000  0.4743640000000 1.0
C      1  0.4736890000000  0.4823610000000  0.5053540000000 1.0
C      1  0.5178380000000  0.4828870000000  0.5210440000000 1.0
C      1  0.5867620000000  0.4630510000000  0.5619270000000 1.0
C      1  0.5096960000000  0.4632550000000  0.3926550000000 1.0
C      1  0.4032600000000  0.4626580000000  0.5443230000000 1.0
C      1  0.5929620000000  0.5265000000000  0.4449020000000 1.0
C      1  0.4060670000000  0.5262360000000  0.4466370000000 1.0
C      1  0.5010030000000  0.5274270000000  0.6079480000000 1.0
C      1  0.5870430000000  0.4514870000000  0.4477720000000 1.0
C      1  0.4119650000000  0.4519770000000  0.4492810000000 1.0
C      1  0.5010810000000  0.4528500000000  0.6026220000000 1.0
C      1  0.4951170000000  0.3958880000000  0.4484810000000 1.0
C      1  0.4588440000000  0.3977960000000  0.5291730000000 1.0
C      1  0.5456690000000  0.3976130000000  0.5224320000000 1.0
C      1  0.5481100000000  0.4275990000000  0.5656020000000 1.0
C      1  0.5258780000000  0.4290140000000  0.4309550000000 1.0
C      1  0.4202030000000  0.4272310000000  0.5091420000000 1.0
C      1  0.4231810000000  0.5151140000000  0.4249300000000 1.0
C      1  0.4736090000000  0.5164350000000  0.6043890000000 1.0
C      1  0.6042190000000  0.5160830000000  0.4702500000000 1.0
C      1  0.4475910000000  0.5496460000000  0.5538930000000 1.0
C      1  0.5729640000000  0.5499370000000  0.5182840000000 1.0
C      1  0.4793780000000  0.5491160000000  0.4274660000000 1.0
C      1  0.4811260000000  0.4653380000000  0.4782030000000 1.0
C      1  0.4917410000000  0.4666430000000  0.5256340000000 1.0
C      1  0.5257590000000  0.4674470000000  0.4952420000000 1.0
C      1  0.5627390000000  0.5388300000000  0.4621470000000 1.0
C      1  0.4360170000000  0.5387940000000  0.4644780000000 1.0
C      1  0.5012880000000  0.5391790000000  0.5730670000000 1.0
C      1  0.4484230000000  0.5915670000000  0.4670500000000 1.0
C      1  0.4973400000000  0.5920960000000  0.5605640000000 1.0
C      1  0.5539490000000  0.5917520000000  0.4713960000000 1.0
C      1  0.4112700000000  0.5517090000000  0.4578610000000 1.0
C      1  0.5081930000000  0.5527720000000  0.5974610000000 1.0
C      1  0.5804950000000  0.5519420000000  0.4437520000000 1.0
C      1  0.5919880000000  0.4776320000000  0.4440750000000 1.0
C      1  0.4053740000000  0.4777600000000  0.4475990000000 1.0
C      1  0.5021540000000  0.4789130000000  0.6086250000000 1.0
C      1  0.5822060000000  0.5371280000000  0.5734040000000 1.0
C      1  0.5226610000000  0.5363590000000  0.3917490000000 1.0
C      1  0.3951600000000  0.5365330000000  0.5342950000000 1.0
C      1  0.4910610000000  0.5233600000000  0.5256300000000 1.0
C      1  0.5265870000000  0.5231870000000  0.4947680000000 1.0
C      1  0.4821340000000  0.5231590000000  0.4795270000000 1.0
C      1  0.4735030000000  0.5662420000000  0.5012770000000 1.0
C      1  0.5143410000000  0.5663490000000  0.5219230000000 1.0
C      1  0.5118340000000  0.5661870000000  0.4761950000000 1.0
C      1  0.4313560000000  0.5674030000000  0.4748040000000 1.0
C      1  0.5126380000000  0.5680380000000  0.5716600000000 1.0
C      1  0.5558250000000  0.5674660000000  0.4528360000000 1.0
C      1  0.5926260000000  0.4895600000000  0.5015590000000 1.0
C      1  0.4557850000000  0.4881340000000  0.4199580000000 1.0
C      1  0.4527280000000  0.4892720000000  0.5791410000000 1.0
C      1  0.5979970000000  0.5186360000000  0.5007740000000 1.0
C      1  0.4522690000000  0.5171340000000  0.4149800000000 1.0
C      1  0.4502890000000  0.5182950000000  0.5842740000000 1.0
C      1  0.5341530000000  0.4760880000000  0.4279130000000 1.0
C      1  0.4191550000000  0.4757420000000  0.5064360000000 1.0
C      1  0.5457020000000  0.4762640000000  0.5668610000000 1.0
C      1  0.5198340000000  0.4205170000000  0.5699510000000 1.0
C      1  0.5484780000000  0.4195980000000  0.4496380000000 1.0
C      1  0.4308740000000  0.4202690000000  0.4825060000000 1.0
C      1  0.4310410000000  0.4895020000000  0.4366900000000 1.0
C      1  0.4796370000000  0.4907130000000  0.5919890000000 1.0
C      1  0.5905410000000  0.4905260000000  0.4718510000000 1.0
C      1  0.4450430000000  0.4944840000000  0.4643330000000 1.0
C      1  0.4963110000000  0.4948030000000  0.5657250000000 1.0
C      1  0.5593960000000  0.4946430000000  0.4708630000000 1.0
C      1  0.4723930000000  0.5122310000000  0.5060590000000 1.0
C      1  0.5190060000000  0.5125980000000  0.5210170000000 1.0
C      1  0.5083400000000  0.5122080000000  0.4729330000000 1.0
C      1  0.4791900000000  0.5796100000000  0.4265950000000 1.0
C      1  0.4469050000000  0.5801000000000  0.5542820000000 1.0
C      1  0.5737270000000  0.5803730000000  0.5183630000000 1.0
C      1  0.4819230000000  0.4538450000000  0.4500680000000 1.0
C      1  0.4693300000000  0.4558570000000  0.5433900000000 1.0
C      1  0.5531370000000  0.4563950000000  0.5046590000000 1.0
C      1  0.4396320000000  0.4297990000000  0.5571670000000 1.0
C      1  0.5794000000000  0.4298250000000  0.5242810000000 1.0
C      1  0.4801390000000  0.4279720000000  0.4179060000000 1.0
C      1  0.4048260000000  0.5011460000000  0.4926020000000 1.0
C      1  0.5412160000000  0.5017970000000  0.5861300000000 1.0
C      1  0.5537060000000  0.5008190000000  0.4212840000000 1.0
C      1  0.4511060000000  0.4669440000000  0.4731870000000 1.0
C      1  0.4997360000000  0.4666350000000  0.5561910000000 1.0
C      1  0.5499500000000  0.4664460000000  0.4738260000000 1.0
C      1  0.5664200000000  0.4391140000000  0.4637310000000 1.0
C      1  0.4362620000000  0.4402330000000  0.4600910000000 1.0
C      1  0.4979700000000  0.4401620000000  0.5770430000000 1.0
C      1  0.5061230000000  0.4402980000000  0.5156980000000 1.0
C      1  0.5114270000000  0.4398210000000  0.4873510000000 1.0
C      1  0.4832110000000  0.4393590000000  0.4957260000000 1.0
C      1  0.5090010000000  0.5958640000000  0.5144410000000 1.0
C      1  0.5080890000000  0.5957240000000  0.4843170000000 1.0
C      1  0.4824630000000  0.5957740000000  0.5002260000000 1.0
C      1  0.5272070000000  0.4526460000000  0.4115990000000 1.0
C      1  0.4064940000000  0.4521070000000  0.5182500000000 1.0
C      1  0.5625270000000  0.4527580000000  0.5723180000000 1.0
C      1  0.5081020000000  0.4922970000000  0.4261650000000 1.0
C      1  0.4325010000000  0.4920440000000  0.5296290000000 1.0
C      1  0.5596770000000  0.4924140000000  0.5439190000000 1.0
C      1  0.4282820000000  0.5323630000000  0.5710650000000 1.0
C      1  0.5975970000000  0.5327380000000  0.5264240000000 1.0
C      1  0.4742320000000  0.5317320000000  0.4022370000000 1.0
C      1  0.5877160000000  0.4540300000000  0.5354520000000 1.0
C      1  0.4879960000000  0.4529620000000  0.4065110000000 1.0
C      1  0.4257200000000  0.4538630000000  0.5583860000000 1.0
C      1  0.4894770000000  0.5524690000000  0.5208910000000 1.0
C      1  0.5232120000000  0.5523420000000  0.4983260000000 1.0
C      1  0.4869250000000  0.5523220000000  0.4803700000000 1.0
C      1  0.5171330000000  0.5166510000000  0.4447070000000 1.0
C      1  0.4435710000000  0.5165810000000  0.5128210000000 1.0
C      1  0.5394120000000  0.5170240000000  0.5424970000000 1.0
C      1  0.4396210000000  0.4197640000000  0.5298470000000 1.0
C      1  0.5558180000000  0.4201300000000  0.5381770000000 1.0
C      1  0.5020860000000  0.4120510000000  0.4258770000000 1.0
C      1  0.4583910000000  0.4436550000000  0.5166750000000 1.0
C      1  0.5354500000000  0.4440350000000  0.5280780000000 1.0
C      1  0.5105750000000  0.4439560000000  0.4544820000000 1.0
C      1  0.4628870000000  0.4293280000000  0.4440010000000 1.0
C      1  0.4704390000000  0.4298690000000  0.5612910000000 1.0
C      1  0.5673500000000  0.4292050000000  0.4956730000000 1.0
C      1  0.4466420000000  0.4751180000000  0.5530150000000 1.0
C      1  0.5729150000000  0.4753640000000  0.5198710000000 1.0
C      1  0.4818900000000  0.4743050000000  0.4270550000000 1.0
C      1  0.5531140000000  0.4040140000000  0.4949530000000 1.0
C      1  0.4679750000000  0.4036820000000  0.4567820000000 1.0
C      1  0.4786040000000  0.4047350000000  0.5497050000000 1.0
C      1  0.5696030000000  0.5122020000000  0.5831900000000 1.0
C      1  0.5373280000000  0.5112770000000  0.3979360000000 1.0
C      1  0.3930740000000  0.5115640000000  0.5185690000000 1.0
C      1  0.4110940000000  0.5589240000000  0.5302700000000 1.0
C      1  0.5707790000000  0.5595290000000  0.5615910000000 1.0
C      1  0.5180730000000  0.5586540000000  0.4076470000000 1.0
C      1  0.4318310000000  0.5138530000000  0.4848090000000 1.0
C      1  0.5208020000000  0.5141550000000  0.5666490000000 1.0
C      1  0.5474840000000  0.5136360000000  0.4487630000000 1.0
C      1  0.5719880000000  0.5331100000000  0.4924840000000 1.0
C      1  0.4575140000000  0.5323450000000  0.4413860000000 1.0
C      1  0.4705450000000  0.5329880000000  0.5661020000000 1.0
C      1  0.5977110000000  0.5210840000000  0.5527050000000 1.0
C      1  0.4969160000000  0.5203310000000  0.3886880000000 1.0
C      1  0.4055440000000  0.5205500000000  0.5580480000000 1.0
C      1  0.5413320000000  0.3979520000000  0.4676900000000 1.0
C      1  0.4504990000000  0.3985510000000  0.4806230000000 1.0
C      1  0.5078900000000  0.3991660000000  0.5535560000000 1.0
C      1  0.5281400000000  0.4676920000000  0.5451340000000 1.0
C      1  0.5265980000000  0.4686200000000  0.4548850000000 1.0
C      1  0.4470990000000  0.4677480000000  0.5028190000000 1.0
END
