TITL C-93463-6326-3 -134.764954309536 125000 -1328.83803317113 0 0 192 (C1) n - 1
REM
REM in /rds/project/t2_vol4/rds-t2-cs072/BORA/CARBON/from-Arr/AIRSS/Generating-Clusters/GAP-ML-2020/Higher-Symm/SD-CG/HFTN-CG/C160-200
REM
REM
REM
REM
REM
REM ./C.cell (6b4489405718ea1b717e0baf1da4c2d9)
REM AIRSS Version 0.9.1 bugfix July 2018 build 013d7b7c2542+ Fri, 06 Jul 2018 19:26:36 +0100
REM compiler GCC version 9.3.0
REM options -cpp -mtune=generic -march=x86-64 -g -O0
REM seed 2062298806 -37885294 957431169 -702534409 -295816923 2100749674 -845000606 1854981701 1519139536 1173069938 1764305886 995106163 303333947 -138076216 1914612540 -533090956 -231246001 1457122455 -2016479578 2143090872 567098278 -623568829 -505010624 -1855205811 -1545364444 -428903579 -1187198731 1355096820 -1459128419 -1523101251 -1149733406 326122515 1472653609
REM
CELL 1.54180   50.00000   50.00000   50.00000   90.00000   90.00000   90.00000
LATT -1
SFAC C  
C      1  0.5260770000000  0.4857410000000  0.4743330000000 1.0
C      1  0.5236400000000  0.4844800000000  0.5265460000000 1.0
C      1  0.4708890000000  0.4859460000000  0.5204700000000 1.0
C      1  0.4758380000000  0.4861430000000  0.4699350000000 1.0
C      1  0.5270850000000  0.5146060000000  0.4737230000000 1.0
C      1  0.5240960000000  0.5157450000000  0.5266320000000 1.0
C      1  0.4722630000000  0.5163080000000  0.5211150000000 1.0
C      1  0.4772710000000  0.5174640000000  0.4695940000000 1.0
C      1  0.5153320000000  0.3833220000000  0.4867240000000 1.0
C      1  0.5134460000000  0.3825290000000  0.5159900000000 1.0
C      1  0.4843160000000  0.3821100000000  0.5137480000000 1.0
C      1  0.4858400000000  0.3827460000000  0.4846170000000 1.0
C      1  0.5152530000000  0.6168410000000  0.4858180000000 1.0
C      1  0.5141200000000  0.6170980000000  0.5149850000000 1.0
C      1  0.4846240000000  0.6164970000000  0.5136580000000 1.0
C      1  0.4855910000000  0.6161210000000  0.4844490000000 1.0
C      1  0.5622940000000  0.5530080000000  0.4679750000000 1.0
C      1  0.5379100000000  0.5543890000000  0.5584620000000 1.0
C      1  0.4388960000000  0.5537730000000  0.5361540000000 1.0
C      1  0.4593410000000  0.5559370000000  0.4366090000000 1.0
C      1  0.5624140000000  0.4466810000000  0.4676390000000 1.0
C      1  0.5392710000000  0.4461370000000  0.5590960000000 1.0
C      1  0.4405580000000  0.4454470000000  0.5358630000000 1.0
C      1  0.4606980000000  0.4452960000000  0.4400710000000 1.0
C      1  0.5040910000000  0.5583280000000  0.4759350000000 1.0
C      1  0.5229590000000  0.5582740000000  0.5025930000000 1.0
C      1  0.4983820000000  0.5576340000000  0.5233910000000 1.0
C      1  0.4795450000000  0.5579210000000  0.4974330000000 1.0
C      1  0.4994180000000  0.4441800000000  0.4750700000000 1.0
C      1  0.5183470000000  0.4434260000000  0.5013040000000 1.0
C      1  0.4938350000000  0.4448380000000  0.5214530000000 1.0
C      1  0.4734630000000  0.4451650000000  0.4951410000000 1.0
C      1  0.6072910000000  0.4853040000000  0.5391340000000 1.0
C      1  0.4684490000000  0.4861970000000  0.5846490000000 1.0
C      1  0.4108750000000  0.4847950000000  0.4637200000000 1.0
C      1  0.5296880000000  0.4863610000000  0.4111650000000 1.0
C      1  0.6077070000000  0.5144830000000  0.5391980000000 1.0
C      1  0.4683970000000  0.5135560000000  0.5850420000000 1.0
C      1  0.4058610000000  0.5117910000000  0.4652120000000 1.0
C      1  0.5298090000000  0.5136250000000  0.4111470000000 1.0
C      1  0.5173800000000  0.4310870000000  0.5698560000000 1.0
C      1  0.4290340000000  0.4308670000000  0.5141210000000 1.0
C      1  0.4824450000000  0.4304250000000  0.4291100000000 1.0
C      1  0.5737140000000  0.4298200000000  0.4868790000000 1.0
C      1  0.5153000000000  0.5687360000000  0.5693670000000 1.0
C      1  0.4293430000000  0.5673450000000  0.5133050000000 1.0
C      1  0.4814710000000  0.5710240000000  0.4269870000000 1.0
C      1  0.5731760000000  0.5693400000000  0.4882720000000 1.0
C      1  0.4173980000000  0.5372490000000  0.4265210000000 1.0
C      1  0.5674190000000  0.5356030000000  0.4247460000000 1.0
C      1  0.5796990000000  0.5378760000000  0.5743560000000 1.0
C      1  0.4280900000000  0.5364410000000  0.5789610000000 1.0
C      1  0.4182630000000  0.4610770000000  0.4253720000000 1.0
C      1  0.5671370000000  0.4643230000000  0.4245070000000 1.0
C      1  0.5799530000000  0.4626810000000  0.5748160000000 1.0
C      1  0.4290060000000  0.4618770000000  0.5789430000000 1.0
C      1  0.4446420000000  0.4858890000000  0.3838000000000 1.0
C      1  0.6116640000000  0.4849510000000  0.4418160000000 1.0
C      1  0.5520370000000  0.4857450000000  0.6151730000000 1.0
C      1  0.3850120000000  0.4841880000000  0.5556530000000 1.0
C      1  0.4444980000000  0.5144610000000  0.3841780000000 1.0
C      1  0.6119110000000  0.5142320000000  0.4417470000000 1.0
C      1  0.5520100000000  0.5143700000000  0.6154260000000 1.0
C      1  0.3845710000000  0.5128400000000  0.5557640000000 1.0
C      1  0.5274910000000  0.5587970000000  0.4105670000000 1.0
C      1  0.5922200000000  0.5586140000000  0.5322850000000 1.0
C      1  0.4708650000000  0.5579300000000  0.5892320000000 1.0
C      1  0.4077690000000  0.5572290000000  0.4700250000000 1.0
C      1  0.5270270000000  0.4413170000000  0.4103900000000 1.0
C      1  0.5899670000000  0.4417270000000  0.5320520000000 1.0
C      1  0.4722730000000  0.4414900000000  0.5883510000000 1.0
C      1  0.4085680000000  0.4406030000000  0.4696620000000 1.0
C      1  0.4176730000000  0.5125110000000  0.4909820000000 1.0
C      1  0.5056030000000  0.5156550000000  0.4293030000000 1.0
C      1  0.6131440000000  0.5139110000000  0.5109970000000 1.0
C      1  0.4930010000000  0.5158700000000  0.5668820000000 1.0
C      1  0.4264950000000  0.4839100000000  0.4905200000000 1.0
C      1  0.5052560000000  0.4845360000000  0.4296110000000 1.0
C      1  0.6127670000000  0.4855710000000  0.5109480000000 1.0
C      1  0.4926430000000  0.4846710000000  0.5661970000000 1.0
C      1  0.4038780000000  0.4626340000000  0.4501150000000 1.0
C      1  0.5446560000000  0.4644900000000  0.4067090000000 1.0
C      1  0.5961780000000  0.4634690000000  0.5514420000000 1.0
C      1  0.4539820000000  0.4645420000000  0.5923240000000 1.0
C      1  0.4029550000000  0.5348700000000  0.4509950000000 1.0
C      1  0.5449460000000  0.5354470000000  0.4069120000000 1.0
C      1  0.5972040000000  0.5366020000000  0.5517310000000 1.0
C      1  0.4530540000000  0.5345380000000  0.5927260000000 1.0
C      1  0.4140440000000  0.4828780000000  0.5640430000000 1.0
C      1  0.4334730000000  0.4832370000000  0.4118860000000 1.0
C      1  0.5816720000000  0.4844390000000  0.4399570000000 1.0
C      1  0.5645400000000  0.4842610000000  0.5874740000000 1.0
C      1  0.4138560000000  0.5151680000000  0.5638840000000 1.0
C      1  0.4330600000000  0.5159940000000  0.4123580000000 1.0
C      1  0.5819000000000  0.5153600000000  0.4399710000000 1.0
C      1  0.5644740000000  0.5164470000000  0.5875520000000 1.0
C      1  0.4619710000000  0.4842130000000  0.4236320000000 1.0
C      1  0.5771270000000  0.4840370000000  0.4736570000000 1.0
C      1  0.5367050000000  0.4847280000000  0.5737850000000 1.0
C      1  0.4235480000000  0.4833680000000  0.5344220000000 1.0
C      1  0.4617440000000  0.5159230000000  0.4237500000000 1.0
C      1  0.5775850000000  0.5158980000000  0.4735940000000 1.0
C      1  0.5365290000000  0.5162770000000  0.5741210000000 1.0
C      1  0.4236390000000  0.5150690000000  0.5340410000000 1.0
C      1  0.5295780000000  0.5934420000000  0.4457070000000 1.0
C      1  0.5552010000000  0.5922320000000  0.5302460000000 1.0
C      1  0.4706380000000  0.5916560000000  0.5540610000000 1.0
C      1  0.4449570000000  0.5905670000000  0.4703370000000 1.0
C      1  0.5278150000000  0.4085800000000  0.4478310000000 1.0
C      1  0.5512010000000  0.4093600000000  0.5312190000000 1.0
C      1  0.4715180000000  0.4067440000000  0.5538520000000 1.0
C      1  0.4447100000000  0.4074040000000  0.4702200000000 1.0
C      1  0.4519820000000  0.4219050000000  0.4940840000000 1.0
C      1  0.5029360000000  0.4214000000000  0.4538180000000 1.0
C      1  0.5422710000000  0.4227360000000  0.5076840000000 1.0
C      1  0.4921080000000  0.4214680000000  0.5409430000000 1.0
C      1  0.4527160000000  0.5767550000000  0.4943840000000 1.0
C      1  0.5058460000000  0.5811480000000  0.4547760000000 1.0
C      1  0.5487350000000  0.5783310000000  0.5059970000000 1.0
C      1  0.4955020000000  0.5790250000000  0.5467080000000 1.0
C      1  0.6216990000000  0.5148670000000  0.4686860000000 1.0
C      1  0.5221400000000  0.5146310000000  0.6157360000000 1.0
C      1  0.3798420000000  0.5136630000000  0.5262240000000 1.0
C      1  0.4749210000000  0.5150820000000  0.3827530000000 1.0
C      1  0.6213430000000  0.4842660000000  0.4688100000000 1.0
C      1  0.5221700000000  0.4854030000000  0.6154770000000 1.0
C      1  0.3808630000000  0.4835530000000  0.5256430000000 1.0
C      1  0.4749250000000  0.4854430000000  0.3823520000000 1.0
C      1  0.5051060000000  0.5285330000000  0.4606540000000 1.0
C      1  0.5334140000000  0.5305080000000  0.5022970000000 1.0
C      1  0.4968240000000  0.5277420000000  0.5358460000000 1.0
C      1  0.4711130000000  0.5298740000000  0.4953400000000 1.0
C      1  0.5025080000000  0.4732330000000  0.4613850000000 1.0
C      1  0.5311740000000  0.4705750000000  0.5009270000000 1.0
C      1  0.4948700000000  0.4736480000000  0.5343080000000 1.0
C      1  0.4608270000000  0.4742150000000  0.4940220000000 1.0
C      1  0.5628980000000  0.5584570000000  0.4399680000000 1.0
C      1  0.5640570000000  0.5610200000000  0.5676340000000 1.0
C      1  0.4335410000000  0.5598440000000  0.5634500000000 1.0
C      1  0.4321010000000  0.5615910000000  0.4317620000000 1.0
C      1  0.5623760000000  0.4416300000000  0.4397640000000 1.0
C      1  0.5643750000000  0.4392180000000  0.5692080000000 1.0
C      1  0.4353380000000  0.4388840000000  0.5632440000000 1.0
C      1  0.4340480000000  0.4384970000000  0.4324650000000 1.0
C      1  0.4561790000000  0.5754420000000  0.5721780000000 1.0
C      1  0.4249380000000  0.5755090000000  0.4560280000000 1.0
C      1  0.5422200000000  0.5750650000000  0.4288950000000 1.0
C      1  0.5733110000000  0.5761080000000  0.5452420000000 1.0
C      1  0.4578680000000  0.4232160000000  0.5721300000000 1.0
C      1  0.4260690000000  0.4229860000000  0.4555050000000 1.0
C      1  0.5409920000000  0.4254520000000  0.4296910000000 1.0
C      1  0.5705980000000  0.4248930000000  0.5453610000000 1.0
C      1  0.4632810000000  0.6057160000000  0.5306340000000 1.0
C      1  0.4679710000000  0.6057780000000  0.4631670000000 1.0
C      1  0.5373260000000  0.6066370000000  0.4692060000000 1.0
C      1  0.5317090000000  0.6070260000000  0.5365300000000 1.0
C      1  0.4634160000000  0.3931670000000  0.5306780000000 1.0
C      1  0.4679970000000  0.3928720000000  0.4634830000000 1.0
C      1  0.5366030000000  0.3952690000000  0.4710540000000 1.0
C      1  0.5285550000000  0.3937700000000  0.5379490000000 1.0
C      1  0.4611030000000  0.5293150000000  0.4487640000000 1.0
C      1  0.5520400000000  0.5277970000000  0.4795450000000 1.0
C      1  0.5384150000000  0.5275920000000  0.5484710000000 1.0
C      1  0.4487000000000  0.5277150000000  0.5323020000000 1.0
C      1  0.4616920000000  0.4724500000000  0.4489290000000 1.0
C      1  0.5516520000000  0.4716780000000  0.4793370000000 1.0
C      1  0.5389790000000  0.4730560000000  0.5481760000000 1.0
C      1  0.4491930000000  0.4724350000000  0.5334030000000 1.0
C      1  0.4053190000000  0.4714010000000  0.5113460000000 1.0
C      1  0.4866120000000  0.4728630000000  0.4075680000000 1.0
C      1  0.6012410000000  0.4704140000000  0.4898180000000 1.0
C      1  0.5111810000000  0.4735200000000  0.5891340000000 1.0
C      1  0.4037530000000  0.5259900000000  0.5121860000000 1.0
C      1  0.4868610000000  0.5274970000000  0.4077030000000 1.0
C      1  0.6019910000000  0.5292480000000  0.4897090000000 1.0
C      1  0.5110580000000  0.5269670000000  0.5900390000000 1.0
C      1  0.5934620000000  0.5555810000000  0.5034240000000 1.0
C      1  0.4995410000000  0.5548490000000  0.5886010000000 1.0
C      1  0.4088930000000  0.5532450000000  0.4987180000000 1.0
C      1  0.4987310000000  0.5558840000000  0.4101760000000 1.0
C      1  0.5919350000000  0.4441310000000  0.5034230000000 1.0
C      1  0.5005390000000  0.4454830000000  0.5869280000000 1.0
C      1  0.4090240000000  0.4443690000000  0.4986420000000 1.0
C      1  0.4983300000000  0.4446210000000  0.4100550000000 1.0
C      1  0.4823450000000  0.4047730000000  0.4432060000000 1.0
C      1  0.5554820000000  0.4079250000000  0.4876130000000 1.0
C      1  0.5119050000000  0.4076610000000  0.5555940000000 1.0
C      1  0.4435110000000  0.4050830000000  0.5158330000000 1.0
C      1  0.4838150000000  0.5943180000000  0.4432060000000 1.0
C      1  0.5572730000000  0.5952430000000  0.4845230000000 1.0
C      1  0.5167980000000  0.5955480000000  0.5564750000000 1.0
C      1  0.4435660000000  0.5943910000000  0.5150410000000 1.0
END
