TITL C-93874-9996-1 -0.0188796780065727 125000 -379.271217837305 0 0 56 (C1) n - 1
REM
REM in /rds/project/t2_vol4/rds-t2-cs072/BORA/CARBON/from-Arr/AIRSS/Generating-Clusters/GAP-ML-2020/Higher-Symm/SD-CG/HFTN-CG
REM
REM
REM
REM
REM
REM ./C.cell (b20cbc046b6831c77cfcea5457e17084)
REM AIRSS Version 0.9.1 bugfix July 2018 build 013d7b7c2542+ Fri, 06 Jul 2018 19:26:36 +0100
REM compiler GCC version 9.3.0
REM options -cpp -mtune=generic -march=x86-64 -g -O0
REM seed -776627383 -2064702094 -179310463 -1474537315 586589339 -378648169 -342618138 461391825 1641782898 1030745555 1881242016 -1743399106 2010362306 1636309152 1592805690 -462498844 748441478 548998111 1256575542 -295714643 276088632 -1573323976 -164865730 -1191712064 684950587 525843562 2046775612 -960920487 -1512669995 1798591560 -1266008135 -1752886385 1355061887
REM
CELL 1.54180   50.00000   50.00000   50.00000   90.00000   90.00000   90.00000
LATT -1
SFAC C  
C      1  0.4519750000000  0.5137330000000  0.5260780000000 1.0
C      1  0.4531050000000  0.4692350000000  0.4978310000000 1.0
C      1  0.4540070000000  0.5164950000000  0.4741550000000 1.0
C      1  0.5461860000000  0.4669830000000  0.5313720000000 1.0
C      1  0.5495650000000  0.4886900000000  0.4589370000000 1.0
C      1  0.5484480000000  0.5424770000000  0.5139370000000 1.0
C      1  0.4866000000000  0.5130300000000  0.4373550000000 1.0
C      1  0.4836050000000  0.5482200000000  0.5430830000000 1.0
C      1  0.4822600000000  0.4341830000000  0.5205700000000 1.0
C      1  0.5227750000000  0.5112300000000  0.5154620000000 1.0
C      1  0.5117450000000  0.4706710000000  0.5023270000000 1.0
C      1  0.5240860000000  0.5095340000000  0.4850810000000 1.0
C      1  0.5037250000000  0.5370950000000  0.5592620000000 1.0
C      1  0.5027690000000  0.4235560000000  0.5039440000000 1.0
C      1  0.5071520000000  0.5320040000000  0.4395080000000 1.0
C      1  0.5470240000000  0.4930900000000  0.5449900000000 1.0
C      1  0.5475240000000  0.4641580000000  0.4750500000000 1.0
C      1  0.5490370000000  0.5412320000000  0.4848210000000 1.0
C      1  0.5257840000000  0.4915580000000  0.5648390000000 1.0
C      1  0.5275400000000  0.4464270000000  0.4629530000000 1.0
C      1  0.5286760000000  0.5604530000000  0.4753010000000 1.0
C      1  0.5300440000000  0.4851720000000  0.4374400000000 1.0
C      1  0.5283570000000  0.5631410000000  0.5212710000000 1.0
C      1  0.5255190000000  0.4498130000000  0.5443390000000 1.0
C      1  0.5026080000000  0.5268880000000  0.4972290000000 1.0
C      1  0.5024330000000  0.4902320000000  0.5224800000000 1.0
C      1  0.5039070000000  0.4869560000000  0.4793890000000 1.0
C      1  0.5092610000000  0.5586990000000  0.5418070000000 1.0
C      1  0.5081990000000  0.4315620000000  0.5309870000000 1.0
C      1  0.5122970000000  0.5057320000000  0.4305700000000 1.0
C      1  0.4599110000000  0.5439770000000  0.4764090000000 1.0
C      1  0.4579260000000  0.4975800000000  0.5481240000000 1.0
C      1  0.4600350000000  0.4578830000000  0.4732830000000 1.0
C      1  0.5126010000000  0.4658000000000  0.5639680000000 1.0
C      1  0.5159940000000  0.4599160000000  0.4406450000000 1.0
C      1  0.5149780000000  0.5725250000000  0.4975340000000 1.0
C      1  0.5487820000000  0.5149940000000  0.4722010000000 1.0
C      1  0.5469670000000  0.5174200000000  0.5291300000000 1.0
C      1  0.5413750000000  0.4654260000000  0.5030850000000 1.0
C      1  0.4630660000000  0.4556770000000  0.5209580000000 1.0
C      1  0.4643880000000  0.5025210000000  0.4512430000000 1.0
C      1  0.4626840000000  0.5405320000000  0.5255540000000 1.0
C      1  0.4657610000000  0.4747080000000  0.4501640000000 1.0
C      1  0.4640130000000  0.5561450000000  0.5024310000000 1.0
C      1  0.4633370000000  0.4691020000000  0.5451770000000 1.0
C      1  0.4846370000000  0.4694810000000  0.5643210000000 1.0
C      1  0.4877460000000  0.4578070000000  0.4422190000000 1.0
C      1  0.4865040000000  0.5719260000000  0.4934160000000 1.0
C      1  0.5074910000000  0.5543640000000  0.4563560000000 1.0
C      1  0.5045060000000  0.5106940000000  0.5683550000000 1.0
C      1  0.5058030000000  0.4314180000000  0.4763930000000 1.0
C      1  0.4792090000000  0.4977510000000  0.5678740000000 1.0
C      1  0.4814560000000  0.4400050000000  0.4644170000000 1.0
C      1  0.4818230000000  0.5608030000000  0.4669910000000 1.0
C      1  0.4535830000000  0.5000000000000  0.4993390000000 1.0
C      1  0.4844600000000  0.5029920000000  0.4985380000000 1.0
END
