TITL C-93462-6346-2 0.0769357726290333 125000 -1168.57173046695 0 0 167 (C1) n - 1
REM
REM in /rds/project/t2_vol4/rds-t2-cs072/BORA/CARBON/from-Arr/AIRSS/Generating-Clusters/GAP-ML-2020/Higher-Symm/SD-CG/HFTN-CG/C160-200
REM
REM
REM
REM
REM
REM ./C.cell (6b4489405718ea1b717e0baf1da4c2d9)
REM AIRSS Version 0.9.1 bugfix July 2018 build 013d7b7c2542+ Fri, 06 Jul 2018 19:26:36 +0100
REM compiler GCC version 9.3.0
REM options -cpp -mtune=generic -march=x86-64 -g -O0
REM seed 1419942099 -864737470 1749653053 -930639098 1043217809 -1856159638 1369817815 279951924 864307012 602739041 -542805488 -2068519350 1288770211 1829172363 -95171141 -1643533682 -689672397 -863682739 1653145255 431644056 -1871381432 1321568490 -8745934 -388415328 571673578 1995668971 -546302115 -1653027066 -1126184158 -1543446940 1849204714 726386156 861561790
REM
CELL 1.54180   50.00000   50.00000   50.00000   90.00000   90.00000   90.00000
LATT -1
SFAC C  
C      1  0.4647970000000  0.5289160000000  0.5047250000000 1.0
C      1  0.4667430000000  0.4877390000000  0.5331460000000 1.0
C      1  0.4619190000000  0.4894350000000  0.4808270000000 1.0
C      1  0.5365410000000  0.5228820000000  0.5007760000000 1.0
C      1  0.5392100000000  0.4798960000000  0.5230580000000 1.0
C      1  0.5338510000000  0.4792470000000  0.4743440000000 1.0
C      1  0.5205600000000  0.4444360000000  0.5788550000000 1.0
C      1  0.5174150000000  0.4633140000000  0.4104350000000 1.0
C      1  0.5218470000000  0.5894750000000  0.5067900000000 1.0
C      1  0.4831560000000  0.4399090000000  0.5795220000000 1.0
C      1  0.4803740000000  0.4625460000000  0.4149340000000 1.0
C      1  0.4824680000000  0.5916470000000  0.5065350000000 1.0
C      1  0.5598080000000  0.4181790000000  0.5342160000000 1.0
C      1  0.5543120000000  0.5174470000000  0.4139870000000 1.0
C      1  0.5540670000000  0.5636660000000  0.5589080000000 1.0
C      1  0.4478280000000  0.4155620000000  0.5283710000000 1.0
C      1  0.4457100000000  0.5182330000000  0.4153840000000 1.0
C      1  0.4425060000000  0.5690680000000  0.5535370000000 1.0
C      1  0.4235640000000  0.4424940000000  0.4826610000000 1.0
C      1  0.4229020000000  0.5452030000000  0.4611520000000 1.0
C      1  0.4216920000000  0.5139530000000  0.5599140000000 1.0
C      1  0.5789090000000  0.4411110000000  0.4827000000000 1.0
C      1  0.5763480000000  0.5436030000000  0.4602540000000 1.0
C      1  0.5794240000000  0.5111030000000  0.5598180000000 1.0
C      1  0.4721830000000  0.5118880000000  0.4070400000000 1.0
C      1  0.4709730000000  0.5783350000000  0.5527270000000 1.0
C      1  0.4739590000000  0.4110610000000  0.5385990000000 1.0
C      1  0.5276560000000  0.5120500000000  0.4055150000000 1.0
C      1  0.5281800000000  0.5748780000000  0.5555880000000 1.0
C      1  0.5313690000000  0.4130170000000  0.5423020000000 1.0
C      1  0.5584450000000  0.4088670000000  0.5083920000000 1.0
C      1  0.5550600000000  0.5453270000000  0.4168600000000 1.0
C      1  0.5533790000000  0.5474270000000  0.5817160000000 1.0
C      1  0.4480130000000  0.4046090000000  0.5026240000000 1.0
C      1  0.4454170000000  0.5462010000000  0.4184180000000 1.0
C      1  0.4434470000000  0.5519610000000  0.5750460000000 1.0
C      1  0.5767190000000  0.5655940000000  0.5089490000000 1.0
C      1  0.5854040000000  0.4582500000000  0.5570580000000 1.0
C      1  0.5767930000000  0.4721770000000  0.4382430000000 1.0
C      1  0.4177750000000  0.5699150000000  0.5083740000000 1.0
C      1  0.4239140000000  0.4601920000000  0.5551940000000 1.0
C      1  0.4228420000000  0.4736990000000  0.4395330000000 1.0
C      1  0.6326940000000  0.4811670000000  0.5164370000000 1.0
C      1  0.6349790000000  0.5041520000000  0.4718240000000 1.0
C      1  0.6411180000000  0.4977020000000  0.4960690000000 1.0
C      1  0.3593250000000  0.5025760000000  0.4975800000000 1.0
C      1  0.3712820000000  0.4937810000000  0.4742850000000 1.0
C      1  0.3630730000000  0.5200830000000  0.5160470000000 1.0
C      1  0.5762650000000  0.5919690000000  0.4997320000000 1.0
C      1  0.5773490000000  0.4550100000000  0.5836620000000 1.0
C      1  0.5779610000000  0.4543050000000  0.4159780000000 1.0
C      1  0.4257330000000  0.5947070000000  0.4984150000000 1.0
C      1  0.4215690000000  0.4501140000000  0.5817400000000 1.0
C      1  0.4220650000000  0.4558750000000  0.4167050000000 1.0
C      1  0.5124460000000  0.4453310000000  0.5015270000000 1.0
C      1  0.5159460000000  0.5256400000000  0.4563110000000 1.0
C      1  0.5180130000000  0.5189960000000  0.5450660000000 1.0
C      1  0.4837650000000  0.4506010000000  0.5003130000000 1.0
C      1  0.4841210000000  0.5276240000000  0.4561210000000 1.0
C      1  0.4895760000000  0.5259820000000  0.5475160000000 1.0
C      1  0.5178930000000  0.5679680000000  0.5278190000000 1.0
C      1  0.5165940000000  0.4387570000000  0.5486920000000 1.0
C      1  0.5155510000000  0.4907180000000  0.4233720000000 1.0
C      1  0.4858700000000  0.5693980000000  0.5276890000000 1.0
C      1  0.4850420000000  0.4366630000000  0.5495000000000 1.0
C      1  0.4839770000000  0.4906740000000  0.4257100000000 1.0
C      1  0.5650040000000  0.5512430000000  0.5336920000000 1.0
C      1  0.5799750000000  0.4392400000000  0.5351760000000 1.0
C      1  0.5648550000000  0.5007850000000  0.4373600000000 1.0
C      1  0.4217820000000  0.5596530000000  0.5353680000000 1.0
C      1  0.4373820000000  0.4444850000000  0.5314600000000 1.0
C      1  0.4359140000000  0.5020840000000  0.4393560000000 1.0
C      1  0.4703180000000  0.5948420000000  0.4803270000000 1.0
C      1  0.4708810000000  0.4639280000000  0.5892140000000 1.0
C      1  0.4696260000000  0.4407170000000  0.4302390000000 1.0
C      1  0.5332400000000  0.5915430000000  0.4800580000000 1.0
C      1  0.5315750000000  0.4678550000000  0.5927320000000 1.0
C      1  0.5288740000000  0.4425290000000  0.4264130000000 1.0
C      1  0.6066070000000  0.4700700000000  0.5054000000000 1.0
C      1  0.6039940000000  0.5077690000000  0.4723410000000 1.0
C      1  0.6017480000000  0.5192130000000  0.5208130000000 1.0
C      1  0.4004200000000  0.4720150000000  0.5084920000000 1.0
C      1  0.3969830000000  0.5096360000000  0.4735300000000 1.0
C      1  0.3934970000000  0.5196020000000  0.5224040000000 1.0
C      1  0.5168610000000  0.5792460000000  0.4579910000000 1.0
C      1  0.5162060000000  0.4932000000000  0.5896480000000 1.0
C      1  0.5159430000000  0.4336580000000  0.4510000000000 1.0
C      1  0.4848330000000  0.5805230000000  0.4581360000000 1.0
C      1  0.4844010000000  0.4898210000000  0.5848280000000 1.0
C      1  0.4844060000000  0.4289410000000  0.4525630000000 1.0
C      1  0.5292200000000  0.5537190000000  0.5967840000000 1.0
C      1  0.5367100000000  0.3912260000000  0.5021320000000 1.0
C      1  0.5329650000000  0.5572650000000  0.4024160000000 1.0
C      1  0.4654970000000  0.5559370000000  0.5929100000000 1.0
C      1  0.4719420000000  0.3881670000000  0.4991250000000 1.0
C      1  0.4673660000000  0.5575820000000  0.4036540000000 1.0
C      1  0.4787560000000  0.3804760000000  0.4734000000000 1.0
C      1  0.4726740000000  0.5842270000000  0.4075230000000 1.0
C      1  0.4622460000000  0.5287330000000  0.6015170000000 1.0
C      1  0.5385420000000  0.3989390000000  0.4744230000000 1.0
C      1  0.5282870000000  0.5837560000000  0.4071210000000 1.0
C      1  0.5209730000000  0.5374010000000  0.6177420000000 1.0
C      1  0.5268700000000  0.4545690000000  0.5244010000000 1.0
C      1  0.5336390000000  0.4971750000000  0.4487410000000 1.0
C      1  0.5340720000000  0.5390480000000  0.5251290000000 1.0
C      1  0.4674640000000  0.4565090000000  0.5301940000000 1.0
C      1  0.4667240000000  0.5007900000000  0.4526730000000 1.0
C      1  0.4769170000000  0.5406160000000  0.5266320000000 1.0
C      1  0.4106670000000  0.5339730000000  0.5418800000000 1.0
C      1  0.4184860000000  0.4504170000000  0.5094260000000 1.0
C      1  0.4163450000000  0.5185390000000  0.4540930000000 1.0
C      1  0.5843540000000  0.5302030000000  0.5396920000000 1.0
C      1  0.5901880000000  0.4466270000000  0.5093190000000 1.0
C      1  0.5837550000000  0.5175160000000  0.4528480000000 1.0
C      1  0.5188170000000  0.4037340000000  0.4561670000000 1.0
C      1  0.5151500000000  0.5918490000000  0.4292650000000 1.0
C      1  0.5089310000000  0.5137090000000  0.6126620000000 1.0
C      1  0.4908780000000  0.3978730000000  0.4568050000000 1.0
C      1  0.4864820000000  0.5922370000000  0.4294270000000 1.0
C      1  0.4811750000000  0.5100250000000  0.6074420000000 1.0
C      1  0.4920310000000  0.4892340000000  0.5200180000000 1.0
C      1  0.4869360000000  0.4783760000000  0.4923190000000 1.0
C      1  0.4852420000000  0.5342950000000  0.4854820000000 1.0
C      1  0.5157520000000  0.4919160000000  0.5339910000000 1.0
C      1  0.5084890000000  0.4905210000000  0.4806490000000 1.0
C      1  0.5116120000000  0.5199170000000  0.4855640000000 1.0
C      1  0.3988480000000  0.5281810000000  0.4950250000000 1.0
C      1  0.3995640000000  0.4911140000000  0.5279410000000 1.0
C      1  0.3957770000000  0.4789250000000  0.4810010000000 1.0
C      1  0.6005080000000  0.5270120000000  0.4946770000000 1.0
C      1  0.6082930000000  0.4924050000000  0.5286080000000 1.0
C      1  0.6003430000000  0.4800480000000  0.4793210000000 1.0
C      1  0.4135030000000  0.4631570000000  0.4650140000000 1.0
C      1  0.4125340000000  0.5507010000000  0.4878000000000 1.0
C      1  0.4154070000000  0.4873930000000  0.5498810000000 1.0
C      1  0.5848260000000  0.4632610000000  0.4646680000000 1.0
C      1  0.5844370000000  0.5482260000000  0.4877600000000 1.0
C      1  0.5920440000000  0.4859230000000  0.5515050000000 1.0
C      1  0.4840200000000  0.5727180000000  0.5781410000000 1.0
C      1  0.4892800000000  0.3926560000000  0.5227760000000 1.0
C      1  0.4855900000000  0.5352820000000  0.3970170000000 1.0
C      1  0.5127480000000  0.5716960000000  0.5796850000000 1.0
C      1  0.5182040000000  0.3941490000000  0.5242360000000 1.0
C      1  0.5142870000000  0.5354190000000  0.3960480000000 1.0
C      1  0.4446640000000  0.4237150000000  0.4809620000000 1.0
C      1  0.4446710000000  0.5553160000000  0.4460290000000 1.0
C      1  0.4464850000000  0.5212030000000  0.5736480000000 1.0
C      1  0.5543260000000  0.4259270000000  0.4823570000000 1.0
C      1  0.5556450000000  0.5543300000000  0.4442650000000 1.0
C      1  0.5574650000000  0.5188600000000  0.5767020000000 1.0
C      1  0.5596660000000  0.6000910000000  0.4816520000000 1.0
C      1  0.5585480000000  0.4647100000000  0.5974450000000 1.0
C      1  0.5556590000000  0.4443330000000  0.4238130000000 1.0
C      1  0.4438310000000  0.6019510000000  0.4823590000000 1.0
C      1  0.4441760000000  0.4601870000000  0.5882380000000 1.0
C      1  0.4434540000000  0.4455070000000  0.4267820000000 1.0
C      1  0.4725220000000  0.5539440000000  0.4558930000000 1.0
C      1  0.4716770000000  0.5052490000000  0.5594830000000 1.0
C      1  0.4712880000000  0.4344760000000  0.4780490000000 1.0
C      1  0.5281550000000  0.5525860000000  0.4535740000000 1.0
C      1  0.5305090000000  0.5103070000000  0.5706110000000 1.0
C      1  0.5291090000000  0.4470980000000  0.4765370000000 1.0
C      1  0.5030080000000  0.6088280000000  0.5092780000000 1.0
C      1  0.4968230000000  0.4588150000000  0.3926340000000 1.0
C      1  0.5039430000000  0.4268910000000  0.5923530000000 1.0
C      1  0.4521300000000  0.5028190000000  0.5055990000000 1.0
C      1  0.5482990000000  0.4941040000000  0.4992850000000 1.0
END
