TITL C-93453-6362-3 -0.0701984505024524 125000 -1301.14080810575 0 0 185 (C1) n - 1
REM
REM in /rds/project/t2_vol4/rds-t2-cs072/BORA/CARBON/from-Arr/AIRSS/Generating-Clusters/GAP-ML-2020/Higher-Symm/SD-CG/HFTN-CG/C160-200
REM
REM
REM
REM
REM
REM ./C.cell (6b4489405718ea1b717e0baf1da4c2d9)
REM AIRSS Version 0.9.1 bugfix July 2018 build 013d7b7c2542+ Fri, 06 Jul 2018 19:26:36 +0100
REM compiler GCC version 9.3.0
REM options -cpp -mtune=generic -march=x86-64 -g -O0
REM seed -160673908 879352057 -893751157 1982810179 -1834307130 1634091377 1949777807 -534181084 1553852599 1759255046 939522624 -1317811683 1425455346 379914093 -1738069139 1774248944 306596883 1889194967 233033935 -514442972 -218304882 1747547598 -33940528 875256802 169339904 -1657733229 -468906017 -799854029 1194321041 434533810 -1105069794 490326046 731430948
REM
CELL 1.54180   50.00000   50.00000   50.00000   90.00000   90.00000   90.00000
LATT -1
SFAC C  
C      1  0.5579950000000  0.4578110000000  0.5479390000000 1.0
C      1  0.4521200000000  0.5476890000000  0.5552980000000 1.0
C      1  0.5308520000000  0.5528600000000  0.4596960000000 1.0
C      1  0.5546420000000  0.5377520000000  0.4672330000000 1.0
C      1  0.4260450000000  0.4710240000000  0.4463560000000 1.0
C      1  0.4300500000000  0.5278660000000  0.5493590000000 1.0
C      1  0.4492050000000  0.4499150000000  0.4441460000000 1.0
C      1  0.5374880000000  0.5305010000000  0.4417790000000 1.0
C      1  0.5235140000000  0.4450000000000  0.5789210000000 1.0
C      1  0.5338950000000  0.4419450000000  0.5491400000000 1.0
C      1  0.4480340000000  0.5707140000000  0.5349790000000 1.0
C      1  0.4467510000000  0.4243220000000  0.4653110000000 1.0
C      1  0.4723810000000  0.4134550000000  0.4293790000000 1.0
C      1  0.4010430000000  0.4353260000000  0.4692280000000 1.0
C      1  0.4506000000000  0.4596310000000  0.4129650000000 1.0
C      1  0.4752400000000  0.5875060000000  0.5674060000000 1.0
C      1  0.5375370000000  0.4128610000000  0.5522500000000 1.0
C      1  0.5386680000000  0.5790920000000  0.4477970000000 1.0
C      1  0.4179380000000  0.5686400000000  0.5252240000000 1.0
C      1  0.5822210000000  0.4453180000000  0.5376440000000 1.0
C      1  0.5788600000000  0.5547010000000  0.4631620000000 1.0
C      1  0.4522660000000  0.5391730000000  0.5848400000000 1.0
C      1  0.5656140000000  0.4671450000000  0.5754850000000 1.0
C      1  0.5571890000000  0.5392720000000  0.4210070000000 1.0
C      1  0.4654600000000  0.4326780000000  0.5752390000000 1.0
C      1  0.4384850000000  0.5593800000000  0.4666700000000 1.0
C      1  0.5733170000000  0.4741910000000  0.4501810000000 1.0
C      1  0.4679630000000  0.5615470000000  0.4216690000000 1.0
C      1  0.5342990000000  0.4473990000000  0.4276500000000 1.0
C      1  0.5401390000000  0.5578370000000  0.5742210000000 1.0
C      1  0.4345510000000  0.4217460000000  0.5383010000000 1.0
C      1  0.5671520000000  0.5776480000000  0.5353480000000 1.0
C      1  0.5650960000000  0.4272780000000  0.4646990000000 1.0
C      1  0.5855670000000  0.5390800000000  0.5616650000000 1.0
C      1  0.4284370000000  0.4651710000000  0.5653350000000 1.0
C      1  0.4247220000000  0.5338560000000  0.4274590000000 1.0
C      1  0.5045220000000  0.6111110000000  0.4754230000000 1.0
C      1  0.6137510000000  0.4730410000000  0.4978200000000 1.0
C      1  0.4838800000000  0.4969370000000  0.6109160000000 1.0
C      1  0.5002980000000  0.3885920000000  0.5193670000000 1.0
C      1  0.5089070000000  0.6129100000000  0.5321560000000 1.0
C      1  0.5105910000000  0.3871260000000  0.4630440000000 1.0
C      1  0.6072760000000  0.5276510000000  0.4986180000000 1.0
C      1  0.3862850000000  0.4726710000000  0.5064150000000 1.0
C      1  0.3821860000000  0.5302400000000  0.4881550000000 1.0
C      1  0.4781800000000  0.5034100000000  0.3848280000000 1.0
C      1  0.5332370000000  0.5040290000000  0.3917100000000 1.0
C      1  0.5419650000000  0.5060960000000  0.6137190000000 1.0
C      1  0.4657370000000  0.5944140000000  0.5429950000000 1.0
C      1  0.5953490000000  0.5334480000000  0.4516840000000 1.0
C      1  0.5450800000000  0.4608300000000  0.5934380000000 1.0
C      1  0.4646890000000  0.4028120000000  0.4528160000000 1.0
C      1  0.5506870000000  0.5930580000000  0.4706080000000 1.0
C      1  0.5498860000000  0.4056110000000  0.5271140000000 1.0
C      1  0.5993100000000  0.4689770000000  0.5457550000000 1.0
C      1  0.4076980000000  0.5423060000000  0.5334990000000 1.0
C      1  0.3992590000000  0.4604060000000  0.4593020000000 1.0
C      1  0.5335760000000  0.5507380000000  0.4088660000000 1.0
C      1  0.4760080000000  0.4539740000000  0.4014430000000 1.0
C      1  0.4785900000000  0.5462910000000  0.5968100000000 1.0
C      1  0.4831310000000  0.5467770000000  0.4734480000000 1.0
C      1  0.5517300000000  0.4725380000000  0.4998890000000 1.0
C      1  0.4819430000000  0.5043190000000  0.5544770000000 1.0
C      1  0.4879980000000  0.4527070000000  0.5369600000000 1.0
C      1  0.4938370000000  0.5600550000000  0.5200200000000 1.0
C      1  0.4908140000000  0.4368310000000  0.4834540000000 1.0
C      1  0.5470650000000  0.5232030000000  0.5110960000000 1.0
C      1  0.4342750000000  0.4764700000000  0.4943550000000 1.0
C      1  0.4310640000000  0.5345190000000  0.4838030000000 1.0
C      1  0.4736340000000  0.4943010000000  0.4423840000000 1.0
C      1  0.5191760000000  0.4852590000000  0.4574820000000 1.0
C      1  0.5286480000000  0.5086800000000  0.5632650000000 1.0
C      1  0.5626740000000  0.4894950000000  0.4795900000000 1.0
C      1  0.5016610000000  0.4646910000000  0.5835240000000 1.0
C      1  0.4620140000000  0.5686530000000  0.4819280000000 1.0
C      1  0.5661670000000  0.5075180000000  0.5265590000000 1.0
C      1  0.4228130000000  0.4904810000000  0.5199790000000 1.0
C      1  0.4151980000000  0.5138300000000  0.4680920000000 1.0
C      1  0.4934020000000  0.5095690000000  0.4313240000000 1.0
C      1  0.5092340000000  0.4628420000000  0.4427770000000 1.0
C      1  0.5262610000000  0.5363460000000  0.5572130000000 1.0
C      1  0.4595460000000  0.4021480000000  0.5048630000000 1.0
C      1  0.5130120000000  0.5665530000000  0.5019260000000 1.0
C      1  0.5136840000000  0.4404790000000  0.5004400000000 1.0
C      1  0.6012570000000  0.5359640000000  0.5386880000000 1.0
C      1  0.5444030000000  0.5430060000000  0.5994610000000 1.0
C      1  0.5463290000000  0.5967450000000  0.5353850000000 1.0
C      1  0.6003630000000  0.4677330000000  0.4605510000000 1.0
C      1  0.4041680000000  0.5319970000000  0.4468980000000 1.0
C      1  0.4149660000000  0.4698620000000  0.5410040000000 1.0
C      1  0.5384220000000  0.4650730000000  0.4041750000000 1.0
C      1  0.4710730000000  0.5421580000000  0.4001610000000 1.0
C      1  0.4739840000000  0.4567370000000  0.5880100000000 1.0
C      1  0.5461000000000  0.4064460000000  0.4627270000000 1.0
C      1  0.4681140000000  0.5969410000000  0.4747490000000 1.0
C      1  0.4560270000000  0.4035220000000  0.5321900000000 1.0
C      1  0.6099800000000  0.5182720000000  0.4717760000000 1.0
C      1  0.5332360000000  0.4795300000000  0.6128800000000 1.0
C      1  0.4820110000000  0.6110940000000  0.5233610000000 1.0
C      1  0.6105630000000  0.4833790000000  0.5241120000000 1.0
C      1  0.3900530000000  0.5264280000000  0.5162520000000 1.0
C      1  0.3848250000000  0.4776560000000  0.4784290000000 1.0
C      1  0.5216500000000  0.5305940000000  0.3908850000000 1.0
C      1  0.4895540000000  0.4766810000000  0.3883420000000 1.0
C      1  0.4941640000000  0.5255230000000  0.6100180000000 1.0
C      1  0.4836430000000  0.3870010000000  0.4693680000000 1.0
C      1  0.5318430000000  0.6092510000000  0.4856810000000 1.0
C      1  0.5294170000000  0.3912040000000  0.5112430000000 1.0
C      1  0.5231210000000  0.5282450000000  0.6130080000000 1.0
C      1  0.5321660000000  0.6115850000000  0.5145120000000 1.0
C      1  0.5986060000000  0.5105100000000  0.5222140000000 1.0
C      1  0.5179450000000  0.4792580000000  0.3891730000000 1.0
C      1  0.4936710000000  0.5282550000000  0.3867410000000 1.0
C      1  0.5051950000000  0.4780310000000  0.6103090000000 1.0
C      1  0.5319280000000  0.3898600000000  0.4825520000000 1.0
C      1  0.4819670000000  0.6121290000000  0.4946730000000 1.0
C      1  0.4814990000000  0.3864880000000  0.4977080000000 1.0
C      1  0.6134140000000  0.4898370000000  0.4740620000000 1.0
C      1  0.3870870000000  0.5054150000000  0.4741320000000 1.0
C      1  0.3945520000000  0.4981730000000  0.5193480000000 1.0
C      1  0.4631280000000  0.5580560000000  0.5113910000000 1.0
C      1  0.5546000000000  0.5160510000000  0.4850570000000 1.0
C      1  0.5062050000000  0.4911400000000  0.5628210000000 1.0
C      1  0.4621200000000  0.4290840000000  0.4901470000000 1.0
C      1  0.5098380000000  0.5527320000000  0.4790340000000 1.0
C      1  0.5113090000000  0.4445020000000  0.5280130000000 1.0
C      1  0.5510140000000  0.4821210000000  0.5284740000000 1.0
C      1  0.4434420000000  0.5103130000000  0.5267350000000 1.0
C      1  0.4346520000000  0.4913740000000  0.4682300000000 1.0
C      1  0.5178230000000  0.5088780000000  0.4428250000000 1.0
C      1  0.4774720000000  0.4645800000000  0.4501840000000 1.0
C      1  0.4807310000000  0.5323870000000  0.5515090000000 1.0
C      1  0.5251850000000  0.4942020000000  0.5376350000000 1.0
C      1  0.5046600000000  0.5392500000000  0.5365780000000 1.0
C      1  0.5174310000000  0.5163220000000  0.5184450000000 1.0
C      1  0.5063890000000  0.4829190000000  0.4835280000000 1.0
C      1  0.4604030000000  0.5058310000000  0.4634970000000 1.0
C      1  0.4657090000000  0.4934250000000  0.5354610000000 1.0
C      1  0.4820450000000  0.4647670000000  0.4786940000000 1.0
C      1  0.4746140000000  0.5208870000000  0.4849790000000 1.0
C      1  0.4698120000000  0.4681200000000  0.5248610000000 1.0
C      1  0.5270820000000  0.4632140000000  0.4919040000000 1.0
C      1  0.4521880000000  0.5295670000000  0.5038620000000 1.0
C      1  0.4585410000000  0.4609980000000  0.4990240000000 1.0
C      1  0.4327020000000  0.5101980000000  0.4109690000000 1.0
C      1  0.5167170000000  0.4233470000000  0.4239600000000 1.0
C      1  0.4166890000000  0.4292870000000  0.5154250000000 1.0
C      1  0.4370550000000  0.4877300000000  0.5839210000000 1.0
C      1  0.5819860000000  0.5142290000000  0.5783730000000 1.0
C      1  0.5734500000000  0.4943750000000  0.4264410000000 1.0
C      1  0.5181800000000  0.5793270000000  0.5743900000000 1.0
C      1  0.4876240000000  0.4129000000000  0.5663660000000 1.0
C      1  0.4912690000000  0.5791900000000  0.4309600000000 1.0
C      1  0.4100940000000  0.5691340000000  0.4757850000000 1.0
C      1  0.5817250000000  0.4302540000000  0.4891810000000 1.0
C      1  0.5814090000000  0.5723640000000  0.5101550000000 1.0
C      1  0.6010260000000  0.4505640000000  0.4838760000000 1.0
C      1  0.4618190000000  0.4809980000000  0.5976140000000 1.0
C      1  0.4888020000000  0.5978920000000  0.4537650000000 1.0
C      1  0.6004790000000  0.5511890000000  0.5141320000000 1.0
C      1  0.4012610000000  0.4523210000000  0.5221960000000 1.0
C      1  0.3918700000000  0.5494360000000  0.4667700000000 1.0
C      1  0.4552560000000  0.5178660000000  0.3959360000000 1.0
C      1  0.5545640000000  0.4888480000000  0.4060080000000 1.0
C      1  0.5626850000000  0.5203560000000  0.5987720000000 1.0
C      1  0.4825000000000  0.3983170000000  0.5421490000000 1.0
C      1  0.5229310000000  0.5972000000000  0.5531340000000 1.0
C      1  0.5239740000000  0.4046460000000  0.4437630000000 1.0
C      1  0.4903900000000  0.5720040000000  0.5837960000000 1.0
C      1  0.5734000000000  0.5771700000000  0.4819570000000 1.0
C      1  0.5868610000000  0.4850690000000  0.5696040000000 1.0
C      1  0.4883610000000  0.4287170000000  0.4139240000000 1.0
C      1  0.5204130000000  0.5737060000000  0.4245810000000 1.0
C      1  0.5156360000000  0.4163290000000  0.5724900000000 1.0
C      1  0.5730400000000  0.4244280000000  0.5178590000000 1.0
C      1  0.4094540000000  0.5787240000000  0.5017030000000 1.0
C      1  0.4190540000000  0.4228560000000  0.4841810000000 1.0
C      1  0.5810410000000  0.5224300000000  0.4284240000000 1.0
C      1  0.4321120000000  0.4812260000000  0.4181110000000 1.0
C      1  0.4348540000000  0.5165570000000  0.5784040000000 1.0
C      1  0.5597390000000  0.4477820000000  0.4454300000000 1.0
C      1  0.4436680000000  0.5542800000000  0.4367370000000 1.0
C      1  0.4400090000000  0.4377650000000  0.5622400000000 1.0
C      1  0.5667990000000  0.5607910000000  0.5590770000000 1.0
C      1  0.4996640000000  0.5075050000000  0.4963520000000 1.0
END
