TITL C-93463-6326-1 28.8336637277756 125000 -1214.08896539433 0 0 173 (C1) n - 1
REM
REM in /rds/project/t2_vol4/rds-t2-cs072/BORA/CARBON/from-Arr/AIRSS/Generating-Clusters/GAP-ML-2020/Higher-Symm/SD-CG/HFTN-CG/C160-200
REM
REM
REM
REM
REM
REM ./C.cell (6b4489405718ea1b717e0baf1da4c2d9)
REM AIRSS Version 0.9.1 bugfix July 2018 build 013d7b7c2542+ Fri, 06 Jul 2018 19:26:36 +0100
REM compiler GCC version 9.3.0
REM options -cpp -mtune=generic -march=x86-64 -g -O0
REM seed 527294525 -1096521509 1799176169 -2009234806 -1582572485 1939822043 717618055 1139457520 -1569111646 -1179940926 -821381590 -756178094 -1124011579 297912009 -1862691985 -1212607647 -1545181401 -826788571 -69187270 -994268400 327057015 -547964210 1504217635 -1840643752 559525689 404481500 561727163 951511390 -1530744664 -2488034 385958253 1718699903 -1315203206
REM
CELL 1.54180   50.00000   50.00000   50.00000   90.00000   90.00000   90.00000
LATT -1
SFAC C  
C      1  0.4478190000000  0.4678650000000  0.4499370000000 1.0
C      1  0.4481710000000  0.5144630000000  0.4423240000000 1.0
C      1  0.4450020000000  0.5480720000000  0.4759930000000 1.0
C      1  0.4480300000000  0.5477500000000  0.5238920000000 1.0
C      1  0.4462840000000  0.5072590000000  0.5510050000000 1.0
C      1  0.4458560000000  0.4614560000000  0.5367710000000 1.0
C      1  0.4497600000000  0.4422870000000  0.4918810000000 1.0
C      1  0.4037140000000  0.4585130000000  0.4770730000000 1.0
C      1  0.4019570000000  0.4980910000000  0.4415430000000 1.0
C      1  0.4027630000000  0.5273630000000  0.4471470000000 1.0
C      1  0.4014930000000  0.5521750000000  0.5098330000000 1.0
C      1  0.4013530000000  0.5363590000000  0.5337190000000 1.0
C      1  0.4088150000000  0.4817330000000  0.5242940000000 1.0
C      1  0.4046410000000  0.4565210000000  0.5091710000000 1.0
C      1  0.5210810000000  0.5314890000000  0.4695480000000 1.0
C      1  0.5224670000000  0.5418560000000  0.5095260000000 1.0
C      1  0.5271610000000  0.5206750000000  0.5289730000000 1.0
C      1  0.5427180000000  0.4756000000000  0.5312860000000 1.0
C      1  0.5171210000000  0.4804150000000  0.4974670000000 1.0
C      1  0.5224820000000  0.4806140000000  0.4683130000000 1.0
C      1  0.5205490000000  0.5063780000000  0.4567700000000 1.0
C      1  0.5373030000000  0.4071770000000  0.5323770000000 1.0
C      1  0.5423230000000  0.4229640000000  0.4509700000000 1.0
C      1  0.5490460000000  0.4961780000000  0.4066420000000 1.0
C      1  0.5481520000000  0.5750660000000  0.4376680000000 1.0
C      1  0.5430150000000  0.5971910000000  0.5184880000000 1.0
C      1  0.5341820000000  0.5478730000000  0.5865230000000 1.0
C      1  0.5350730000000  0.4628480000000  0.5948600000000 1.0
C      1  0.4689720000000  0.4658200000000  0.4965960000000 1.0
C      1  0.4700970000000  0.4769830000000  0.4692720000000 1.0
C      1  0.4698510000000  0.5052030000000  0.4619630000000 1.0
C      1  0.4689020000000  0.5283770000000  0.4801030000000 1.0
C      1  0.4700530000000  0.5305430000000  0.5102940000000 1.0
C      1  0.4698390000000  0.5065060000000  0.5292800000000 1.0
C      1  0.4569060000000  0.4825310000000  0.5169280000000 1.0
C      1  0.5110570000000  0.4478250000000  0.5897310000000 1.0
C      1  0.5146830000000  0.4009460000000  0.5162680000000 1.0
C      1  0.5215690000000  0.4275020000000  0.4319020000000 1.0
C      1  0.5261020000000  0.5118780000000  0.3988190000000 1.0
C      1  0.5233680000000  0.5875620000000  0.4453030000000 1.0
C      1  0.5175080000000  0.5975480000000  0.5321750000000 1.0
C      1  0.5103520000000  0.5359060000000  0.5962030000000 1.0
C      1  0.5398840000000  0.4606150000000  0.5043200000000 1.0
C      1  0.5498370000000  0.4665820000000  0.4762480000000 1.0
C      1  0.5693530000000  0.4871940000000  0.4792950000000 1.0
C      1  0.5394970000000  0.5421310000000  0.4874250000000 1.0
C      1  0.5656200000000  0.5323640000000  0.4940490000000 1.0
C      1  0.5510320000000  0.5189710000000  0.5475340000000 1.0
C      1  0.5600320000000  0.4925490000000  0.5485250000000 1.0
C      1  0.5046340000000  0.4930990000000  0.5586380000000 1.0
C      1  0.5016820000000  0.4522810000000  0.5321830000000 1.0
C      1  0.5014280000000  0.4429260000000  0.4789140000000 1.0
C      1  0.4910880000000  0.4730550000000  0.4312160000000 1.0
C      1  0.4891230000000  0.5340280000000  0.4342800000000 1.0
C      1  0.4883740000000  0.5676940000000  0.4841150000000 1.0
C      1  0.4939500000000  0.5446830000000  0.5414950000000 1.0
C      1  0.5831540000000  0.4861890000000  0.4353700000000 1.0
C      1  0.5860080000000  0.5505520000000  0.4493650000000 1.0
C      1  0.5821970000000  0.5765190000000  0.5048910000000 1.0
C      1  0.5707870000000  0.5389800000000  0.5591420000000 1.0
C      1  0.5711560000000  0.4844960000000  0.5754520000000 1.0
C      1  0.5771780000000  0.4297710000000  0.5379810000000 1.0
C      1  0.5811060000000  0.4313870000000  0.4774150000000 1.0
C      1  0.4956140000000  0.4196610000000  0.4422960000000 1.0
C      1  0.5022700000000  0.4958510000000  0.3958590000000 1.0
C      1  0.4998140000000  0.5772760000000  0.4322810000000 1.0
C      1  0.4947480000000  0.6004650000000  0.5155690000000 1.0
C      1  0.4875460000000  0.5486640000000  0.5861370000000 1.0
C      1  0.4869990000000  0.4629440000000  0.5903200000000 1.0
C      1  0.4897140000000  0.4070740000000  0.5279460000000 1.0
C      1  0.4647780000000  0.4597980000000  0.4259860000000 1.0
C      1  0.4640440000000  0.5292120000000  0.4206840000000 1.0
C      1  0.4614670000000  0.5749410000000  0.4739040000000 1.0
C      1  0.4626710000000  0.5697650000000  0.5456270000000 1.0
C      1  0.4598350000000  0.5051580000000  0.5804830000000 1.0
C      1  0.4607390000000  0.4385370000000  0.5537700000000 1.0
C      1  0.4642800000000  0.4154750000000  0.4838220000000 1.0
C      1  0.4298610000000  0.5545100000000  0.5010800000000 1.0
C      1  0.4309320000000  0.5320030000000  0.5424420000000 1.0
C      1  0.4263370000000  0.4812540000000  0.5491890000000 1.0
C      1  0.4322100000000  0.4438770000000  0.5160630000000 1.0
C      1  0.4323150000000  0.4497990000000  0.4682410000000 1.0
C      1  0.4323790000000  0.4908580000000  0.4371770000000 1.0
C      1  0.4305590000000  0.5355010000000  0.4531250000000 1.0
C      1  0.5958370000000  0.4964100000000  0.5649620000000 1.0
C      1  0.5974390000000  0.4437460000000  0.5233920000000 1.0
C      1  0.5996540000000  0.4444710000000  0.4940340000000 1.0
C      1  0.5923550000000  0.4882090000000  0.4618250000000 1.0
C      1  0.6024090000000  0.5419830000000  0.4706810000000 1.0
C      1  0.5919170000000  0.5494830000000  0.4985090000000 1.0
C      1  0.5960380000000  0.5246200000000  0.5570120000000 1.0
C      1  0.4186000000000  0.4198790000000  0.5310880000000 1.0
C      1  0.4239860000000  0.4232930000000  0.4550240000000 1.0
C      1  0.4280100000000  0.4843240000000  0.4072190000000 1.0
C      1  0.4270920000000  0.5575850000000  0.4297820000000 1.0
C      1  0.4240850000000  0.5860580000000  0.4995870000000 1.0
C      1  0.4209620000000  0.5501420000000  0.5655870000000 1.0
C      1  0.4170470000000  0.4774220000000  0.5784910000000 1.0
C      1  0.4537370000000  0.5613800000000  0.4233760000000 1.0
C      1  0.4510080000000  0.5926900000000  0.4980010000000 1.0
C      1  0.4466850000000  0.5570870000000  0.5712580000000 1.0
C      1  0.4453560000000  0.4782580000000  0.5868840000000 1.0
C      1  0.4458680000000  0.4153000000000  0.5362240000000 1.0
C      1  0.4512180000000  0.4151750000000  0.4538580000000 1.0
C      1  0.4556870000000  0.4800480000000  0.4023900000000 1.0
C      1  0.4980040000000  0.4651770000000  0.4596750000000 1.0
C      1  0.4944350000000  0.5051990000000  0.4430490000000 1.0
C      1  0.4935900000000  0.5428680000000  0.4668130000000 1.0
C      1  0.4940700000000  0.5494500000000  0.5116930000000 1.0
C      1  0.4993160000000  0.5148690000000  0.5415910000000 1.0
C      1  0.5172860000000  0.4715640000000  0.5454160000000 1.0
C      1  0.4971120000000  0.4586780000000  0.5041540000000 1.0
C      1  0.5597440000000  0.4568820000000  0.5809260000000 1.0
C      1  0.5624620000000  0.4126470000000  0.5202020000000 1.0
C      1  0.5624930000000  0.4441000000000  0.4560870000000 1.0
C      1  0.5712370000000  0.5078760000000  0.4204180000000 1.0
C      1  0.5707380000000  0.5745540000000  0.4553800000000 1.0
C      1  0.5656080000000  0.5822400000000  0.5285710000000 1.0
C      1  0.5554470000000  0.5300340000000  0.5826780000000 1.0
C      1  0.6139280000000  0.5316120000000  0.5097490000000 1.0
C      1  0.6136860000000  0.5190100000000  0.5346650000000 1.0
C      1  0.6134570000000  0.4903620000000  0.5424640000000 1.0
C      1  0.6133650000000  0.4683800000000  0.5250070000000 1.0
C      1  0.6155790000000  0.4695810000000  0.4959210000000 1.0
C      1  0.6157840000000  0.4921390000000  0.4776360000000 1.0
C      1  0.6176740000000  0.5197660000000  0.4836060000000 1.0
C      1  0.3991680000000  0.4315960000000  0.4600490000000 1.0
C      1  0.4019240000000  0.4877850000000  0.4120480000000 1.0
C      1  0.4007430000000  0.5508470000000  0.4316400000000 1.0
C      1  0.3981910000000  0.5804470000000  0.5054820000000 1.0
C      1  0.3949630000000  0.5490630000000  0.5582970000000 1.0
C      1  0.3929340000000  0.4756370000000  0.5888330000000 1.0
C      1  0.3954400000000  0.4311880000000  0.5238170000000 1.0
C      1  0.4676630000000  0.5924980000000  0.5222620000000 1.0
C      1  0.4619600000000  0.5369500000000  0.5854190000000 1.0
C      1  0.4620630000000  0.4549970000000  0.5806300000000 1.0
C      1  0.4648480000000  0.4060760000000  0.5153250000000 1.0
C      1  0.4694850000000  0.4277100000000  0.4350890000000 1.0
C      1  0.4734450000000  0.5028990000000  0.4000800000000 1.0
C      1  0.4707520000000  0.5771120000000  0.4404830000000 1.0
C      1  0.5687480000000  0.4617970000000  0.4322310000000 1.0
C      1  0.5726290000000  0.5360220000000  0.4274580000000 1.0
C      1  0.5699370000000  0.5874620000000  0.4811650000000 1.0
C      1  0.5617930000000  0.5670570000000  0.5528540000000 1.0
C      1  0.5567970000000  0.5036300000000  0.5926810000000 1.0
C      1  0.5609320000000  0.4348770000000  0.5624130000000 1.0
C      1  0.5647390000000  0.4126180000000  0.4913430000000 1.0
C      1  0.5334490000000  0.4912880000000  0.6018390000000 1.0
C      1  0.5363870000000  0.4199150000000  0.5581860000000 1.0
C      1  0.5412140000000  0.4075030000000  0.4754580000000 1.0
C      1  0.5489490000000  0.4668660000000  0.4128980000000 1.0
C      1  0.5502710000000  0.5520940000000  0.4198020000000 1.0
C      1  0.5458260000000  0.5999780000000  0.4895430000000 1.0
C      1  0.5372450000000  0.5697760000000  0.5676080000000 1.0
C      1  0.5233770000000  0.5989880000000  0.4723270000000 1.0
C      1  0.5146520000000  0.5827300000000  0.5564020000000 1.0
C      1  0.5097840000000  0.5073030000000  0.6002790000000 1.0
C      1  0.5116850000000  0.4271560000000  0.5699780000000 1.0
C      1  0.5163380000000  0.4023660000000  0.4879870000000 1.0
C      1  0.5261120000000  0.4500010000000  0.4126660000000 1.0
C      1  0.5275390000000  0.5403030000000  0.4070540000000 1.0
C      1  0.5008540000000  0.5940340000000  0.4880580000000 1.0
C      1  0.4904520000000  0.5657230000000  0.5605330000000 1.0
C      1  0.4887250000000  0.4925590000000  0.5850280000000 1.0
C      1  0.4898380000000  0.4295170000000  0.5480910000000 1.0
C      1  0.4936710000000  0.4157170000000  0.4734110000000 1.0
C      1  0.5063920000000  0.4691860000000  0.4070130000000 1.0
C      1  0.5048360000000  0.5524020000000  0.4181710000000 1.0
C      1  0.5633720000000  0.5051670000000  0.4996290000000 1.0
C      1  0.3999630000000  0.4864580000000  0.4682470000000 1.0
C      1  0.4286330000000  0.4924930000000  0.5068040000000 1.0
C      1  0.5368790000000  0.4982840000000  0.5126550000000 1.0
C      1  0.4191160000000  0.5011080000000  0.4832700000000 1.0
END
