TITL C-93449-6344-2 -859.188995378301 125000 -1305.44559821505 0 0 187 (C1) n - 1
REM
REM in /rds/project/t2_vol4/rds-t2-cs072/BORA/CARBON/from-Arr/AIRSS/Generating-Clusters/GAP-ML-2020/Higher-Symm/SD-CG/HFTN-CG/C160-200
REM
REM
REM
REM
REM
REM ./C.cell (6b4489405718ea1b717e0baf1da4c2d9)
REM AIRSS Version 0.9.1 bugfix July 2018 build 013d7b7c2542+ Fri, 06 Jul 2018 19:26:36 +0100
REM compiler GCC version 9.3.0
REM options -cpp -mtune=generic -march=x86-64 -g -O0
REM seed -537820046 -238854596 -1600168116 -1739203220 -249676104 -494289286 676482870 1252151196 1635105519 -343645138 286514077 -586393733 -1100009570 -1328119619 -1068464373 1830015061 -640769464 -1402112774 1018018896 -1477642742 32425517 -64322527 -959153955 -1977555485 -428150879 2016825686 2060859932 76276449 86238122 -1400774895 2139175565 -633908402 984998715
REM
CELL 1.54180   50.00000   50.00000   50.00000   90.00000   90.00000   90.00000
LATT -1
SFAC C  
C      1  0.4423860000000  0.4115050000000  0.4843590000000 1.0
C      1  0.5533390000000  0.4406460000000  0.5721580000000 1.0
C      1  0.4462280000000  0.5306380000000  0.5843280000000 1.0
C      1  0.5513540000000  0.5920610000000  0.5188590000000 1.0
C      1  0.4486930000000  0.5618210000000  0.4276720000000 1.0
C      1  0.5599630000000  0.4717590000000  0.4181310000000 1.0
C      1  0.5471300000000  0.5269640000000  0.4956480000000 1.0
C      1  0.4540430000000  0.5137600000000  0.4748290000000 1.0
C      1  0.5399390000000  0.4786750000000  0.4790220000000 1.0
C      1  0.4548100000000  0.4631740000000  0.5077210000000 1.0
C      1  0.5419540000000  0.4984100000000  0.5055500000000 1.0
C      1  0.4546670000000  0.5201180000000  0.5039160000000 1.0
C      1  0.5670830000000  0.4349180000000  0.4494210000000 1.0
C      1  0.4374160000000  0.4174470000000  0.5333770000000 1.0
C      1  0.5630150000000  0.4862450000000  0.5859090000000 1.0
C      1  0.4355030000000  0.5673220000000  0.5541430000000 1.0
C      1  0.5634850000000  0.5837280000000  0.4720060000000 1.0
C      1  0.4361730000000  0.5151420000000  0.4169440000000 1.0
C      1  0.4240480000000  0.4663750000000  0.4346320000000 1.0
C      1  0.5730160000000  0.4216520000000  0.5011590000000 1.0
C      1  0.4324690000000  0.4571350000000  0.5680480000000 1.0
C      1  0.5673500000000  0.5353720000000  0.5683960000000 1.0
C      1  0.4326780000000  0.5777500000000  0.5026710000000 1.0
C      1  0.5724710000000  0.5443640000000  0.4373000000000 1.0
C      1  0.5014820000000  0.4483530000000  0.4599840000000 1.0
C      1  0.4976570000000  0.4407210000000  0.5242170000000 1.0
C      1  0.5029190000000  0.4952650000000  0.5509370000000 1.0
C      1  0.4955260000000  0.5480550000000  0.5307990000000 1.0
C      1  0.5062900000000  0.5556230000000  0.4714590000000 1.0
C      1  0.4981320000000  0.5060320000000  0.4387960000000 1.0
C      1  0.5089930000000  0.5654630000000  0.6052750000000 1.0
C      1  0.4854360000000  0.6286590000000  0.4891200000000 1.0
C      1  0.5186870000000  0.5525930000000  0.3856980000000 1.0
C      1  0.4679550000000  0.4207240000000  0.3930510000000 1.0
C      1  0.5220670000000  0.3681710000000  0.5144400000000 1.0
C      1  0.4889090000000  0.4485340000000  0.6157650000000 1.0
C      1  0.5810530000000  0.5158550000000  0.4315370000000 1.0
C      1  0.4171190000000  0.4469090000000  0.4563800000000 1.0
C      1  0.5716070000000  0.4338350000000  0.5290220000000 1.0
C      1  0.4310880000000  0.4888710000000  0.5688040000000 1.0
C      1  0.5671110000000  0.5528430000000  0.5420210000000 1.0
C      1  0.4331850000000  0.5640190000000  0.4735630000000 1.0
C      1  0.4347710000000  0.4233130000000  0.4589800000000 1.0
C      1  0.5590600000000  0.4192030000000  0.5527000000000 1.0
C      1  0.4437940000000  0.5027330000000  0.5929960000000 1.0
C      1  0.5540590000000  0.5813610000000  0.5459970000000 1.0
C      1  0.4455120000000  0.5813280000000  0.4493780000000 1.0
C      1  0.5643970000000  0.5003690000000  0.4134840000000 1.0
C      1  0.4692090000000  0.4646510000000  0.6041090000000 1.0
C      1  0.5301700000000  0.5682140000000  0.5849180000000 1.0
C      1  0.4667120000000  0.6103200000000  0.4796190000000 1.0
C      1  0.5371140000000  0.5375670000000  0.4007830000000 1.0
C      1  0.4550350000000  0.4292470000000  0.4172160000000 1.0
C      1  0.5403140000000  0.3875690000000  0.5236380000000 1.0
C      1  0.4325910000000  0.4801000000000  0.5096510000000 1.0
C      1  0.5612260000000  0.4782130000000  0.5158490000000 1.0
C      1  0.4386380000000  0.5054500000000  0.5223420000000 1.0
C      1  0.5723820000000  0.5340600000000  0.4845180000000 1.0
C      1  0.4284110000000  0.5032130000000  0.4668260000000 1.0
C      1  0.5674350000000  0.4695840000000  0.4871430000000 1.0
C      1  0.4538960000000  0.4473340000000  0.5844920000000 1.0
C      1  0.5484870000000  0.5450120000000  0.5878800000000 1.0
C      1  0.4517300000000  0.5992120000000  0.5036240000000 1.0
C      1  0.5519450000000  0.5550720000000  0.4196800000000 1.0
C      1  0.4405450000000  0.4549300000000  0.4138100000000 1.0
C      1  0.5560000000000  0.3990580000000  0.4999010000000 1.0
C      1  0.5202480000000  0.5319090000000  0.5326830000000 1.0
C      1  0.4805800000000  0.5515950000000  0.4843870000000 1.0
C      1  0.5225190000000  0.5135670000000  0.4527920000000 1.0
C      1  0.4790190000000  0.4676630000000  0.4663170000000 1.0
C      1  0.5216680000000  0.4488960000000  0.5091890000000 1.0
C      1  0.4776180000000  0.4835260000000  0.5430790000000 1.0
C      1  0.5350730000000  0.4884530000000  0.5895310000000 1.0
C      1  0.4628740000000  0.5734690000000  0.5564880000000 1.0
C      1  0.5378150000000  0.5919520000000  0.4639350000000 1.0
C      1  0.4621550000000  0.5106470000000  0.4073620000000 1.0
C      1  0.5409900000000  0.4254880000000  0.4435600000000 1.0
C      1  0.4646560000000  0.4083020000000  0.5362940000000 1.0
C      1  0.4042670000000  0.4297580000000  0.5025650000000 1.0
C      1  0.5965680000000  0.4627740000000  0.5647390000000 1.0
C      1  0.4036410000000  0.5350230000000  0.5640600000000 1.0
C      1  0.5946880000000  0.5781160000000  0.5058370000000 1.0
C      1  0.4050960000000  0.5430200000000  0.4359470000000 1.0
C      1  0.6003130000000  0.4677020000000  0.4422690000000 1.0
C      1  0.5728680000000  0.4598890000000  0.5801400000000 1.0
C      1  0.4265650000000  0.5479900000000  0.5739070000000 1.0
C      1  0.5712460000000  0.5916170000000  0.4988010000000 1.0
C      1  0.4289310000000  0.5428290000000  0.4210990000000 1.0
C      1  0.5777580000000  0.4546360000000  0.4315440000000 1.0
C      1  0.4262390000000  0.4127740000000  0.5070190000000 1.0
C      1  0.5312570000000  0.5850680000000  0.5619350000000 1.0
C      1  0.4674010000000  0.5978010000000  0.4535280000000 1.0
C      1  0.5395500000000  0.5096560000000  0.4042490000000 1.0
C      1  0.4581410000000  0.4213200000000  0.4436230000000 1.0
C      1  0.5381080000000  0.4014060000000  0.5483630000000 1.0
C      1  0.4678180000000  0.4934610000000  0.6040450000000 1.0
C      1  0.4922080000000  0.5407860000000  0.6145490000000 1.0
C      1  0.5116460000000  0.6209760000000  0.5315620000000 1.0
C      1  0.4912610000000  0.5876440000000  0.4080970000000 1.0
C      1  0.4981600000000  0.4550010000000  0.3779080000000 1.0
C      1  0.4992390000000  0.3712650000000  0.4703810000000 1.0
C      1  0.5154110000000  0.4139290000000  0.5907520000000 1.0
C      1  0.4043420000000  0.4494520000000  0.4817010000000 1.0
C      1  0.5921590000000  0.4526530000000  0.5384710000000 1.0
C      1  0.4086520000000  0.5069260000000  0.5592720000000 1.0
C      1  0.5911140000000  0.5561770000000  0.5250240000000 1.0
C      1  0.4092170000000  0.5501260000000  0.4639390000000 1.0
C      1  0.5949550000000  0.4960060000000  0.4471310000000 1.0
C      1  0.4047120000000  0.4700980000000  0.5046140000000 1.0
C      1  0.5875800000000  0.4813310000000  0.5305010000000 1.0
C      1  0.4112300000000  0.5165280000000  0.5309940000000 1.0
C      1  0.5975370000000  0.5373640000000  0.5024770000000 1.0
C      1  0.4025530000000  0.5212720000000  0.4708670000000 1.0
C      1  0.5917700000000  0.4849580000000  0.4755830000000 1.0
C      1  0.3824850000000  0.4889400000000  0.5041470000000 1.0
C      1  0.6113750000000  0.4921430000000  0.5190580000000 1.0
C      1  0.3864370000000  0.5132630000000  0.5171910000000 1.0
C      1  0.6160370000000  0.5157500000000  0.5056050000000 1.0
C      1  0.3825880000000  0.5128910000000  0.4897880000000 1.0
C      1  0.6144170000000  0.4916850000000  0.4916110000000 1.0
C      1  0.5251290000000  0.5944700000000  0.4394700000000 1.0
C      1  0.4699900000000  0.4882550000000  0.3934370000000 1.0
C      1  0.5311440000000  0.4021970000000  0.4552990000000 1.0
C      1  0.4788620000000  0.4075890000000  0.5604640000000 1.0
C      1  0.5228620000000  0.5068160000000  0.6057610000000 1.0
C      1  0.4764170000000  0.5962680000000  0.5488300000000 1.0
C      1  0.4627360000000  0.4526170000000  0.4840630000000 1.0
C      1  0.5453290000000  0.4554940000000  0.5267290000000 1.0
C      1  0.4541300000000  0.5006740000000  0.5476520000000 1.0
C      1  0.5428210000000  0.5450630000000  0.5193130000000 1.0
C      1  0.4591490000000  0.5425360000000  0.4670240000000 1.0
C      1  0.5376360000000  0.4903290000000  0.4536380000000 1.0
C      1  0.4976870000000  0.4796940000000  0.3919160000000 1.0
C      1  0.5026370000000  0.3963140000000  0.4569100000000 1.0
C      1  0.5113270000000  0.4089480000000  0.5625380000000 1.0
C      1  0.4927040000000  0.5126390000000  0.6013190000000 1.0
C      1  0.5071500000000  0.5963870000000  0.5468220000000 1.0
C      1  0.4937480000000  0.5913330000000  0.4371130000000 1.0
C      1  0.5940510000000  0.4918940000000  0.5574280000000 1.0
C      1  0.4047940000000  0.5452160000000  0.5353900000000 1.0
C      1  0.6013380000000  0.5613850000000  0.4836860000000 1.0
C      1  0.3985240000000  0.5157330000000  0.4412370000000 1.0
C      1  0.6015800000000  0.4567220000000  0.4682890000000 1.0
C      1  0.4040730000000  0.4469300000000  0.5253310000000 1.0
C      1  0.4720980000000  0.5471320000000  0.4381350000000 1.0
C      1  0.5326520000000  0.4714920000000  0.4287850000000 1.0
C      1  0.4700420000000  0.4204600000000  0.4875520000000 1.0
C      1  0.5318860000000  0.4541770000000  0.5555400000000 1.0
C      1  0.4660550000000  0.5253420000000  0.5629530000000 1.0
C      1  0.5300080000000  0.5740920000000  0.5096640000000 1.0
C      1  0.4525370000000  0.4665390000000  0.3904970000000 1.0
C      1  0.5430950000000  0.3884970000000  0.4768610000000 1.0
C      1  0.4700820000000  0.4229710000000  0.5824170000000 1.0
C      1  0.5372540000000  0.5302800000000  0.6104240000000 1.0
C      1  0.4671220000000  0.6092860000000  0.5260180000000 1.0
C      1  0.5360720000000  0.5793550000000  0.4190430000000 1.0
C      1  0.5166880000000  0.4909650000000  0.4119730000000 1.0
C      1  0.4841010000000  0.4196700000000  0.4601500000000 1.0
C      1  0.5087780000000  0.4369990000000  0.5516420000000 1.0
C      1  0.4922060000000  0.5164200000000  0.5713420000000 1.0
C      1  0.5053480000000  0.5755340000000  0.5241290000000 1.0
C      1  0.4964420000000  0.5617430000000  0.4436590000000 1.0
C      1  0.4929440000000  0.4254120000000  0.6011800000000 1.0
C      1  0.5176350000000  0.5472960000000  0.6241240000000 1.0
C      1  0.4896570000000  0.6257430000000  0.5161400000000 1.0
C      1  0.5143140000000  0.5763110000000  0.3987370000000 1.0
C      1  0.4727340000000  0.4442190000000  0.3801290000000 1.0
C      1  0.5209910000000  0.3695970000000  0.4869990000000 1.0
C      1  0.5215300000000  0.4784790000000  0.5666330000000 1.0
C      1  0.4773800000000  0.5493150000000  0.5531730000000 1.0
C      1  0.5223440000000  0.5776760000000  0.4826080000000 1.0
C      1  0.4804360000000  0.5234390000000  0.4243190000000 1.0
C      1  0.5215860000000  0.4462090000000  0.4376580000000 1.0
C      1  0.4814200000000  0.4165920000000  0.5139610000000 1.0
C      1  0.4221440000000  0.5669930000000  0.5282210000000 1.0
C      1  0.5768880000000  0.5573830000000  0.4646780000000 1.0
C      1  0.4222160000000  0.4967010000000  0.4368630000000 1.0
C      1  0.5778980000000  0.4397910000000  0.4773720000000 1.0
C      1  0.4227020000000  0.4401910000000  0.5463100000000 1.0
C      1  0.5767150000000  0.5081300000000  0.5723930000000 1.0
C      1  0.4760370000000  0.4626720000000  0.5256500000000 1.0
C      1  0.5157610000000  0.5050670000000  0.5211290000000 1.0
C      1  0.4805990000000  0.5336870000000  0.5067630000000 1.0
C      1  0.5208330000000  0.5285820000000  0.4773110000000 1.0
C      1  0.4805630000000  0.4968750000000  0.4682190000000 1.0
C      1  0.5213750000000  0.4565150000000  0.4829290000000 1.0
C      1  0.4991910000000  0.5122200000000  0.4952180000000 1.0
END
