TITL C-93433-6328-4 -107.760748503128 125000 -1141.45127223463 0 0 163 (C1) n - 1
REM
REM in /rds/project/t2_vol4/rds-t2-cs072/BORA/CARBON/from-Arr/AIRSS/Generating-Clusters/GAP-ML-2020/Higher-Symm/SD-CG/HFTN-CG/C160-200
REM
REM
REM
REM
REM
REM ./C.cell (6b4489405718ea1b717e0baf1da4c2d9)
REM AIRSS Version 0.9.1 bugfix July 2018 build 013d7b7c2542+ Fri, 06 Jul 2018 19:26:36 +0100
REM compiler GCC version 9.3.0
REM options -cpp -mtune=generic -march=x86-64 -g -O0
REM seed -1408273237 -773782876 1843739874 424085960 749373339 -1927549697 426464527 -1987190678 -1170874840 -940962430 -268224411 1579651477 -22114650 -1383323019 -111781893 623598878 -1021185575 236743592 -2081047263 1921775241 753452999 850519595 -171427557 -970154776 -631189421 959151448 -1531815638 2033262963 -767067282 148919708 -279291870 -751758269 1409509692
REM
CELL 1.54180   50.00000   50.00000   50.00000   90.00000   90.00000   90.00000
LATT -1
SFAC C  
C      1  0.4939120000000  0.5233430000000  0.6000620000000 1.0
C      1  0.4944950000000  0.4122900000000  0.5474440000000 1.0
C      1  0.4954030000000  0.4247930000000  0.4291300000000 1.0
C      1  0.4978620000000  0.5432630000000  0.4074020000000 1.0
C      1  0.4959070000000  0.6033460000000  0.5113930000000 1.0
C      1  0.5313460000000  0.5655130000000  0.5189150000000 1.0
C      1  0.5292360000000  0.5079580000000  0.5736930000000 1.0
C      1  0.5386870000000  0.4382160000000  0.5085160000000 1.0
C      1  0.5342430000000  0.4654090000000  0.4428030000000 1.0
C      1  0.5328370000000  0.5360740000000  0.4449890000000 1.0
C      1  0.4237130000000  0.4502010000000  0.5063070000000 1.0
C      1  0.4304930000000  0.4870230000000  0.4752570000000 1.0
C      1  0.4317200000000  0.5188250000000  0.4803560000000 1.0
C      1  0.4322260000000  0.5256130000000  0.5113010000000 1.0
C      1  0.4315620000000  0.4985370000000  0.5269310000000 1.0
C      1  0.4837650000000  0.5838330000000  0.5304970000000 1.0
C      1  0.4835660000000  0.4978170000000  0.5881300000000 1.0
C      1  0.4773960000000  0.4141030000000  0.5226150000000 1.0
C      1  0.4849560000000  0.4522990000000  0.4276380000000 1.0
C      1  0.4855680000000  0.5531340000000  0.4325290000000 1.0
C      1  0.5255870000000  0.4766630000000  0.5178900000000 1.0
C      1  0.5260350000000  0.4777720000000  0.4866690000000 1.0
C      1  0.5233430000000  0.5062110000000  0.4779730000000 1.0
C      1  0.5215230000000  0.5242830000000  0.5022950000000 1.0
C      1  0.5235010000000  0.5066510000000  0.5267700000000 1.0
C      1  0.4816820000000  0.4284740000000  0.5691020000000 1.0
C      1  0.4802130000000  0.4110370000000  0.4491250000000 1.0
C      1  0.4840560000000  0.5188900000000  0.4035170000000 1.0
C      1  0.4822760000000  0.5993850000000  0.4867140000000 1.0
C      1  0.4800450000000  0.5463720000000  0.5912260000000 1.0
C      1  0.5474210000000  0.5798540000000  0.4471760000000 1.0
C      1  0.5457550000000  0.5794980000000  0.5605150000000 1.0
C      1  0.5485620000000  0.4677710000000  0.5874850000000 1.0
C      1  0.5447330000000  0.4017400000000  0.4944960000000 1.0
C      1  0.5462810000000  0.4745050000000  0.4085820000000 1.0
C      1  0.5704600000000  0.5762280000000  0.4634160000000 1.0
C      1  0.5694440000000  0.5637100000000  0.5627140000000 1.0
C      1  0.5701370000000  0.4634550000000  0.5703390000000 1.0
C      1  0.5688910000000  0.4123290000000  0.4831100000000 1.0
C      1  0.5705130000000  0.4872700000000  0.4156900000000 1.0
C      1  0.5287620000000  0.4945460000000  0.3981750000000 1.0
C      1  0.5281500000000  0.5944080000000  0.4626810000000 1.0
C      1  0.5264800000000  0.5693850000000  0.5792660000000 1.0
C      1  0.5266460000000  0.4504740000000  0.5791770000000 1.0
C      1  0.5215220000000  0.4078750000000  0.4764300000000 1.0
C      1  0.5437530000000  0.5894320000000  0.5315530000000 1.0
C      1  0.5481070000000  0.4963200000000  0.5920840000000 1.0
C      1  0.5434120000000  0.4114140000000  0.5227270000000 1.0
C      1  0.5438640000000  0.4464310000000  0.4214280000000 1.0
C      1  0.5455640000000  0.5565850000000  0.4277380000000 1.0
C      1  0.4811140000000  0.5809730000000  0.4432500000000 1.0
C      1  0.4786300000000  0.5830640000000  0.5605970000000 1.0
C      1  0.4803010000000  0.4686910000000  0.5957610000000 1.0
C      1  0.4742280000000  0.4006090000000  0.4943010000000 1.0
C      1  0.4821340000000  0.4723780000000  0.4053360000000 1.0
C      1  0.5241960000000  0.4235040000000  0.4280580000000 1.0
C      1  0.5270700000000  0.5432290000000  0.4072340000000 1.0
C      1  0.5253000000000  0.6036340000000  0.5116510000000 1.0
C      1  0.5223580000000  0.5251670000000  0.5963290000000 1.0
C      1  0.5235120000000  0.4134120000000  0.5454970000000 1.0
C      1  0.4953520000000  0.5062810000000  0.5392020000000 1.0
C      1  0.5003960000000  0.4632900000000  0.5299040000000 1.0
C      1  0.5044920000000  0.4599800000000  0.4764590000000 1.0
C      1  0.4992330000000  0.5097750000000  0.4601910000000 1.0
C      1  0.4949680000000  0.5386090000000  0.5071990000000 1.0
C      1  0.4551710000000  0.5889420000000  0.4817530000000 1.0
C      1  0.4536400000000  0.5469130000000  0.5791420000000 1.0
C      1  0.4549300000000  0.4407200000000  0.5697580000000 1.0
C      1  0.4528790000000  0.4185070000000  0.4558210000000 1.0
C      1  0.4569230000000  0.5119160000000  0.4108590000000 1.0
C      1  0.5851110000000  0.4927760000000  0.5389790000000 1.0
C      1  0.5880110000000  0.4545460000000  0.4998060000000 1.0
C      1  0.5878230000000  0.4815650000000  0.4574660000000 1.0
C      1  0.5856340000000  0.5334480000000  0.4734110000000 1.0
C      1  0.5839130000000  0.5393740000000  0.5266550000000 1.0
C      1  0.4046180000000  0.4715770000000  0.4648620000000 1.0
C      1  0.4062430000000  0.5251540000000  0.4623580000000 1.0
C      1  0.4052310000000  0.5447510000000  0.5113510000000 1.0
C      1  0.4062870000000  0.5036470000000  0.5446340000000 1.0
C      1  0.3996350000000  0.4543680000000  0.5215900000000 1.0
C      1  0.5722080000000  0.5176750000000  0.5397380000000 1.0
C      1  0.5759920000000  0.4773650000000  0.5147880000000 1.0
C      1  0.5787290000000  0.4623260000000  0.4752310000000 1.0
C      1  0.5746970000000  0.5061510000000  0.4675930000000 1.0
C      1  0.5720150000000  0.5323690000000  0.5014790000000 1.0
C      1  0.3849630000000  0.4832900000000  0.4826270000000 1.0
C      1  0.3855470000000  0.5127800000000  0.4793630000000 1.0
C      1  0.3850740000000  0.5245060000000  0.5053820000000 1.0
C      1  0.3850470000000  0.5028930000000  0.5248980000000 1.0
C      1  0.3844730000000  0.4774020000000  0.5113760000000 1.0
C      1  0.4541040000000  0.4898920000000  0.5445070000000 1.0
C      1  0.4357260000000  0.4238110000000  0.5040800000000 1.0
C      1  0.4537470000000  0.4835450000000  0.4574870000000 1.0
C      1  0.4588740000000  0.5287830000000  0.4710210000000 1.0
C      1  0.4542370000000  0.5407060000000  0.5253880000000 1.0
C      1  0.5649670000000  0.5406830000000  0.5816890000000 1.0
C      1  0.5612680000000  0.4435840000000  0.5491870000000 1.0
C      1  0.5630420000000  0.4208700000000  0.4553920000000 1.0
C      1  0.5668560000000  0.5171170000000  0.4138100000000 1.0
C      1  0.5656380000000  0.5882990000000  0.4902220000000 1.0
C      1  0.4549150000000  0.4961710000000  0.5743800000000 1.0
C      1  0.4485400000000  0.4187380000000  0.5282220000000 1.0
C      1  0.4561600000000  0.4625270000000  0.4366190000000 1.0
C      1  0.4571300000000  0.5463370000000  0.4439930000000 1.0
C      1  0.4547320000000  0.5708600000000  0.5278140000000 1.0
C      1  0.5390640000000  0.5475340000000  0.5927460000000 1.0
C      1  0.5378590000000  0.4311950000000  0.5617690000000 1.0
C      1  0.5359130000000  0.4125440000000  0.4509790000000 1.0
C      1  0.5416360000000  0.5196890000000  0.3998260000000 1.0
C      1  0.5402610000000  0.6021200000000  0.4872490000000 1.0
C      1  0.4114060000000  0.4507920000000  0.4492220000000 1.0
C      1  0.4136460000000  0.5297320000000  0.4369650000000 1.0
C      1  0.4122680000000  0.5701390000000  0.5071150000000 1.0
C      1  0.4127520000000  0.5164820000000  0.5672220000000 1.0
C      1  0.4107260000000  0.4424260000000  0.5428880000000 1.0
C      1  0.4723720000000  0.5016110000000  0.4712910000000 1.0
C      1  0.4768660000000  0.5462940000000  0.4866740000000 1.0
C      1  0.4806870000000  0.5303340000000  0.5337020000000 1.0
C      1  0.4786260000000  0.4848180000000  0.5282990000000 1.0
C      1  0.4794860000000  0.4589410000000  0.4907530000000 1.0
C      1  0.5047880000000  0.4920300000000  0.4387080000000 1.0
C      1  0.4982530000000  0.5577650000000  0.4724530000000 1.0
C      1  0.4973060000000  0.5474550000000  0.5498670000000 1.0
C      1  0.5074190000000  0.4664040000000  0.5592330000000 1.0
C      1  0.5149990000000  0.4353120000000  0.4918790000000 1.0
C      1  0.4573550000000  0.4826550000000  0.4123530000000 1.0
C      1  0.4562740000000  0.5770890000000  0.4547230000000 1.0
C      1  0.4541400000000  0.5701180000000  0.5604620000000 1.0
C      1  0.4553740000000  0.4660480000000  0.5839360000000 1.0
C      1  0.4499000000000  0.4102510000000  0.4833010000000 1.0
C      1  0.5700000000000  0.5850180000000  0.5188230000000 1.0
C      1  0.5715730000000  0.5103930000000  0.5844190000000 1.0
C      1  0.5702390000000  0.4213220000000  0.5306230000000 1.0
C      1  0.5693480000000  0.4410670000000  0.4340730000000 1.0
C      1  0.5715610000000  0.5424420000000  0.4277840000000 1.0
C      1  0.4930870000000  0.3998950000000  0.4728200000000 1.0
C      1  0.5007470000000  0.4946920000000  0.4067460000000 1.0
C      1  0.4992910000000  0.5879440000000  0.4648630000000 1.0
C      1  0.4970020000000  0.5658900000000  0.5753060000000 1.0
C      1  0.4973150000000  0.4485840000000  0.5832970000000 1.0
C      1  0.5047950000000  0.5389730000000  0.4521690000000 1.0
C      1  0.5037290000000  0.5612560000000  0.5253140000000 1.0
C      1  0.5037810000000  0.4945910000000  0.5660940000000 1.0
C      1  0.4911570000000  0.4406430000000  0.5115690000000 1.0
C      1  0.5053020000000  0.4651130000000  0.4468680000000 1.0
C      1  0.5831140000000  0.4887250000000  0.5665810000000 1.0
C      1  0.5828680000000  0.4268300000000  0.5052770000000 1.0
C      1  0.5826770000000  0.4687150000000  0.4333690000000 1.0
C      1  0.5832700000000  0.5521990000000  0.4536060000000 1.0
C      1  0.5819330000000  0.5651190000000  0.5366400000000 1.0
C      1  0.5448690000000  0.5146930000000  0.4602590000000 1.0
C      1  0.5424900000000  0.5438940000000  0.5034810000000 1.0
C      1  0.5417980000000  0.5165920000000  0.5467150000000 1.0
C      1  0.5497660000000  0.4613020000000  0.5237420000000 1.0
C      1  0.5469220000000  0.4654870000000  0.4695930000000 1.0
C      1  0.4368650000000  0.4408860000000  0.4439040000000 1.0
C      1  0.4387960000000  0.5310700000000  0.4257880000000 1.0
C      1  0.4371890000000  0.5816900000000  0.5054180000000 1.0
C      1  0.4372780000000  0.5213690000000  0.5782790000000 1.0
C      1  0.4355990000000  0.4323360000000  0.5502170000000 1.0
C      1  0.5718100000000  0.5019380000000  0.4970290000000 1.0
C      1  0.4677930000000  0.4831370000000  0.4997960000000 1.0
C      1  0.4372900000000  0.4782890000000  0.5030470000000 1.0
END
