TITL C-93457-6328-4 0.266250549344794 125000 -1338.28803894569 0 0 186 (C1) n - 1
REM
REM in /rds/project/t2_vol4/rds-t2-cs072/BORA/CARBON/from-Arr/AIRSS/Generating-Clusters/GAP-ML-2020/Higher-Symm/SD-CG/HFTN-CG/C160-200
REM
REM
REM
REM
REM
REM ./C.cell (6b4489405718ea1b717e0baf1da4c2d9)
REM AIRSS Version 0.9.1 bugfix July 2018 build 013d7b7c2542+ Fri, 06 Jul 2018 19:26:36 +0100
REM compiler GCC version 9.3.0
REM options -cpp -mtune=generic -march=x86-64 -g -O0
REM seed -626391269 -618020939 574905893 167929170 401794787 1032885885 57441253 -1252612385 -436538131 1722037823 -1876073218 -867256466 2140588161 -613487986 -1997933368 1576150136 67608702 -1319113501 1490380522 -1023745671 1145200137 1516449622 1771312671 606152774 -1778505929 372662163 -1896817454 -323931334 -1423073975 -1226071709 2109066986 1373038822 -1963032143
REM
CELL 1.54180   50.00000   50.00000   50.00000   90.00000   90.00000   90.00000
LATT -1
SFAC C  
C      1  0.4374290000000  0.5123990000000  0.5801200000000 1.0
C      1  0.5901880000000  0.4279710000000  0.5140160000000 1.0
C      1  0.5135230000000  0.5830580000000  0.4332480000000 1.0
C      1  0.4253170000000  0.4835970000000  0.4069340000000 1.0
C      1  0.5710640000000  0.4834720000000  0.5893790000000 1.0
C      1  0.5641860000000  0.5146970000000  0.4157440000000 1.0
C      1  0.5908650000000  0.5703000000000  0.4868060000000 1.0
C      1  0.4164090000000  0.5668800000000  0.5115490000000 1.0
C      1  0.4107990000000  0.4314040000000  0.4844080000000 1.0
C      1  0.5128470000000  0.4056070000000  0.5680440000000 1.0
C      1  0.4846870000000  0.4144200000000  0.4516850000000 1.0
C      1  0.4867980000000  0.5922310000000  0.5709700000000 1.0
C      1  0.5727140000000  0.5116350000000  0.5945190000000 1.0
C      1  0.4119030000000  0.4311300000000  0.5121250000000 1.0
C      1  0.4860660000000  0.5800640000000  0.4357720000000 1.0
C      1  0.5620860000000  0.4872130000000  0.4190080000000 1.0
C      1  0.4349190000000  0.4849450000000  0.5816400000000 1.0
C      1  0.4254710000000  0.5120070000000  0.4027100000000 1.0
C      1  0.4163700000000  0.5670420000000  0.4839440000000 1.0
C      1  0.5894590000000  0.5693070000000  0.5149830000000 1.0
C      1  0.5954530000000  0.4265410000000  0.4862310000000 1.0
C      1  0.4844140000000  0.4072240000000  0.5685410000000 1.0
C      1  0.5141140000000  0.4072150000000  0.4470630000000 1.0
C      1  0.5146350000000  0.5870890000000  0.5691090000000 1.0
C      1  0.5535490000000  0.3988070000000  0.5099070000000 1.0
C      1  0.5130280000000  0.5541850000000  0.3959040000000 1.0
C      1  0.4002910000000  0.5141350000000  0.5526150000000 1.0
C      1  0.5569770000000  0.6011250000000  0.4864350000000 1.0
C      1  0.4455520000000  0.6039160000000  0.5121960000000 1.0
C      1  0.4428330000000  0.3977930000000  0.4815060000000 1.0
C      1  0.5136040000000  0.4415260000000  0.5992850000000 1.0
C      1  0.4848170000000  0.4420320000000  0.4099980000000 1.0
C      1  0.4858300000000  0.5527170000000  0.5988650000000 1.0
C      1  0.3970970000000  0.4843150000000  0.4425970000000 1.0
C      1  0.6022710000000  0.4841150000000  0.5555480000000 1.0
C      1  0.5994960000000  0.5143680000000  0.4457790000000 1.0
C      1  0.4436810000000  0.3967880000000  0.5104340000000 1.0
C      1  0.4847290000000  0.5530030000000  0.3970240000000 1.0
C      1  0.6003590000000  0.5128570000000  0.5557350000000 1.0
C      1  0.4469520000000  0.6021180000000  0.4835120000000 1.0
C      1  0.5566940000000  0.6020980000000  0.5154600000000 1.0
C      1  0.5554870000000  0.3989580000000  0.4814630000000 1.0
C      1  0.4849500000000  0.4411050000000  0.5997450000000 1.0
C      1  0.5128220000000  0.4426430000000  0.4112280000000 1.0
C      1  0.5141100000000  0.5535740000000  0.6019770000000 1.0
C      1  0.6001570000000  0.4859260000000  0.4455220000000 1.0
C      1  0.3990220000000  0.4854070000000  0.5529170000000 1.0
C      1  0.3999230000000  0.5129410000000  0.4425220000000 1.0
C      1  0.4223610000000  0.4190140000000  0.4412640000000 1.0
C      1  0.4426430000000  0.4261070000000  0.4234390000000 1.0
C      1  0.4183280000000  0.4412090000000  0.4253900000000 1.0
C      1  0.4312450000000  0.5784350000000  0.5534670000000 1.0
C      1  0.5723110000000  0.5800590000000  0.4433310000000 1.0
C      1  0.5698410000000  0.4201860000000  0.5536310000000 1.0
C      1  0.4454960000000  0.5706490000000  0.5759380000000 1.0
C      1  0.5560230000000  0.5724610000000  0.4209970000000 1.0
C      1  0.5547080000000  0.4269370000000  0.5755810000000 1.0
C      1  0.4236470000000  0.5555380000000  0.5677270000000 1.0
C      1  0.5785060000000  0.5573650000000  0.4281020000000 1.0
C      1  0.5778200000000  0.4415370000000  0.5697690000000 1.0
C      1  0.5758690000000  0.4198290000000  0.4441350000000 1.0
C      1  0.5542230000000  0.4270170000000  0.4290400000000 1.0
C      1  0.5753360000000  0.4448570000000  0.4332780000000 1.0
C      1  0.5725480000000  0.5770890000000  0.5576510000000 1.0
C      1  0.4279490000000  0.5771730000000  0.4415840000000 1.0
C      1  0.4272670000000  0.4190150000000  0.5542680000000 1.0
C      1  0.5563100000000  0.5690030000000  0.5787620000000 1.0
C      1  0.4434330000000  0.5678790000000  0.4204380000000 1.0
C      1  0.4419540000000  0.4248350000000  0.5774440000000 1.0
C      1  0.5787140000000  0.5541400000000  0.5723990000000 1.0
C      1  0.4203780000000  0.5541590000000  0.4271370000000 1.0
C      1  0.4209060000000  0.4417750000000  0.5697930000000 1.0
C      1  0.4248760000000  0.4111010000000  0.5269200000000 1.0
C      1  0.5265250000000  0.4238200000000  0.4273730000000 1.0
C      1  0.4113890000000  0.5279420000000  0.4217890000000 1.0
C      1  0.4281180000000  0.5865000000000  0.4684730000000 1.0
C      1  0.5751230000000  0.5870170000000  0.5310030000000 1.0
C      1  0.5792370000000  0.4096010000000  0.4699360000000 1.0
C      1  0.5293680000000  0.5714950000000  0.5865000000000 1.0
C      1  0.4707720000000  0.5688240000000  0.4154140000000 1.0
C      1  0.4689220000000  0.4214100000000  0.5865960000000 1.0
C      1  0.4138380000000  0.4695030000000  0.5716910000000 1.0
C      1  0.5815070000000  0.4716910000000  0.4305940000000 1.0
C      1  0.5876410000000  0.5276030000000  0.5761210000000 1.0
C      1  0.5722850000000  0.4112500000000  0.5268690000000 1.0
C      1  0.4706670000000  0.4244920000000  0.4264810000000 1.0
C      1  0.5848380000000  0.5296150000000  0.4269420000000 1.0
C      1  0.5766190000000  0.5883390000000  0.4704170000000 1.0
C      1  0.4287480000000  0.5867540000000  0.5267990000000 1.0
C      1  0.4214150000000  0.4111740000000  0.4685030000000 1.0
C      1  0.4715540000000  0.5733850000000  0.5857520000000 1.0
C      1  0.5285140000000  0.5730470000000  0.4120870000000 1.0
C      1  0.5282260000000  0.4227240000000  0.5845930000000 1.0
C      1  0.5878280000000  0.4679060000000  0.5738990000000 1.0
C      1  0.4084920000000  0.4678910000000  0.4222110000000 1.0
C      1  0.4170660000000  0.5284800000000  0.5703130000000 1.0
C      1  0.4714640000000  0.6120790000000  0.5222360000000 1.0
C      1  0.5224540000000  0.4685170000000  0.6047640000000 1.0
C      1  0.6039360000000  0.5228170000000  0.4724920000000 1.0
C      1  0.4696700000000  0.3961780000000  0.4708050000000 1.0
C      1  0.5267060000000  0.3940870000000  0.5170100000000 1.0
C      1  0.5297370000000  0.6017430000000  0.4778020000000 1.0
C      1  0.5211190000000  0.5265500000000  0.3931750000000 1.0
C      1  0.4778880000000  0.5249240000000  0.6005620000000 1.0
C      1  0.4754870000000  0.4678160000000  0.3997570000000 1.0
C      1  0.6076030000000  0.4761570000000  0.5287370000000 1.0
C      1  0.3956510000000  0.4767920000000  0.4701310000000 1.0
C      1  0.3972020000000  0.5230350000000  0.5253580000000 1.0
C      1  0.5298920000000  0.6082180000000  0.5229640000000 1.0
C      1  0.4773270000000  0.4686610000000  0.6003970000000 1.0
C      1  0.4009250000000  0.5219440000000  0.4695980000000 1.0
C      1  0.5281780000000  0.3967880000000  0.4698030000000 1.0
C      1  0.4709680000000  0.3937200000000  0.5177090000000 1.0
C      1  0.4747140000000  0.6039440000000  0.4765110000000 1.0
C      1  0.4757600000000  0.5262850000000  0.3894250000000 1.0
C      1  0.5229700000000  0.5272660000000  0.6103680000000 1.0
C      1  0.5203460000000  0.4694140000000  0.4024710000000 1.0
C      1  0.3955170000000  0.4771710000000  0.5256430000000 1.0
C      1  0.6097070000000  0.4766620000000  0.4710100000000 1.0
C      1  0.6035530000000  0.5220370000000  0.5288230000000 1.0
C      1  0.5287650000000  0.4743640000000  0.4728830000000 1.0
C      1  0.4682540000000  0.5126580000000  0.4571570000000 1.0
C      1  0.4487080000000  0.4721540000000  0.5240990000000 1.0
C      1  0.5113610000000  0.5603310000000  0.5232100000000 1.0
C      1  0.4759940000000  0.5530650000000  0.4833400000000 1.0
C      1  0.4814850000000  0.4452500000000  0.5335520000000 1.0
C      1  0.4667960000000  0.4654260000000  0.5488870000000 1.0
C      1  0.5175690000000  0.4893000000000  0.4505000000000 1.0
C      1  0.5288270000000  0.5376950000000  0.5332240000000 1.0
C      1  0.4560600000000  0.5339400000000  0.4727030000000 1.0
C      1  0.5527960000000  0.5290260000000  0.5193160000000 1.0
C      1  0.5477210000000  0.4849820000000  0.4912750000000 1.0
C      1  0.4693300000000  0.4553410000000  0.4819910000000 1.0
C      1  0.5189520000000  0.5289110000000  0.4457760000000 1.0
C      1  0.5570280000000  0.4699270000000  0.5148200000000 1.0
C      1  0.4728360000000  0.5347530000000  0.5293020000000 1.0
C      1  0.5307140000000  0.5478240000000  0.4645790000000 1.0
C      1  0.5426910000000  0.4762230000000  0.5371820000000 1.0
C      1  0.5315740000000  0.4919720000000  0.5564720000000 1.0
C      1  0.4544710000000  0.4883470000000  0.4483800000000 1.0
C      1  0.4863030000000  0.5213240000000  0.5507530000000 1.0
C      1  0.5526080000000  0.5351300000000  0.4778900000000 1.0
C      1  0.4471380000000  0.5234110000000  0.5225910000000 1.0
C      1  0.4472730000000  0.4690880000000  0.4687370000000 1.0
C      1  0.5136100000000  0.5895130000000  0.5390040000000 1.0
C      1  0.5449250000000  0.5128720000000  0.6024340000000 1.0
C      1  0.5836700000000  0.5396210000000  0.5161460000000 1.0
C      1  0.5163160000000  0.4504890000000  0.4748230000000 1.0
C      1  0.4844690000000  0.4122250000000  0.5379090000000 1.0
C      1  0.4864340000000  0.5777600000000  0.4659990000000 1.0
C      1  0.5323920000000  0.4875430000000  0.4226640000000 1.0
C      1  0.4645130000000  0.4796860000000  0.5762060000000 1.0
C      1  0.4537730000000  0.5120820000000  0.3982950000000 1.0
C      1  0.6007850000000  0.4547400000000  0.4849470000000 1.0
C      1  0.4177440000000  0.4610400000000  0.5139380000000 1.0
C      1  0.4234900000000  0.5373110000000  0.4814460000000 1.0
C      1  0.4854010000000  0.6022250000000  0.5438560000000 1.0
C      1  0.4680360000000  0.5120290000000  0.5751610000000 1.0
C      1  0.4209390000000  0.5371740000000  0.5132900000000 1.0
C      1  0.4913060000000  0.4416650000000  0.4698560000000 1.0
C      1  0.5137100000000  0.4028690000000  0.5394400000000 1.0
C      1  0.5186160000000  0.5784520000000  0.4631060000000 1.0
C      1  0.4552460000000  0.4843810000000  0.4132940000000 1.0
C      1  0.5405210000000  0.4852230000000  0.5886310000000 1.0
C      1  0.5344170000000  0.5185410000000  0.4178890000000 1.0
C      1  0.4180240000000  0.4613020000000  0.4818220000000 1.0
C      1  0.5890630000000  0.4582260000000  0.5138080000000 1.0
C      1  0.5848580000000  0.5411860000000  0.4844360000000 1.0
C      1  0.4879550000000  0.6152770000000  0.4988510000000 1.0
C      1  0.4993210000000  0.4834130000000  0.6107060000000 1.0
C      1  0.6131230000000  0.5002330000000  0.4866520000000 1.0
C      1  0.4849910000000  0.3891590000000  0.4933200000000 1.0
C      1  0.5124350000000  0.3903920000000  0.4925050000000 1.0
C      1  0.5154080000000  0.6139720000000  0.4991080000000 1.0
C      1  0.4988290000000  0.5101310000000  0.3858830000000 1.0
C      1  0.4993960000000  0.5110250000000  0.6119370000000 1.0
C      1  0.4981900000000  0.4822560000000  0.3904990000000 1.0
C      1  0.6127930000000  0.4999120000000  0.5141850000000 1.0
C      1  0.3893210000000  0.5005270000000  0.4840750000000 1.0
C      1  0.3876040000000  0.5005550000000  0.5115120000000 1.0
C      1  0.5485220000000  0.5129070000000  0.4952260000000 1.0
C      1  0.5151520000000  0.5170460000000  0.5489210000000 1.0
C      1  0.4470610000000  0.4980800000000  0.5143060000000 1.0
C      1  0.4687070000000  0.4547550000000  0.5093310000000 1.0
C      1  0.4863520000000  0.5512080000000  0.5105340000000 1.0
C      1  0.4973250000000  0.5106710000000  0.4509800000000 1.0
END
