TITL C-94972-563-6 -287.728037786376 125000 -486.43997664915 0 0 73 (C1) n - 1
REM
REM in /rds/project/t2_vol4/rds-t2-cs072/BORA/CARBON/from-Arr/AIRSS/Generating-Clusters/GAP-ML-2020/Higher-Symm/SD-CG/HFTN-CG
REM
REM
REM
REM
REM
REM ./C.cell (b20cbc046b6831c77cfcea5457e17084)
REM AIRSS Version 0.9.1 bugfix July 2018 build 013d7b7c2542+ Fri, 06 Jul 2018 19:26:36 +0100
REM compiler GCC version 9.3.0
REM options -cpp -mtune=generic -march=x86-64 -g -O0
REM seed 897783432 -737028312 854481142 2146849740 -552750358 709811406 -1893851922 -862136421 735760646 -1447093836 -1265199933 595724611 -1301457773 -925258529 -669298997 438487281 1506118651 -1612458785 -209915161 237346608 -1378535068 1558587695 1135552722 -376609180 -2132691665 44809401 -838299381 -1694168592 2051369490 -1562516808 749856955 -1387504455 963842139
REM
CELL 1.54180   50.00000   50.00000   50.00000   90.00000   90.00000   90.00000
LATT -1
SFAC C  
C      1  0.5258740000000  0.4483420000000  0.4754300000000 1.0
C      1  0.5299030000000  0.5444610000000  0.4778580000000 1.0
C      1  0.4415750000000  0.5051580000000  0.4743370000000 1.0
C      1  0.5247270000000  0.4484210000000  0.5228930000000 1.0
C      1  0.5306530000000  0.5451350000000  0.5250090000000 1.0
C      1  0.4452550000000  0.5026320000000  0.5238420000000 1.0
C      1  0.5000740000000  0.5398870000000  0.5908530000000 1.0
C      1  0.4633320000000  0.4789630000000  0.5902620000000 1.0
C      1  0.5310690000000  0.4793510000000  0.5856970000000 1.0
C      1  0.5100610000000  0.5471760000000  0.4147450000000 1.0
C      1  0.4649950000000  0.4801840000000  0.4033520000000 1.0
C      1  0.5335550000000  0.4786850000000  0.4131570000000 1.0
C      1  0.5188490000000  0.4756870000000  0.4736000000000 1.0
C      1  0.5136690000000  0.5202950000000  0.4725990000000 1.0
C      1  0.4676150000000  0.5023960000000  0.4640640000000 1.0
C      1  0.5150370000000  0.4750530000000  0.5288540000000 1.0
C      1  0.5139870000000  0.5210690000000  0.5280800000000 1.0
C      1  0.4733950000000  0.4984800000000  0.5300180000000 1.0
C      1  0.4821450000000  0.4595340000000  0.4157230000000 1.0
C      1  0.5439220000000  0.5040600000000  0.4227990000000 1.0
C      1  0.4875420000000  0.5568040000000  0.4237080000000 1.0
C      1  0.4801160000000  0.4570680000000  0.5799140000000 1.0
C      1  0.5433720000000  0.5057030000000  0.5819530000000 1.0
C      1  0.4727310000000  0.5345340000000  0.5813820000000 1.0
C      1  0.4438640000000  0.5298910000000  0.5128810000000 1.0
C      1  0.5013520000000  0.4346970000000  0.5110080000000 1.0
C      1  0.5555230000000  0.5336420000000  0.5153330000000 1.0
C      1  0.4440260000000  0.5324620000000  0.4854730000000 1.0
C      1  0.5008880000000  0.4356860000000  0.4838190000000 1.0
C      1  0.5554390000000  0.5338430000000  0.4885140000000 1.0
C      1  0.4836360000000  0.5658230000000  0.5156470000000 1.0
C      1  0.4509180000000  0.4516960000000  0.5121250000000 1.0
C      1  0.5665990000000  0.4801910000000  0.5159240000000 1.0
C      1  0.4829260000000  0.5655680000000  0.4872800000000 1.0
C      1  0.4502820000000  0.4530890000000  0.4840860000000 1.0
C      1  0.5674160000000  0.4806380000000  0.4878020000000 1.0
C      1  0.5314270000000  0.4991170000000  0.4854730000000 1.0
C      1  0.4893220000000  0.5114580000000  0.4867380000000 1.0
C      1  0.4818770000000  0.4759580000000  0.4618100000000 1.0
C      1  0.5295960000000  0.4986080000000  0.5160780000000 1.0
C      1  0.4869430000000  0.5209250000000  0.5158220000000 1.0
C      1  0.4880750000000  0.4757200000000  0.5181250000000 1.0
C      1  0.5136330000000  0.5654960000000  0.4873190000000 1.0
C      1  0.4356230000000  0.4800720000000  0.4860570000000 1.0
C      1  0.5513350000000  0.4543830000000  0.4859970000000 1.0
C      1  0.5139750000000  0.5657920000000  0.5158540000000 1.0
C      1  0.4360020000000  0.4779220000000  0.5144950000000 1.0
C      1  0.5510200000000  0.4534990000000  0.5145280000000 1.0
C      1  0.4756050000000  0.4470620000000  0.4661700000000 1.0
C      1  0.5594700000000  0.5060650000000  0.4734720000000 1.0
C      1  0.4635980000000  0.5516020000000  0.4713070000000 1.0
C      1  0.4767620000000  0.4475310000000  0.5272090000000 1.0
C      1  0.5571580000000  0.5051620000000  0.5301420000000 1.0
C      1  0.4670560000000  0.5446220000000  0.5288230000000 1.0
C      1  0.4711070000000  0.5458440000000  0.4435640000000 1.0
C      1  0.4737830000000  0.4449770000000  0.4378450000000 1.0
C      1  0.5582020000000  0.5066390000000  0.4455830000000 1.0
C      1  0.4644360000000  0.5438170000000  0.5569200000000 1.0
C      1  0.4759360000000  0.4457850000000  0.5553020000000 1.0
C      1  0.5571480000000  0.5080530000000  0.5581130000000 1.0
C      1  0.5064190000000  0.5120630000000  0.4447620000000 1.0
C      1  0.4748460000000  0.5165310000000  0.4396600000000 1.0
C      1  0.5068510000000  0.4826080000000  0.4472960000000 1.0
C      1  0.5092260000000  0.5129190000000  0.5554500000000 1.0
C      1  0.4826850000000  0.5001910000000  0.5567930000000 1.0
C      1  0.5110700000000  0.4829120000000  0.5560570000000 1.0
C      1  0.4672770000000  0.5034260000000  0.5808280000000 1.0
C      1  0.5100330000000  0.4649990000000  0.5794460000000 1.0
C      1  0.5196330000000  0.5252570000000  0.5801270000000 1.0
C      1  0.4649590000000  0.5020250000000  0.4162480000000 1.0
C      1  0.5103680000000  0.4684680000000  0.4219130000000 1.0
C      1  0.5225350000000  0.5248520000000  0.4240460000000 1.0
C      1  0.4934660000000  0.4825650000000  0.4892460000000 1.0
END
