TITL C-94974-504-8 6.57702166166724 125000 -597.552974194292 0 0 85 (C1) n - 1
REM
REM in /rds/project/t2_vol4/rds-t2-cs072/BORA/CARBON/from-Arr/AIRSS/Generating-Clusters/GAP-ML-2020/Higher-Symm/SD-CG/HFTN-CG
REM
REM
REM
REM
REM
REM ./C.cell (b20cbc046b6831c77cfcea5457e17084)
REM AIRSS Version 0.9.1 bugfix July 2018 build 013d7b7c2542+ Fri, 06 Jul 2018 19:26:36 +0100
REM compiler GCC version 9.3.0
REM options -cpp -mtune=generic -march=x86-64 -g -O0
REM seed -1498942790 -1712875262 1972686447 -841236090 48825057 1163615047 1489380132 2055359646 -600688079 162088973 -2119784904 -843360051 -219216692 2120014520 2737401 1651492782 -1778210161 1723289434 688425479 -1963857719 2042806173 -1516430286 1823581176 -1249997938 -1727963671 -1928827797 859522452 1177236486 1826546571 1963999982 -436915884 -23994395 -79519694
REM
CELL 1.54180   50.00000   50.00000   50.00000   90.00000   90.00000   90.00000
LATT -1
SFAC C  
C      1  0.4889490000000  0.5262160000000  0.5809160000000 1.0
C      1  0.5460340000000  0.4680920000000  0.4419750000000 1.0
C      1  0.4465590000000  0.5064910000000  0.4323280000000 1.0
C      1  0.5685410000000  0.4716930000000  0.5177680000000 1.0
C      1  0.4739440000000  0.5115360000000  0.4213750000000 1.0
C      1  0.4963330000000  0.4953670000000  0.4282250000000 1.0
C      1  0.5669800000000  0.4922110000000  0.5364740000000 1.0
C      1  0.5612890000000  0.5384220000000  0.4568630000000 1.0
C      1  0.5727580000000  0.5241040000000  0.5001750000000 1.0
C      1  0.4815220000000  0.5693540000000  0.4848150000000 1.0
C      1  0.5270200000000  0.4697920000000  0.5565520000000 1.0
C      1  0.4245170000000  0.5133590000000  0.5152090000000 1.0
C      1  0.5480610000000  0.5350740000000  0.5467090000000 1.0
C      1  0.5272660000000  0.5682390000000  0.4646270000000 1.0
C      1  0.4715960000000  0.5386740000000  0.4315520000000 1.0
C      1  0.4272300000000  0.5117450000000  0.4870410000000 1.0
C      1  0.4545040000000  0.5564630000000  0.4897170000000 1.0
C      1  0.5023160000000  0.5146320000000  0.4762770000000 1.0
C      1  0.4557300000000  0.4404100000000  0.4528590000000 1.0
C      1  0.4334210000000  0.5354100000000  0.5312310000000 1.0
C      1  0.5223820000000  0.5028560000000  0.4898780000000 1.0
C      1  0.4987800000000  0.5760420000000  0.5076550000000 1.0
C      1  0.4312820000000  0.4664630000000  0.5060110000000 1.0
C      1  0.5206180000000  0.4636660000000  0.4561050000000 1.0
C      1  0.4609520000000  0.4892760000000  0.5331420000000 1.0
C      1  0.4456110000000  0.5348540000000  0.5586470000000 1.0
C      1  0.4403820000000  0.5354010000000  0.4734750000000 1.0
C      1  0.5119310000000  0.5087770000000  0.5783360000000 1.0
C      1  0.5270500000000  0.4341320000000  0.4600180000000 1.0
C      1  0.4988790000000  0.5675450000000  0.4615360000000 1.0
C      1  0.5739150000000  0.5023090000000  0.4806220000000 1.0
C      1  0.5651060000000  0.5108680000000  0.4544310000000 1.0
C      1  0.4788570000000  0.5022000000000  0.4842670000000 1.0
C      1  0.4930150000000  0.4717240000000  0.4466230000000 1.0
C      1  0.4505670000000  0.4447450000000  0.5082250000000 1.0
C      1  0.5628460000000  0.4771450000000  0.4890410000000 1.0
C      1  0.5434440000000  0.4426950000000  0.5221950000000 1.0
C      1  0.5065150000000  0.5661320000000  0.5531060000000 1.0
C      1  0.5468970000000  0.4957970000000  0.4374090000000 1.0
C      1  0.5481990000000  0.4894710000000  0.5578050000000 1.0
C      1  0.4743980000000  0.4757360000000  0.4728180000000 1.0
C      1  0.4883260000000  0.5532870000000  0.5713510000000 1.0
C      1  0.5269250000000  0.5688000000000  0.5124290000000 1.0
C      1  0.4381770000000  0.4821240000000  0.4360000000000 1.0
C      1  0.5066960000000  0.4804800000000  0.5746170000000 1.0
C      1  0.4631090000000  0.4312190000000  0.5309120000000 1.0
C      1  0.5379630000000  0.5146890000000  0.5659790000000 1.0
C      1  0.5684680000000  0.4431570000000  0.5104440000000 1.0
C      1  0.5221270000000  0.5088130000000  0.4271740000000 1.0
C      1  0.5037720000000  0.4310720000000  0.5456260000000 1.0
C      1  0.4902870000000  0.4206070000000  0.5230130000000 1.0
C      1  0.4736650000000  0.5094300000000  0.5132570000000 1.0
C      1  0.5422270000000  0.5654890000000  0.4890420000000 1.0
C      1  0.4621420000000  0.5154480000000  0.5743730000000 1.0
C      1  0.5223680000000  0.4562700000000  0.5063850000000 1.0
C      1  0.4797720000000  0.4485410000000  0.5486790000000 1.0
C      1  0.5664980000000  0.5199970000000  0.5281640000000 1.0
C      1  0.5199300000000  0.5374320000000  0.4302060000000 1.0
C      1  0.5634530000000  0.5465220000000  0.4844850000000 1.0
C      1  0.4992100000000  0.4364270000000  0.4989870000000 1.0
C      1  0.4629370000000  0.4903150000000  0.5630200000000 1.0
C      1  0.4467530000000  0.5322970000000  0.4460380000000 1.0
C      1  0.5312740000000  0.5583540000000  0.5398040000000 1.0
C      1  0.4885800000000  0.5783920000000  0.5331630000000 1.0
C      1  0.4614110000000  0.5581030000000  0.5613600000000 1.0
C      1  0.5038120000000  0.4236100000000  0.4722390000000 1.0
C      1  0.5315890000000  0.4747920000000  0.4842450000000 1.0
C      1  0.4288700000000  0.4810910000000  0.4821190000000 1.0
C      1  0.4951870000000  0.5510570000000  0.4379740000000 1.0
C      1  0.5683700000000  0.4483770000000  0.4815580000000 1.0
C      1  0.4803030000000  0.4266220000000  0.4555260000000 1.0
C      1  0.4760440000000  0.4562120000000  0.4975000000000 1.0
C      1  0.4458220000000  0.5580970000000  0.5171040000000 1.0
C      1  0.4809280000000  0.4701030000000  0.5702310000000 1.0
C      1  0.5161510000000  0.5033580000000  0.5177800000000 1.0
C      1  0.4330690000000  0.4870190000000  0.5249140000000 1.0
C      1  0.5394590000000  0.5511850000000  0.4451200000000 1.0
C      1  0.5109810000000  0.4761450000000  0.5263850000000 1.0
C      1  0.4615590000000  0.5718040000000  0.5366760000000 1.0
C      1  0.4957070000000  0.5204000000000  0.5240440000000 1.0
C      1  0.5297370000000  0.4415120000000  0.5479710000000 1.0
C      1  0.4815340000000  0.4694550000000  0.5251500000000 1.0
C      1  0.4787480000000  0.4463150000000  0.4369570000000 1.0
C      1  0.5548820000000  0.4418900000000  0.4580280000000 1.0
C      1  0.4449830000000  0.4685730000000  0.4599360000000 1.0
END
