TITL C-94986-2497-2 0.0143684828400962 125000 -61.3708295823692 0 0 10 (Cs) n - 1
REM
REM in /rds/project/t2_vol4/rds-t2-cs072/BORA/CARBON/from-Arr/AIRSS/Generating-Clusters/GAP-ML-2020/Higher-Symm/SD-CG/HFTN-CG
REM
REM
REM
REM
REM
REM ./C.cell (b20cbc046b6831c77cfcea5457e17084)
REM AIRSS Version 0.9.1 bugfix July 2018 build 013d7b7c2542+ Fri, 06 Jul 2018 19:26:36 +0100
REM compiler GCC version 9.3.0
REM options -cpp -mtune=generic -march=x86-64 -g -O0
REM seed 1457575762 -1047436084 2035630521 -2021891464 -890152088 2020106046 303804413 1983325650 288826228 -1859476891 264323323 1935425475 1707495639 643753717 -1501628305 2025906134 -813368703 -1207529898 -1107908851 -1090993702 -504539698 -810222722 1920848999 -638841596 230928035 -779973543 -797550845 1216059304 -1037919436 619308938 -1794702077 -1701138516 1897075400
REM
CELL 1.54180   50.00000   50.00000   50.00000   90.00000   90.00000   90.00000
LATT -1
SFAC C  
C      1  0.4810940000000  0.4782770000000  0.4939330000000 1.0
C      1  0.4822940000000  0.5182310000000  0.5167180000000 1.0
C      1  0.4783310000000  0.5050880000000  0.4935200000000 1.0
C      1  0.5242950000000  0.4702660000000  0.5032770000000 1.0
C      1  0.5179590000000  0.5106880000000  0.4816140000000 1.0
C      1  0.5255570000000  0.5123090000000  0.5272540000000 1.0
C      1  0.4941470000000  0.5172320000000  0.4713920000000 1.0
C      1  0.5016470000000  0.5231440000000  0.5328760000000 1.0
C      1  0.4997820000000  0.4610070000000  0.4974410000000 1.0
C      1  0.5281750000000  0.4974980000000  0.5042060000000 1.0
END
