TITL C-94998-3927-4 -0.0167362275313391 125000 -836.746131197603 0 0 124 (Cs) n - 1
REM
REM in /rds/project/t2_vol4/rds-t2-cs072/BORA/CARBON/from-Arr/AIRSS/Generating-Clusters/GAP-ML-2020/Higher-Symm/SD-CG/HFTN-CG
REM
REM
REM
REM
REM
REM ./C.cell (b20cbc046b6831c77cfcea5457e17084)
REM AIRSS Version 0.9.1 bugfix July 2018 build 013d7b7c2542+ Fri, 06 Jul 2018 19:26:36 +0100
REM compiler GCC version 9.3.0
REM options -cpp -mtune=generic -march=x86-64 -g -O0
REM seed 1925912627 532238937 -718476127 1874234708 -575140031 1802302193 1492113939 1279815582 2043946486 229521149 -1835732300 -468923576 2035265410 419067649 336081176 -539114555 -1112758174 869949317 232498352 -1810932611 149501277 -1392878596 469366015 -1119786327 610307243 -1359240069 1349485626 916135844 897431513 -55915688 1819588518 -1499087119 1269719094
REM
CELL 1.54180   50.00000   50.00000   50.00000   90.00000   90.00000   90.00000
LATT -1
SFAC C  
C      1  0.5761410000000  0.5168910000000  0.5232640000000 1.0
C      1  0.5866040000000  0.4742220000000  0.5349230000000 1.0
C      1  0.5767890000000  0.4709030000000  0.4944610000000 1.0
C      1  0.5723340000000  0.5007450000000  0.4583340000000 1.0
C      1  0.5743830000000  0.5370010000000  0.4840710000000 1.0
C      1  0.4217490000000  0.5168970000000  0.5232580000000 1.0
C      1  0.4112820000000  0.4742280000000  0.5349150000000 1.0
C      1  0.4211010000000  0.4709090000000  0.4944550000000 1.0
C      1  0.4255610000000  0.5007500000000  0.4583270000000 1.0
C      1  0.4235130000000  0.5370070000000  0.4840650000000 1.0
C      1  0.5145070000000  0.5175780000000  0.5597380000000 1.0
C      1  0.5144370000000  0.4475080000000  0.5328100000000 1.0
C      1  0.5143620000000  0.4524660000000  0.4607600000000 1.0
C      1  0.5143090000000  0.5234020000000  0.4422870000000 1.0
C      1  0.5147130000000  0.5622440000000  0.5064290000000 1.0
C      1  0.4833810000000  0.5175790000000  0.5597370000000 1.0
C      1  0.4834480000000  0.4475090000000  0.5328090000000 1.0
C      1  0.4835290000000  0.4524670000000  0.4607590000000 1.0
C      1  0.4835890000000  0.5234030000000  0.4422860000000 1.0
C      1  0.4831820000000  0.5622450000000  0.5064280000000 1.0
C      1  0.5252160000000  0.5901020000000  0.5101070000000 1.0
C      1  0.5238780000000  0.5193100000000  0.5889120000000 1.0
C      1  0.5242890000000  0.4221610000000  0.5452240000000 1.0
C      1  0.5244440000000  0.4329900000000  0.4401830000000 1.0
C      1  0.5234310000000  0.5369810000000  0.4169570000000 1.0
C      1  0.4726820000000  0.5901040000000  0.5101050000000 1.0
C      1  0.4740070000000  0.5193120000000  0.5889100000000 1.0
C      1  0.4735930000000  0.4221630000000  0.5452220000000 1.0
C      1  0.4734480000000  0.4329920000000  0.4401810000000 1.0
C      1  0.4744710000000  0.5369830000000  0.4169550000000 1.0
C      1  0.4840780000000  0.4260800000000  0.5717270000000 1.0
C      1  0.4841750000000  0.4089800000000  0.4520160000000 1.0
C      1  0.4842180000000  0.5175620000000  0.3982630000000 1.0
C      1  0.4840050000000  0.6027830000000  0.4866410000000 1.0
C      1  0.4843520000000  0.5464720000000  0.5927290000000 1.0
C      1  0.5138020000000  0.4260790000000  0.5717280000000 1.0
C      1  0.5137140000000  0.4089790000000  0.4520170000000 1.0
C      1  0.5136830000000  0.5175610000000  0.3982640000000 1.0
C      1  0.5138960000000  0.6027820000000  0.4866420000000 1.0
C      1  0.5135350000000  0.5464710000000  0.5927300000000 1.0
C      1  0.5769630000000  0.5298860000000  0.4567180000000 1.0
C      1  0.5798580000000  0.5455450000000  0.5113560000000 1.0
C      1  0.5771480000000  0.4969680000000  0.5492840000000 1.0
C      1  0.5781110000000  0.4514200000000  0.5178100000000 1.0
C      1  0.5775740000000  0.4735760000000  0.4621920000000 1.0
C      1  0.4209340000000  0.5298920000000  0.4567110000000 1.0
C      1  0.4180360000000  0.5455510000000  0.5113490000000 1.0
C      1  0.4207390000000  0.4969740000000  0.5492770000000 1.0
C      1  0.4197750000000  0.4514260000000  0.5178030000000 1.0
C      1  0.4203190000000  0.4735820000000  0.4621850000000 1.0
C      1  0.4564280000000  0.4968910000000  0.5912570000000 1.0
C      1  0.4557580000000  0.4106600000000  0.5258440000000 1.0
C      1  0.4548360000000  0.4485690000000  0.4243860000000 1.0
C      1  0.4579110000000  0.5590150000000  0.4260150000000 1.0
C      1  0.4522750000000  0.5868660000000  0.5311220000000 1.0
C      1  0.5414550000000  0.4968880000000  0.5912600000000 1.0
C      1  0.5421250000000  0.4106570000000  0.5258480000000 1.0
C      1  0.5430580000000  0.4485660000000  0.4243900000000 1.0
C      1  0.5399910000000  0.5590120000000  0.4260180000000 1.0
C      1  0.5456200000000  0.5868620000000  0.5311260000000 1.0
C      1  0.4441770000000  0.4952530000000  0.5642950000000 1.0
C      1  0.4422060000000  0.4348650000000  0.5175360000000 1.0
C      1  0.4415700000000  0.4623840000000  0.4461310000000 1.0
C      1  0.4430890000000  0.5443980000000  0.4460880000000 1.0
C      1  0.4382210000000  0.5626400000000  0.5221790000000 1.0
C      1  0.5537080000000  0.4952490000000  0.5643000000000 1.0
C      1  0.5556800000000  0.4348610000000  0.5175410000000 1.0
C      1  0.5563230000000  0.4623790000000  0.4461360000000 1.0
C      1  0.5548100000000  0.5443940000000  0.4460930000000 1.0
C      1  0.5596730000000  0.5626350000000  0.5221840000000 1.0
C      1  0.5347610000000  0.3970790000000  0.5025650000000 1.0
C      1  0.5354120000000  0.4660310000000  0.4031520000000 1.0
C      1  0.5325180000000  0.5835780000000  0.4377240000000 1.0
C      1  0.5375950000000  0.5855110000000  0.5581680000000 1.0
C      1  0.5344650000000  0.4708200000000  0.5977660000000 1.0
C      1  0.4631220000000  0.3970810000000  0.5025620000000 1.0
C      1  0.4624850000000  0.4660340000000  0.4031490000000 1.0
C      1  0.4653850000000  0.5835800000000  0.4377210000000 1.0
C      1  0.4602980000000  0.5855140000000  0.5581650000000 1.0
C      1  0.4634150000000  0.4708230000000  0.5977630000000 1.0
C      1  0.4631470000000  0.5457250000000  0.5236200000000 1.0
C      1  0.4697100000000  0.4928220000000  0.5485100000000 1.0
C      1  0.4660330000000  0.4503230000000  0.5075280000000 1.0
C      1  0.4673790000000  0.4773030000000  0.4555800000000 1.0
C      1  0.4672450000000  0.5368020000000  0.4642080000000 1.0
C      1  0.5347460000000  0.5457220000000  0.5236230000000 1.0
C      1  0.5281760000000  0.4928200000000  0.5485130000000 1.0
C      1  0.5318540000000  0.4503210000000  0.5075300000000 1.0
C      1  0.5305150000000  0.4773010000000  0.4555830000000 1.0
C      1  0.5306530000000  0.5367990000000  0.4642110000000 1.0
C      1  0.5463770000000  0.4762710000000  0.5000840000000 1.0
C      1  0.5461810000000  0.4942970000000  0.4747850000000 1.0
C      1  0.5471980000000  0.5223130000000  0.4847480000000 1.0
C      1  0.5462960000000  0.5203440000000  0.5141390000000 1.0
C      1  0.5327750000000  0.4954480000000  0.5192030000000 1.0
C      1  0.4515130000000  0.4762740000000  0.5000800000000 1.0
C      1  0.4517120000000  0.4943010000000  0.4747810000000 1.0
C      1  0.4506960000000  0.5223170000000  0.4847440000000 1.0
C      1  0.4515950000000  0.5203480000000  0.5141350000000 1.0
C      1  0.4651150000000  0.4954510000000  0.5192000000000 1.0
C      1  0.5146210000000  0.5593460000000  0.4753840000000 1.0
C      1  0.5263930000000  0.5423580000000  0.5503670000000 1.0
C      1  0.5141430000000  0.4677480000000  0.5557370000000 1.0
C      1  0.5149130000000  0.4371520000000  0.4869550000000 1.0
C      1  0.5147650000000  0.4934730000000  0.4359440000000 1.0
C      1  0.4832770000000  0.5593470000000  0.4753830000000 1.0
C      1  0.4714980000000  0.5423600000000  0.5503650000000 1.0
C      1  0.4837410000000  0.4677490000000  0.5557360000000 1.0
C      1  0.4829750000000  0.4371530000000  0.4869530000000 1.0
C      1  0.4831320000000  0.4934740000000  0.4359420000000 1.0
C      1  0.4733310000000  0.4528810000000  0.5803640000000 1.0
C      1  0.4733750000000  0.4089250000000  0.4805550000000 1.0
C      1  0.4732080000000  0.4907020000000  0.4070330000000 1.0
C      1  0.4742370000000  0.5865410000000  0.4632690000000 1.0
C      1  0.4701860000000  0.5624760000000  0.5699200000000 1.0
C      1  0.5245500000000  0.4528790000000  0.5803670000000 1.0
C      1  0.5245110000000  0.4089230000000  0.4805570000000 1.0
C      1  0.5246910000000  0.4907000000000  0.4070350000000 1.0
C      1  0.5236640000000  0.5865400000000  0.4632710000000 1.0
C      1  0.5277040000000  0.5624740000000  0.5699220000000 1.0
C      1  0.4864850000000  0.5002270000000  0.5017190000000 1.0
C      1  0.5114060000000  0.5002260000000  0.5017200000000 1.0
C      1  0.5886550000000  0.4924720000000  0.5111210000000 1.0
C      1  0.4092350000000  0.4924780000000  0.5111130000000 1.0
END
