TITL C-94984-961-8 259.559103956907 125000 -745.125500163021 0 0 109 (C1) n - 1
REM
REM in /rds/project/t2_vol4/rds-t2-cs072/BORA/CARBON/from-Arr/AIRSS/Generating-Clusters/GAP-ML-2020/Higher-Symm/SD-CG/HFTN-CG
REM
REM
REM
REM
REM
REM ./C.cell (b20cbc046b6831c77cfcea5457e17084)
REM AIRSS Version 0.9.1 bugfix July 2018 build 013d7b7c2542+ Fri, 06 Jul 2018 19:26:36 +0100
REM compiler GCC version 9.3.0
REM options -cpp -mtune=generic -march=x86-64 -g -O0
REM seed 1879880759 1270037869 -1697788190 2004258409 2033910087 627990990 -1062975892 -1649151460 1767465727 -158937573 1525682097 -1543715791 236143235 1038304947 -1941248534 -639438600 621840762 1577449025 765188768 -1357174388 -643582480 -971217723 1053098261 -1010631302 2023446812 1434314717 -2108628299 -621265833 -947700450 -3981668 1961070917 -1779526496 1076956969
REM
CELL 1.54180   50.00000   50.00000   50.00000   90.00000   90.00000   90.00000
LATT -1
SFAC C  
C      1  0.4946070000000  0.4522670000000  0.5657520000000 1.0
C      1  0.4711530000000  0.4704710000000  0.5524240000000 1.0
C      1  0.4433840000000  0.4603540000000  0.5385910000000 1.0
C      1  0.4327160000000  0.4702950000000  0.5092670000000 1.0
C      1  0.4359450000000  0.4566640000000  0.4819490000000 1.0
C      1  0.4616180000000  0.4672750000000  0.4598380000000 1.0
C      1  0.4911690000000  0.4554870000000  0.4214810000000 1.0
C      1  0.5447920000000  0.4534740000000  0.4440900000000 1.0
C      1  0.5622810000000  0.4705730000000  0.4632990000000 1.0
C      1  0.5781010000000  0.4636620000000  0.4877800000000 1.0
C      1  0.5636480000000  0.4639590000000  0.5157230000000 1.0
C      1  0.5245760000000  0.4654620000000  0.5588870000000 1.0
C      1  0.5016440000000  0.5332080000000  0.5333500000000 1.0
C      1  0.4751800000000  0.5456530000000  0.5447050000000 1.0
C      1  0.4534710000000  0.5334970000000  0.5278410000000 1.0
C      1  0.4431210000000  0.5446490000000  0.4990930000000 1.0
C      1  0.4547550000000  0.5309470000000  0.4745340000000 1.0
C      1  0.4731490000000  0.5449630000000  0.4520510000000 1.0
C      1  0.5030740000000  0.5482810000000  0.4441730000000 1.0
C      1  0.5303190000000  0.5332840000000  0.4513460000000 1.0
C      1  0.5519670000000  0.5463250000000  0.4706520000000 1.0
C      1  0.5559910000000  0.5315750000000  0.5001250000000 1.0
C      1  0.5508460000000  0.5443630000000  0.5304750000000 1.0
C      1  0.5247660000000  0.5467620000000  0.5466680000000 1.0
C      1  0.4859310000000  0.4812910000000  0.5978460000000 1.0
C      1  0.4310130000000  0.5011690000000  0.5687470000000 1.0
C      1  0.4027230000000  0.4885510000000  0.5415610000000 1.0
C      1  0.4041920000000  0.4963420000000  0.4737610000000 1.0
C      1  0.4225260000000  0.4825170000000  0.4407420000000 1.0
C      1  0.4821740000000  0.5021970000000  0.4047180000000 1.0
C      1  0.5258740000000  0.4823890000000  0.4053340000000 1.0
C      1  0.5636090000000  0.4903410000000  0.4201350000000 1.0
C      1  0.6063320000000  0.5033090000000  0.4778320000000 1.0
C      1  0.6059620000000  0.4875410000000  0.5163170000000 1.0
C      1  0.5610660000000  0.4998930000000  0.5720670000000 1.0
C      1  0.5297780000000  0.4969300000000  0.5988080000000 1.0
C      1  0.5239630000000  0.5062640000000  0.4604340000000 1.0
C      1  0.5429040000000  0.4918240000000  0.4739000000000 1.0
C      1  0.5445760000000  0.5051100000000  0.4977840000000 1.0
C      1  0.5414030000000  0.4851710000000  0.5167270000000 1.0
C      1  0.5242440000000  0.4872510000000  0.5382750000000 1.0
C      1  0.5033240000000  0.5053320000000  0.5367530000000 1.0
C      1  0.4827800000000  0.4877480000000  0.5285680000000 1.0
C      1  0.4624170000000  0.5068600000000  0.5206280000000 1.0
C      1  0.4452140000000  0.4954850000000  0.5031670000000 1.0
C      1  0.4644210000000  0.5058130000000  0.4857190000000 1.0
C      1  0.4822470000000  0.4852570000000  0.4755340000000 1.0
C      1  0.5005980000000  0.4944090000000  0.4564200000000 1.0
C      1  0.4498990000000  0.4799020000000  0.4347140000000 1.0
C      1  0.4983410000000  0.4776980000000  0.4075100000000 1.0
C      1  0.5455550000000  0.4668520000000  0.4197010000000 1.0
C      1  0.5777770000000  0.4895660000000  0.4432040000000 1.0
C      1  0.6028310000000  0.4764980000000  0.4890700000000 1.0
C      1  0.5848180000000  0.4805720000000  0.5327200000000 1.0
C      1  0.5420590000000  0.4783280000000  0.5807730000000 1.0
C      1  0.4945690000000  0.4552440000000  0.5943750000000 1.0
C      1  0.4666620000000  0.4862630000000  0.5781460000000 1.0
C      1  0.4239410000000  0.4749160000000  0.5559420000000 1.0
C      1  0.4053440000000  0.4842780000000  0.5150750000000 1.0
C      1  0.4150460000000  0.4701760000000  0.4664880000000 1.0
C      1  0.4937420000000  0.5262980000000  0.3978750000000 1.0
C      1  0.5425700000000  0.5066010000000  0.4078530000000 1.0
C      1  0.5894990000000  0.5125140000000  0.4576900000000 1.0
C      1  0.6067030000000  0.5142660000000  0.5048500000000 1.0
C      1  0.5777590000000  0.5034040000000  0.5503750000000 1.0
C      1  0.5437430000000  0.5190450000000  0.5850740000000 1.0
C      1  0.5027300000000  0.5039560000000  0.6018900000000 1.0
C      1  0.4550880000000  0.5116470000000  0.5771320000000 1.0
C      1  0.4110710000000  0.5146580000000  0.5516060000000 1.0
C      1  0.4013620000000  0.5083550000000  0.4983140000000 1.0
C      1  0.4140030000000  0.5088920000000  0.4493860000000 1.0
C      1  0.4597560000000  0.5039380000000  0.4213080000000 1.0
C      1  0.5492310000000  0.5738380000000  0.5248510000000 1.0
C      1  0.5239400000000  0.5766930000000  0.5392970000000 1.0
C      1  0.4999140000000  0.5887610000000  0.5376830000000 1.0
C      1  0.4748180000000  0.5758670000000  0.5384460000000 1.0
C      1  0.4516690000000  0.5819380000000  0.5247160000000 1.0
C      1  0.4455430000000  0.5741030000000  0.4989440000000 1.0
C      1  0.4555410000000  0.5862370000000  0.4751730000000 1.0
C      1  0.4731430000000  0.5745310000000  0.4586760000000 1.0
C      1  0.5020740000000  0.5765420000000  0.4539230000000 1.0
C      1  0.5237210000000  0.5881370000000  0.4648530000000 1.0
C      1  0.5460820000000  0.5759340000000  0.4765330000000 1.0
C      1  0.5575470000000  0.5836700000000  0.5011180000000 1.0
C      1  0.4521310000000  0.4331480000000  0.5325010000000 1.0
C      1  0.4613550000000  0.4227970000000  0.5076930000000 1.0
C      1  0.4547400000000  0.4318670000000  0.4815580000000 1.0
C      1  0.4712630000000  0.4391590000000  0.4587220000000 1.0
C      1  0.4953200000000  0.4388250000000  0.4427290000000 1.0
C      1  0.5233540000000  0.4359840000000  0.4528380000000 1.0
C      1  0.5283480000000  0.4236450000000  0.4770530000000 1.0
C      1  0.5386810000000  0.4251430000000  0.4997450000000 1.0
C      1  0.5469430000000  0.4385700000000  0.5222250000000 1.0
C      1  0.5282190000000  0.4400500000000  0.5432170000000 1.0
C      1  0.5012950000000  0.4302460000000  0.5463830000000 1.0
C      1  0.4781640000000  0.4224100000000  0.5312070000000 1.0
C      1  0.4336940000000  0.5282310000000  0.4522860000000 1.0
C      1  0.4542310000000  0.5295370000000  0.4328480000000 1.0
C      1  0.5089800000000  0.5408180000000  0.4145700000000 1.0
C      1  0.5349450000000  0.5306090000000  0.4205350000000 1.0
C      1  0.5758380000000  0.5354080000000  0.4586310000000 1.0
C      1  0.5852780000000  0.5305610000000  0.5107640000000 1.0
C      1  0.5760350000000  0.5294410000000  0.5378140000000 1.0
C      1  0.5236180000000  0.5367360000000  0.5752020000000 1.0
C      1  0.4984330000000  0.5281770000000  0.5863380000000 1.0
C      1  0.4734790000000  0.5332020000000  0.5730010000000 1.0
C      1  0.4233280000000  0.5324200000000  0.5342750000000 1.0
C      1  0.4148070000000  0.5328590000000  0.5072660000000 1.0
C      1  0.4935750000000  0.4729060000000  0.5024590000000 1.0
END
