TITL C-94983-573-5 0.321909010068995 125000 -704.18977227558 0 0 100 (C1) n - 1
REM
REM in /rds/project/t2_vol4/rds-t2-cs072/BORA/CARBON/from-Arr/AIRSS/Generating-Clusters/GAP-ML-2020/Higher-Symm/SD-CG/HFTN-CG
REM
REM
REM
REM
REM
REM ./C.cell (b20cbc046b6831c77cfcea5457e17084)
REM AIRSS Version 0.9.1 bugfix July 2018 build 013d7b7c2542+ Fri, 06 Jul 2018 19:26:36 +0100
REM compiler GCC version 9.3.0
REM options -cpp -mtune=generic -march=x86-64 -g -O0
REM seed -578171578 132844710 1028763232 628381259 -1131663761 196857722 -615935846 1922194680 -1178052749 -237876678 -1026638957 -266583622 625521390 2013316021 321456801 -1029545773 -186366033 -2040897109 -1110305141 1734640437 -374096576 -799345041 1123915941 729723904 1342853484 1782732044 1041534108 -1301149968 -560710325 1173743547 524247057 584133094 -1565540481
REM
CELL 1.54180   50.00000   50.00000   50.00000   90.00000   90.00000   90.00000
LATT -1
SFAC C  
C      1  0.5770360000000  0.5159060000000  0.4401440000000 1.0
C      1  0.5641510000000  0.4463030000000  0.5641060000000 1.0
C      1  0.4395140000000  0.5654970000000  0.5328230000000 1.0
C      1  0.4426030000000  0.4513100000000  0.4520370000000 1.0
C      1  0.4269640000000  0.5341860000000  0.4663580000000 1.0
C      1  0.5276950000000  0.4315180000000  0.4984390000000 1.0
C      1  0.5927430000000  0.5009270000000  0.4585050000000 1.0
C      1  0.5113830000000  0.4879920000000  0.4202080000000 1.0
C      1  0.4721200000000  0.5378120000000  0.5109050000000 1.0
C      1  0.4848870000000  0.4959380000000  0.4115950000000 1.0
C      1  0.4917930000000  0.4268190000000  0.4560790000000 1.0
C      1  0.4896090000000  0.4473660000000  0.4384440000000 1.0
C      1  0.5617230000000  0.4431460000000  0.5368720000000 1.0
C      1  0.4451780000000  0.5490100000000  0.4501860000000 1.0
C      1  0.5542240000000  0.4303610000000  0.5129500000000 1.0
C      1  0.4626140000000  0.4586600000000  0.4346900000000 1.0
C      1  0.5039060000000  0.4150600000000  0.5018770000000 1.0
C      1  0.5462930000000  0.5161480000000  0.5609550000000 1.0
C      1  0.5228410000000  0.5811130000000  0.5231240000000 1.0
C      1  0.5172190000000  0.4616850000000  0.5035520000000 1.0
C      1  0.4631300000000  0.5676480000000  0.4612080000000 1.0
C      1  0.4649300000000  0.5671350000000  0.5467930000000 1.0
C      1  0.4608080000000  0.4847080000000  0.4237150000000 1.0
C      1  0.5070230000000  0.5602380000000  0.4813340000000 1.0
C      1  0.4990990000000  0.4438700000000  0.5705580000000 1.0
C      1  0.5720030000000  0.4959110000000  0.5278610000000 1.0
C      1  0.4251490000000  0.5384640000000  0.4936790000000 1.0
C      1  0.5605180000000  0.4723670000000  0.4420050000000 1.0
C      1  0.4642830000000  0.5118530000000  0.5197660000000 1.0
C      1  0.4842670000000  0.4192940000000  0.4800800000000 1.0
C      1  0.4354210000000  0.4715750000000  0.5241410000000 1.0
C      1  0.4561570000000  0.4556020000000  0.5382440000000 1.0
C      1  0.5222570000000  0.5023100000000  0.4784610000000 1.0
C      1  0.4933670000000  0.5085330000000  0.4730820000000 1.0
C      1  0.4221670000000  0.5126380000000  0.5055910000000 1.0
C      1  0.5439810000000  0.4367020000000  0.4724150000000 1.0
C      1  0.4636800000000  0.5509120000000  0.5699030000000 1.0
C      1  0.5254110000000  0.5371420000000  0.4323190000000 1.0
C      1  0.4992620000000  0.5765150000000  0.5080770000000 1.0
C      1  0.4443170000000  0.5572690000000  0.5049810000000 1.0
C      1  0.4891200000000  0.5389330000000  0.5731170000000 1.0
C      1  0.4383600000000  0.5361110000000  0.5667630000000 1.0
C      1  0.4887000000000  0.4226740000000  0.5250640000000 1.0
C      1  0.5671290000000  0.4415310000000  0.4891580000000 1.0
C      1  0.4765790000000  0.5913980000000  0.5001530000000 1.0
C      1  0.5364760000000  0.5587120000000  0.4772870000000 1.0
C      1  0.4871210000000  0.4690790000000  0.5023740000000 1.0
C      1  0.5853990000000  0.4908250000000  0.5032950000000 1.0
C      1  0.4591800000000  0.4304700000000  0.4910170000000 1.0
C      1  0.5568010000000  0.4986790000000  0.4295790000000 1.0
C      1  0.5438580000000  0.5494830000000  0.4511760000000 1.0
C      1  0.4788660000000  0.5346070000000  0.4177080000000 1.0
C      1  0.4802300000000  0.4853110000000  0.4799300000000 1.0
C      1  0.5135200000000  0.4628570000000  0.4337660000000 1.0
C      1  0.4867370000000  0.5568280000000  0.5303410000000 1.0
C      1  0.5777650000000  0.5383790000000  0.4811900000000 1.0
C      1  0.4648510000000  0.4941680000000  0.5706120000000 1.0
C      1  0.4877290000000  0.4243220000000  0.5527330000000 1.0
C      1  0.4845360000000  0.4921860000000  0.5229190000000 1.0
C      1  0.4211840000000  0.4929710000000  0.4852540000000 1.0
C      1  0.5311540000000  0.5091600000000  0.4234610000000 1.0
C      1  0.5075800000000  0.5454750000000  0.5498670000000 1.0
C      1  0.4279990000000  0.4671920000000  0.4967130000000 1.0
C      1  0.5191750000000  0.5171810000000  0.5026670000000 1.0
C      1  0.5120550000000  0.4941240000000  0.5726520000000 1.0
C      1  0.5825900000000  0.4654260000000  0.4866110000000 1.0
C      1  0.5700270000000  0.5397400000000  0.4532430000000 1.0
C      1  0.5128300000000  0.5015540000000  0.5253230000000 1.0
C      1  0.4264510000000  0.5064070000000  0.4592850000000 1.0
C      1  0.4570110000000  0.5771140000000  0.4873870000000 1.0
C      1  0.5635390000000  0.5211960000000  0.5391130000000 1.0
C      1  0.4420020000000  0.5094330000000  0.5581290000000 1.0
C      1  0.4946790000000  0.5330510000000  0.4915460000000 1.0
C      1  0.5240310000000  0.4740310000000  0.5306510000000 1.0
C      1  0.4613360000000  0.4363860000000  0.5611590000000 1.0
C      1  0.4911810000000  0.5642380000000  0.4552860000000 1.0
C      1  0.5553680000000  0.4719770000000  0.5680950000000 1.0
C      1  0.4536180000000  0.5310170000000  0.4307320000000 1.0
C      1  0.4222940000000  0.5520990000000  0.5494420000000 1.0
C      1  0.4371570000000  0.5016020000000  0.5293210000000 1.0
C      1  0.4896560000000  0.5107210000000  0.5789540000000 1.0
C      1  0.5417050000000  0.4936120000000  0.5784060000000 1.0
C      1  0.4728670000000  0.4499030000000  0.5839400000000 1.0
C      1  0.5288940000000  0.4756030000000  0.4804430000000 1.0
C      1  0.4700950000000  0.4428470000000  0.5148000000000 1.0
C      1  0.4431860000000  0.5047020000000  0.4348540000000 1.0
C      1  0.5178820000000  0.5169120000000  0.5504920000000 1.0
C      1  0.5913680000000  0.5125300000000  0.4844210000000 1.0
C      1  0.4396200000000  0.4467870000000  0.4784460000000 1.0
C      1  0.5578270000000  0.5514100000000  0.4969570000000 1.0
C      1  0.4993740000000  0.5483160000000  0.4330590000000 1.0
C      1  0.5835010000000  0.4740270000000  0.4591310000000 1.0
C      1  0.5364950000000  0.4594490000000  0.4537580000000 1.0
C      1  0.5323610000000  0.5601810000000  0.5378160000000 1.0
C      1  0.4775800000000  0.4771660000000  0.5471210000000 1.0
C      1  0.5543680000000  0.5457070000000  0.5258340000000 1.0
C      1  0.5050810000000  0.4692360000000  0.5566910000000 1.0
C      1  0.5538130000000  0.4735690000000  0.5366910000000 1.0
C      1  0.4833510000000  0.5187770000000  0.3951650000000 1.0
C      1  0.4630350000000  0.4731800000000  0.5908400000000 1.0
END
