TITL C-94989-3707-2 0.0385735327326621 125000 -614.291317914661 0 0 89 (C1) n - 1
REM
REM in /rds/project/t2_vol4/rds-t2-cs072/BORA/CARBON/from-Arr/AIRSS/Generating-Clusters/GAP-ML-2020/Higher-Symm/SD-CG/HFTN-CG
REM
REM
REM
REM
REM
REM ./C.cell (b20cbc046b6831c77cfcea5457e17084)
REM AIRSS Version 0.9.1 bugfix July 2018 build 013d7b7c2542+ Fri, 06 Jul 2018 19:26:36 +0100
REM compiler GCC version 9.3.0
REM options -cpp -mtune=generic -march=x86-64 -g -O0
REM seed -1878069195 -2013908402 -1781067168 -1100648571 1257784847 977102528 875339276 -786216842 1360981257 358883895 -1891508427 1442584917 1753810247 -391049471 1626463660 -1491449809 -491498417 836075112 -1405022014 253591231 -1554802194 2052609389 -706453116 -138237393 -1665754656 887923603 -1115684217 1893372934 1066826017 -2107845655 -136192858 557114838 1878046621
REM
CELL 1.54180   50.00000   50.00000   50.00000   90.00000   90.00000   90.00000
LATT -1
SFAC C  
C      1  0.4857240000000  0.5273590000000  0.4245860000000 1.0
C      1  0.4833000000000  0.5274590000000  0.5754110000000 1.0
C      1  0.5239190000000  0.5150650000000  0.4603890000000 1.0
C      1  0.5107610000000  0.5130600000000  0.5296600000000 1.0
C      1  0.4219900000000  0.4822570000000  0.4763610000000 1.0
C      1  0.4197900000000  0.4820280000000  0.5297340000000 1.0
C      1  0.6117690000000  0.4915380000000  0.4967540000000 1.0
C      1  0.6122570000000  0.5003120000000  0.4723770000000 1.0
C      1  0.4327110000000  0.5310350000000  0.5199150000000 1.0
C      1  0.4269560000000  0.5393520000000  0.4720920000000 1.0
C      1  0.4905520000000  0.4549160000000  0.4318420000000 1.0
C      1  0.4896630000000  0.4561250000000  0.5679700000000 1.0
C      1  0.5496410000000  0.4603380000000  0.5247760000000 1.0
C      1  0.5519220000000  0.4594530000000  0.4727950000000 1.0
C      1  0.5327330000000  0.4694580000000  0.4532190000000 1.0
C      1  0.5271630000000  0.4703030000000  0.5427040000000 1.0
C      1  0.5891210000000  0.4929390000000  0.4564970000000 1.0
C      1  0.5765170000000  0.4980920000000  0.5414510000000 1.0
C      1  0.4367270000000  0.4660990000000  0.5479470000000 1.0
C      1  0.4389520000000  0.4673040000000  0.4577580000000 1.0
C      1  0.5393130000000  0.5098700000000  0.5730060000000 1.0
C      1  0.5560830000000  0.5199460000000  0.4268800000000 1.0
C      1  0.4578810000000  0.5314190000000  0.5620810000000 1.0
C      1  0.4600220000000  0.5313210000000  0.4375980000000 1.0
C      1  0.5163900000000  0.4658160000000  0.5702120000000 1.0
C      1  0.5173740000000  0.4632630000000  0.4278710000000 1.0
C      1  0.5771750000000  0.4706250000000  0.4741920000000 1.0
C      1  0.5742340000000  0.4736460000000  0.5244500000000 1.0
C      1  0.4732530000000  0.4772400000000  0.5785910000000 1.0
C      1  0.4736210000000  0.4769560000000  0.4231620000000 1.0
C      1  0.4972230000000  0.4263900000000  0.5207760000000 1.0
C      1  0.4980090000000  0.4263850000000  0.4785580000000 1.0
C      1  0.5298930000000  0.4991990000000  0.5454560000000 1.0
C      1  0.5361230000000  0.5001150000000  0.4374370000000 1.0
C      1  0.5167240000000  0.4897430000000  0.4180550000000 1.0
C      1  0.5173020000000  0.4915520000000  0.5834730000000 1.0
C      1  0.4507500000000  0.5495060000000  0.4577870000000 1.0
C      1  0.4526890000000  0.5460600000000  0.5380820000000 1.0
C      1  0.5786770000000  0.5093440000000  0.4370450000000 1.0
C      1  0.5658140000000  0.5013140000000  0.5664960000000 1.0
C      1  0.5141000000000  0.5447890000000  0.4617780000000 1.0
C      1  0.5108550000000  0.5435930000000  0.5343080000000 1.0
C      1  0.4472110000000  0.4827750000000  0.5688940000000 1.0
C      1  0.4493150000000  0.4824310000000  0.4359220000000 1.0
C      1  0.5328490000000  0.5381020000000  0.5686360000000 1.0
C      1  0.5394410000000  0.5445640000000  0.4291730000000 1.0
C      1  0.4302760000000  0.5101210000000  0.4710350000000 1.0
C      1  0.4229630000000  0.5094010000000  0.5382050000000 1.0
C      1  0.5002790000000  0.4690460000000  0.5264750000000 1.0
C      1  0.5065630000000  0.4722080000000  0.4699140000000 1.0
C      1  0.4684260000000  0.5620840000000  0.4760590000000 1.0
C      1  0.4687990000000  0.5639300000000  0.5221350000000 1.0
C      1  0.4828690000000  0.4460250000000  0.5389450000000 1.0
C      1  0.4869980000000  0.4486710000000  0.4609580000000 1.0
C      1  0.5090670000000  0.5421090000000  0.4323670000000 1.0
C      1  0.5046970000000  0.5417900000000  0.5646560000000 1.0
C      1  0.4903200000000  0.4997260000000  0.4154170000000 1.0
C      1  0.4903430000000  0.5006680000000  0.5853470000000 1.0
C      1  0.4983090000000  0.4992850000000  0.4635890000000 1.0
C      1  0.4855120000000  0.4960100000000  0.5291500000000 1.0
C      1  0.4390430000000  0.5095250000000  0.5621990000000 1.0
C      1  0.4438800000000  0.5087800000000  0.4436940000000 1.0
C      1  0.4603570000000  0.4553070000000  0.4708640000000 1.0
C      1  0.4530480000000  0.4481680000000  0.5341040000000 1.0
C      1  0.5402040000000  0.5477680000000  0.5425260000000 1.0
C      1  0.5411560000000  0.5582850000000  0.4555890000000 1.0
C      1  0.4926880000000  0.5461980000000  0.4848090000000 1.0
C      1  0.4951680000000  0.5577530000000  0.5138500000000 1.0
C      1  0.5626000000000  0.5465250000000  0.5267030000000 1.0
C      1  0.5591430000000  0.5658070000000  0.4744600000000 1.0
C      1  0.5399060000000  0.5107000000000  0.4858800000000 1.0
C      1  0.5729450000000  0.5199440000000  0.5237860000000 1.0
C      1  0.4902160000000  0.5128220000000  0.4873260000000 1.0
C      1  0.4642800000000  0.4683490000000  0.4950960000000 1.0
C      1  0.5180930000000  0.4309070000000  0.4996700000000 1.0
C      1  0.5181960000000  0.5037350000000  0.5025940000000 1.0
C      1  0.4548100000000  0.5722230000000  0.4989430000000 1.0
C      1  0.5642020000000  0.5216680000000  0.4958840000000 1.0
C      1  0.4281750000000  0.5765240000000  0.5007390000000 1.0
C      1  0.5642580000000  0.5509000000000  0.4967440000000 1.0
C      1  0.4214340000000  0.5507740000000  0.4984540000000 1.0
C      1  0.4825500000000  0.4151790000000  0.4992650000000 1.0
C      1  0.4216260000000  0.4711980000000  0.5032920000000 1.0
C      1  0.4434960000000  0.4532040000000  0.5075580000000 1.0
C      1  0.5375180000000  0.4530540000000  0.4988930000000 1.0
C      1  0.5893310000000  0.4739550000000  0.5005270000000 1.0
C      1  0.4465090000000  0.5145100000000  0.4984140000000 1.0
C      1  0.5140240000000  0.4729740000000  0.4993160000000 1.0
C      1  0.4703380000000  0.4986680000000  0.5035230000000 1.0
END
