TITL C-94981-562-7 118.942904240056 125000 -786.881104038642 0 0 117 (C1) n - 1
REM
REM in /rds/project/t2_vol4/rds-t2-cs072/BORA/CARBON/from-Arr/AIRSS/Generating-Clusters/GAP-ML-2020/Higher-Symm/SD-CG/HFTN-CG
REM
REM
REM
REM
REM
REM ./C.cell (b20cbc046b6831c77cfcea5457e17084)
REM AIRSS Version 0.9.1 bugfix July 2018 build 013d7b7c2542+ Fri, 06 Jul 2018 19:26:36 +0100
REM compiler GCC version 9.3.0
REM options -cpp -mtune=generic -march=x86-64 -g -O0
REM seed -727606453 414459775 -563286979 -794278082 -1055693706 -1912460156 101189861 512087733 -1545693866 544021567 1332451958 1258730006 -1336453741 1064691661 -817852267 1317075926 -1104148220 -603139142 -195445562 824090066 -1507550615 -1610914136 289470081 -1184277644 1491092125 191100975 903520514 -256429664 -1709240866 -1814510684 302238753 1364939542 1052850337
REM
CELL 1.54180   50.00000   50.00000   50.00000   90.00000   90.00000   90.00000
LATT -1
SFAC C  
C      1  0.4871740000000  0.5245760000000  0.4018060000000 1.0
C      1  0.4647060000000  0.5125180000000  0.3924580000000 1.0
C      1  0.4787820000000  0.4904290000000  0.4008300000000 1.0
C      1  0.5053940000000  0.4873310000000  0.4091940000000 1.0
C      1  0.5115300000000  0.5165080000000  0.4125320000000 1.0
C      1  0.5129960000000  0.5234140000000  0.5453930000000 1.0
C      1  0.4818760000000  0.5196030000000  0.5449110000000 1.0
C      1  0.4767560000000  0.4892310000000  0.5442200000000 1.0
C      1  0.5046570000000  0.4747240000000  0.5438820000000 1.0
C      1  0.5273000000000  0.4954930000000  0.5450830000000 1.0
C      1  0.5613150000000  0.4434640000000  0.5021990000000 1.0
C      1  0.5711780000000  0.5380210000000  0.5001050000000 1.0
C      1  0.4840610000000  0.5798070000000  0.5005710000000 1.0
C      1  0.4180290000000  0.5099170000000  0.5010630000000 1.0
C      1  0.4681390000000  0.4300940000000  0.4983190000000 1.0
C      1  0.5124700000000  0.5140600000000  0.4416390000000 1.0
C      1  0.4916340000000  0.5286100000000  0.4555350000000 1.0
C      1  0.4683400000000  0.5077770000000  0.4555340000000 1.0
C      1  0.4810970000000  0.4787960000000  0.4526930000000 1.0
C      1  0.5310290000000  0.4692650000000  0.4499040000000 1.0
C      1  0.5961430000000  0.4987210000000  0.5320940000000 1.0
C      1  0.5299110000000  0.5893090000000  0.5274720000000 1.0
C      1  0.4227360000000  0.5559980000000  0.5296790000000 1.0
C      1  0.4243380000000  0.4443900000000  0.5279650000000 1.0
C      1  0.5290290000000  0.4104890000000  0.5297400000000 1.0
C      1  0.4964440000000  0.4563670000000  0.5692340000000 1.0
C      1  0.5414040000000  0.4826990000000  0.5712510000000 1.0
C      1  0.5293840000000  0.5338880000000  0.5710470000000 1.0
C      1  0.4769060000000  0.5389210000000  0.5709060000000 1.0
C      1  0.4565690000000  0.4899890000000  0.5700640000000 1.0
C      1  0.5274730000000  0.5475440000000  0.4879430000000 1.0
C      1  0.4577590000000  0.5454500000000  0.4874460000000 1.0
C      1  0.4449890000000  0.4763710000000  0.4858970000000 1.0
C      1  0.5085050000000  0.4426280000000  0.4849420000000 1.0
C      1  0.5634170000000  0.4864850000000  0.4869830000000 1.0
C      1  0.5169950000000  0.5185500000000  0.5916340000000 1.0
C      1  0.4876750000000  0.5223460000000  0.5913810000000 1.0
C      1  0.4752030000000  0.4955350000000  0.5909380000000 1.0
C      1  0.4967480000000  0.4755250000000  0.5905820000000 1.0
C      1  0.5224160000000  0.4896360000000  0.5914390000000 1.0
C      1  0.5276860000000  0.5634690000000  0.4594070000000 1.0
C      1  0.4413500000000  0.5504300000000  0.4605020000000 1.0
C      1  0.4346580000000  0.4625170000000  0.4585150000000 1.0
C      1  0.5208420000000  0.4249200000000  0.4593500000000 1.0
C      1  0.5839350000000  0.4891050000000  0.4608260000000 1.0
C      1  0.5400040000000  0.4430570000000  0.4456650000000 1.0
C      1  0.5762180000000  0.5104690000000  0.4427570000000 1.0
C      1  0.5003410000000  0.5573330000000  0.4479000000000 1.0
C      1  0.4426100000000  0.5221930000000  0.4474370000000 1.0
C      1  0.4616060000000  0.4574150000000  0.4449530000000 1.0
C      1  0.5527200000000  0.5554630000000  0.4482770000000 1.0
C      1  0.4551050000000  0.5734860000000  0.4510120000000 1.0
C      1  0.4163080000000  0.4822880000000  0.4501410000000 1.0
C      1  0.4948580000000  0.4194810000000  0.4490980000000 1.0
C      1  0.5848550000000  0.4614240000000  0.4546210000000 1.0
C      1  0.5228840000000  0.5895680000000  0.4761980000000 1.0
C      1  0.4165950000000  0.5509010000000  0.4786030000000 1.0
C      1  0.4279440000000  0.4386570000000  0.4762950000000 1.0
C      1  0.5380730000000  0.4096010000000  0.4793530000000 1.0
C      1  0.6001620000000  0.5056600000000  0.4813390000000 1.0
C      1  0.5022620000000  0.5535160000000  0.5029330000000 1.0
C      1  0.4480530000000  0.5209800000000  0.5029020000000 1.0
C      1  0.4677290000000  0.4621590000000  0.4999140000000 1.0
C      1  0.5316500000000  0.4539820000000  0.5006940000000 1.0
C      1  0.5548600000000  0.5114300000000  0.5032200000000 1.0
C      1  0.4559710000000  0.5694140000000  0.5053830000000 1.0
C      1  0.4214540000000  0.4800640000000  0.5042580000000 1.0
C      1  0.4959770000000  0.4216610000000  0.5034410000000 1.0
C      1  0.5777220000000  0.4686170000000  0.5067310000000 1.0
C      1  0.5507920000000  0.5594340000000  0.5041260000000 1.0
C      1  0.4133840000000  0.5146470000000  0.5548390000000 1.0
C      1  0.4591560000000  0.4227590000000  0.5545510000000 1.0
C      1  0.5616500000000  0.4358600000000  0.5587120000000 1.0
C      1  0.5788220000000  0.5384580000000  0.5558680000000 1.0
C      1  0.4874720000000  0.5875070000000  0.5544830000000 1.0
C      1  0.4815450000000  0.5789170000000  0.4533530000000 1.0
C      1  0.4173000000000  0.5089720000000  0.4539560000000 1.0
C      1  0.4699970000000  0.4302070000000  0.4512750000000 1.0
C      1  0.5672170000000  0.4409700000000  0.4561620000000 1.0
C      1  0.5715800000000  0.5358990000000  0.4519050000000 1.0
C      1  0.4606370000000  0.5305120000000  0.5281980000000 1.0
C      1  0.4606980000000  0.4736650000000  0.5262390000000 1.0
C      1  0.5152790000000  0.4543580000000  0.5260290000000 1.0
C      1  0.5510630000000  0.4969940000000  0.5285470000000 1.0
C      1  0.5150400000000  0.5469400000000  0.5289720000000 1.0
C      1  0.4860060000000  0.5371860000000  0.4847620000000 1.0
C      1  0.4588320000000  0.5017020000000  0.4839560000000 1.0
C      1  0.4917240000000  0.4698220000000  0.4823400000000 1.0
C      1  0.5364300000000  0.4757700000000  0.4799440000000 1.0
C      1  0.5296630000000  0.5176040000000  0.4903000000000 1.0
C      1  0.4075870000000  0.5386320000000  0.5464340000000 1.0
C      1  0.4350240000000  0.4242940000000  0.5450470000000 1.0
C      1  0.5509430000000  0.4150630000000  0.5474210000000 1.0
C      1  0.5975520000000  0.5224240000000  0.5477150000000 1.0
C      1  0.5084310000000  0.5986930000000  0.5437630000000 1.0
C      1  0.4707040000000  0.5652690000000  0.5588450000000 1.0
C      1  0.4298730000000  0.4923180000000  0.5578730000000 1.0
C      1  0.4855250000000  0.4321850000000  0.5568670000000 1.0
C      1  0.5617130000000  0.4641430000000  0.5603800000000 1.0
C      1  0.5524190000000  0.5473890000000  0.5587110000000 1.0
C      1  0.5405250000000  0.5609030000000  0.5330490000000 1.0
C      1  0.4533350000000  0.5584260000000  0.5336750000000 1.0
C      1  0.4317780000000  0.4740070000000  0.5322650000000 1.0
C      1  0.5041670000000  0.4279520000000  0.5321780000000 1.0
C      1  0.5728640000000  0.4789530000000  0.5352750000000 1.0
C      1  0.5629920000000  0.4254800000000  0.4804310000000 1.0
C      1  0.5876320000000  0.5323740000000  0.4780800000000 1.0
C      1  0.4939240000000  0.5917370000000  0.4764270000000 1.0
C      1  0.4081450000000  0.5230860000000  0.4777300000000 1.0
C      1  0.4530370000000  0.4240960000000  0.4750300000000 1.0
C      1  0.6010180000000  0.4911330000000  0.5055880000000 1.0
C      1  0.5381200000000  0.5879770000000  0.5003750000000 1.0
C      1  0.4235950000000  0.5644910000000  0.5029980000000 1.0
C      1  0.4168850000000  0.4485610000000  0.5010460000000 1.0
C      1  0.5230230000000  0.4049320000000  0.5027150000000 1.0
C      1  0.5077860000000  0.4825650000000  0.4384080000000 1.0
C      1  0.5141960000000  0.4934260000000  0.4865360000000 1.0
END
