TITL C-94992-824-107 -70.7510216631887 125000 -55.6301614790306 0 0 9 (Cs) n - 1
REM
REM in /rds/project/t2_vol4/rds-t2-cs072/BORA/CARBON/from-Arr/AIRSS/Generating-Clusters/GAP-ML-2020/Higher-Symm/SD-CG/HFTN-CG
REM
REM
REM
REM
REM
REM ./C.cell (b20cbc046b6831c77cfcea5457e17084)
REM AIRSS Version 0.9.1 bugfix July 2018 build 013d7b7c2542+ Fri, 06 Jul 2018 19:26:36 +0100
REM compiler GCC version 9.3.0
REM options -cpp -mtune=generic -march=x86-64 -g -O0
REM seed -1245502985 -1852036423 1292748222 1019113764 -1920786174 127528285 1790938291 -2002793905 393590306 1752237233 -1397324616 -743568388 622479659 -476159442 -1981038368 1852496923 -1214697090 1569525012 -520067754 -179838386 -935503112 -267916563 263736627 803406957 1319653078 1169613278 -353087684 -602377592 -529404003 592268501 -1681655686 1237697396 808588247
REM
CELL 1.54180   50.00000   50.00000   50.00000   90.00000   90.00000   90.00000
LATT -1
SFAC C  
C      1  0.4841850000000  0.4668290000000  0.5087140000000 1.0
C      1  0.5058970000000  0.4699800000000  0.4950720000000 1.0
C      1  0.5118790000000  0.5247330000000  0.4863660000000 1.0
C      1  0.4758250000000  0.5193540000000  0.5111770000000 1.0
C      1  0.4917880000000  0.5364150000000  0.4976490000000 1.0
C      1  0.4726370000000  0.4901760000000  0.5158160000000 1.0
C      1  0.5256850000000  0.4808450000000  0.4829210000000 1.0
C      1  0.4516100000000  0.5078670000000  0.5174580000000 1.0
C      1  0.5285160000000  0.5067530000000  0.4788010000000 1.0
END
