TITL C-94987-1439-4 74.6185482098005 125000 -726.621564055774 0 0 106 (C3) n - 1
REM
REM in /rds/project/t2_vol4/rds-t2-cs072/BORA/CARBON/from-Arr/AIRSS/Generating-Clusters/GAP-ML-2020/Higher-Symm/SD-CG/HFTN-CG
REM
REM
REM
REM
REM
REM ./C.cell (b20cbc046b6831c77cfcea5457e17084)
REM AIRSS Version 0.9.1 bugfix July 2018 build 013d7b7c2542+ Fri, 06 Jul 2018 19:26:36 +0100
REM compiler GCC version 9.3.0
REM options -cpp -mtune=generic -march=x86-64 -g -O0
REM seed -556956151 -1466011132 1424462141 663835814 -1099107151 -307893013 -1184670641 -704256412 -1363117308 -1459342782 192177601 -1073738136 -1352171622 -38166242 1677846860 760941080 -1535487203 -118150159 -311434511 15839844 -12661222 836651382 -1192515031 405560625 -558929521 148488159 1332507825 -66334540 -1910991190 -924908608 -1230332075 717100288 565520185
REM
CELL 1.54180   50.00000   50.00000   50.00000   90.00000   90.00000   90.00000
LATT -1
SFAC C  
C      1  0.5565000000000  0.4819790000000  0.4354410000000 1.0
C      1  0.5262780000000  0.4820130000000  0.5816170000000 1.0
C      1  0.4148160000000  0.4842580000000  0.4823600000000 1.0
C      1  0.4398880000000  0.5004380000000  0.4220880000000 1.0
C      1  0.5966220000000  0.4975280000000  0.4871270000000 1.0
C      1  0.4619300000000  0.4995000000000  0.5903660000000 1.0
C      1  0.4625070000000  0.5801620000000  0.5335950000000 1.0
C      1  0.4910630000000  0.5799480000000  0.4501740000000 1.0
C      1  0.5490180000000  0.5787320000000  0.5166140000000 1.0
C      1  0.5482730000000  0.4464940000000  0.4632750000000 1.0
C      1  0.5052730000000  0.4469090000000  0.5609280000000 1.0
C      1  0.4422170000000  0.4482780000000  0.4748620000000 1.0
C      1  0.4581140000000  0.5447680000000  0.4449190000000 1.0
C      1  0.5690200000000  0.5427090000000  0.4910570000000 1.0
C      1  0.4736110000000  0.5441060000000  0.5640510000000 1.0
C      1  0.4499870000000  0.5807540000000  0.5099580000000 1.0
C      1  0.5177990000000  0.5797840000000  0.4511440000000 1.0
C      1  0.5348170000000  0.5791990000000  0.5392840000000 1.0
C      1  0.4793440000000  0.5396290000000  0.4686670000000 1.0
C      1  0.5377060000000  0.5385300000000  0.4976190000000 1.0
C      1  0.4834520000000  0.5393420000000  0.5336950000000 1.0
C      1  0.4592710000000  0.4546190000000  0.4333020000000 1.0
C      1  0.5759180000000  0.4523970000000  0.4987600000000 1.0
C      1  0.4609090000000  0.4541460000000  0.5670670000000 1.0
C      1  0.4856100000000  0.4249490000000  0.4587920000000 1.0
C      1  0.5398410000000  0.4238500000000  0.5091180000000 1.0
C      1  0.4691450000000  0.4249920000000  0.5309290000000 1.0
C      1  0.4442590000000  0.4390940000000  0.5267370000000 1.0
C      1  0.5020760000000  0.4383910000000  0.4391970000000 1.0
C      1  0.5489660000000  0.4372740000000  0.5330410000000 1.0
C      1  0.5377500000000  0.5716850000000  0.4672420000000 1.0
C      1  0.5106810000000  0.5718800000000  0.5485930000000 1.0
C      1  0.4537750000000  0.5730710000000  0.4844750000000 1.0
C      1  0.4809710000000  0.5678880000000  0.4754640000000 1.0
C      1  0.5318180000000  0.5669480000000  0.4953500000000 1.0
C      1  0.4891730000000  0.5675680000000  0.5294490000000 1.0
C      1  0.5002390000000  0.4768820000000  0.5666400000000 1.0
C      1  0.4406450000000  0.4782360000000  0.4673490000000 1.0
C      1  0.5564210000000  0.4762530000000  0.4653730000000 1.0
C      1  0.4569960000000  0.5200990000000  0.5726250000000 1.0
C      1  0.4583030000000  0.5205620000000  0.4264820000000 1.0
C      1  0.5841950000000  0.5181520000000  0.5006790000000 1.0
C      1  0.5713630000000  0.4547460000000  0.5263070000000 1.0
C      1  0.4394010000000  0.4569380000000  0.5493260000000 1.0
C      1  0.4854560000000  0.4565640000000  0.4235200000000 1.0
C      1  0.4884940000000  0.4991250000000  0.4535380000000 1.0
C      1  0.5450740000000  0.4979530000000  0.5135080000000 1.0
C      1  0.4648530000000  0.4992690000000  0.5325320000000 1.0
C      1  0.4243270000000  0.4826460000000  0.5513110000000 1.0
C      1  0.4920040000000  0.4819550000000  0.4092190000000 1.0
C      1  0.5812010000000  0.4799910000000  0.5388760000000 1.0
C      1  0.5093140000000  0.4828510000000  0.3864470000000 1.0
C      1  0.5922950000000  0.4808310000000  0.5652430000000 1.0
C      1  0.3959800000000  0.4842630000000  0.5477280000000 1.0
C      1  0.4339310000000  0.5280040000000  0.5269560000000 1.0
C      1  0.5095920000000  0.5270280000000  0.4292640000000 1.0
C      1  0.5563500000000  0.5258450000000  0.5436390000000 1.0
C      1  0.4105500000000  0.4639600000000  0.5024450000000 1.0
C      1  0.5406600000000  0.4619920000000  0.4219060000000 1.0
C      1  0.5453370000000  0.4614030000000  0.5748660000000 1.0
C      1  0.5138960000000  0.4134020000000  0.5040130000000 1.0
C      1  0.4862270000000  0.4138540000000  0.5111180000000 1.0
C      1  0.4939110000000  0.4138130000000  0.4836000000000 1.0
C      1  0.5476620000000  0.5010180000000  0.5827810000000 1.0
C      1  0.4036710000000  0.5037670000000  0.5001080000000 1.0
C      1  0.5472600000000  0.5015770000000  0.4167220000000 1.0
C      1  0.4713570000000  0.5686580000000  0.4343710000000 1.0
C      1  0.5722210000000  0.5666810000000  0.5075630000000 1.0
C      1  0.4584080000000  0.5684680000000  0.5583330000000 1.0
C      1  0.5347930000000  0.4913420000000  0.4862750000000 1.0
C      1  0.4933780000000  0.4918850000000  0.5373110000000 1.0
C      1  0.4698950000000  0.4924920000000  0.4759240000000 1.0
C      1  0.5302370000000  0.4435920000000  0.4407100000000 1.0
C      1  0.5337360000000  0.4431470000000  0.5566200000000 1.0
C      1  0.4316200000000  0.4450840000000  0.5017020000000 1.0
C      1  0.4407500000000  0.5076130000000  0.5487260000000 1.0
C      1  0.4867530000000  0.5072350000000  0.4244860000000 1.0
C      1  0.5713290000000  0.5054430000000  0.5264450000000 1.0
C      1  0.4367800000000  0.5553910000000  0.4678150000000 1.0
C      1  0.5601590000000  0.5532930000000  0.4610290000000 1.0
C      1  0.5043390000000  0.5538860000000  0.5712860000000 1.0
C      1  0.4414170000000  0.4772980000000  0.4366090000000 1.0
C      1  0.5826230000000  0.4747220000000  0.4814200000000 1.0
C      1  0.4732110000000  0.4762710000000  0.5813230000000 1.0
C      1  0.4182230000000  0.5438880000000  0.4825710000000 1.0
C      1  0.5563230000000  0.5416640000000  0.4376960000000 1.0
C      1  0.5261240000000  0.5417110000000  0.5797460000000 1.0
C      1  0.4974300000000  0.4734350000000  0.5158080000000 1.0
C      1  0.4859600000000  0.4737170000000  0.4903660000000 1.0
C      1  0.5137260000000  0.4732300000000  0.4931510000000 1.0
C      1  0.5345040000000  0.5242940000000  0.5239520000000 1.0
C      1  0.4618450000000  0.5255630000000  0.5178970000000 1.0
C      1  0.5034220000000  0.5250470000000  0.4579900000000 1.0
C      1  0.4590730000000  0.4363140000000  0.4559320000000 1.0
C      1  0.5558990000000  0.4345460000000  0.4874550000000 1.0
C      1  0.4801860000000  0.4356200000000  0.5555610000000 1.0
C      1  0.5675100000000  0.4800400000000  0.5762080000000 1.0
C      1  0.3988450000000  0.4831230000000  0.5207900000000 1.0
C      1  0.5311730000000  0.4812420000000  0.4024080000000 1.0
C      1  0.5215910000000  0.5191650000000  0.4807690000000 1.0
C      1  0.5055370000000  0.5192830000000  0.5283560000000 1.0
C      1  0.4723600000000  0.5199780000000  0.4906600000000 1.0
C      1  0.4146630000000  0.5288450000000  0.5056520000000 1.0
C      1  0.5376870000000  0.5270050000000  0.4232220000000 1.0
C      1  0.5475460000000  0.5263450000000  0.5709900000000 1.0
C      1  0.4998410000000  0.5201500000000  0.4999300000000 1.0
END
