TITL C-94981-562-12 -0.0645191202952636 125000 -132.730894319108 0 0 21 (Cs) n - 1
REM
REM in /rds/project/t2_vol4/rds-t2-cs072/BORA/CARBON/from-Arr/AIRSS/Generating-Clusters/GAP-ML-2020/Higher-Symm/SD-CG/HFTN-CG
REM
REM
REM
REM
REM
REM ./C.cell (b20cbc046b6831c77cfcea5457e17084)
REM AIRSS Version 0.9.1 bugfix July 2018 build 013d7b7c2542+ Fri, 06 Jul 2018 19:26:36 +0100
REM compiler GCC version 9.3.0
REM options -cpp -mtune=generic -march=x86-64 -g -O0
REM seed -53896548 1157700317 1376570800 -904397798 -492929456 665380541 -1978187523 1474744075 2001664595 -617512322 516359172 -1191947863 -538397920 2112636613 -1048057415 1425022412 -683640376 -151082584 1691609799 417039277 -442970472 -1632093170 780676906 1624210440 -1915708402 568849619 287230579 -584740354 1831802275 -1627594627 -367064912 -432225626 -993731315
REM
CELL 1.54180   50.00000   50.00000   50.00000   90.00000   90.00000   90.00000
LATT -1
SFAC C  
C      1  0.5487350000000  0.5207330000000  0.5249010000000 1.0
C      1  0.4876360000000  0.5270320000000  0.5578200000000 1.0
C      1  0.4447080000000  0.5203870000000  0.5033280000000 1.0
C      1  0.4853920000000  0.5248050000000  0.4613060000000 1.0
C      1  0.5280890000000  0.5249470000000  0.4701610000000 1.0
C      1  0.5395990000000  0.4815520000000  0.5282440000000 1.0
C      1  0.4890170000000  0.4850210000000  0.5518380000000 1.0
C      1  0.4520110000000  0.4812600000000  0.5100800000000 1.0
C      1  0.4817550000000  0.4871500000000  0.4446120000000 1.0
C      1  0.5383050000000  0.4873380000000  0.4563400000000 1.0
C      1  0.4981610000000  0.5096240000000  0.4394010000000 1.0
C      1  0.5319170000000  0.5054690000000  0.5419750000000 1.0
C      1  0.5426670000000  0.5023920000000  0.4802050000000 1.0
C      1  0.4520380000000  0.4980640000000  0.4865700000000 1.0
C      1  0.4702830000000  0.5070390000000  0.5473390000000 1.0
C      1  0.5078530000000  0.5071650000000  0.5551300000000 1.0
C      1  0.4681670000000  0.5021440000000  0.4647540000000 1.0
C      1  0.5251810000000  0.5097140000000  0.4450040000000 1.0
C      1  0.5488160000000  0.4983860000000  0.5066400000000 1.0
C      1  0.4534470000000  0.5052070000000  0.5257020000000 1.0
C      1  0.5041450000000  0.5349770000000  0.4780870000000 1.0
END
