TITL C-94406-3958-1 -3.41001669259382 125000 -99.8820218988264 0 0 16 (C2v) n - 1
REM
REM in /rds/project/t2_vol4/rds-t2-cs072/BORA/CARBON/from-Arr/AIRSS/Generating-Clusters/GAP-ML-2020/Higher-Symm/SD-CG/HFTN-CG
REM
REM
REM
REM
REM
REM ./C.cell (b20cbc046b6831c77cfcea5457e17084)
REM AIRSS Version 0.9.1 bugfix July 2018 build 013d7b7c2542+ Fri, 06 Jul 2018 19:26:36 +0100
REM compiler GCC version 9.3.0
REM options -cpp -mtune=generic -march=x86-64 -g -O0
REM seed -1353644978 1470679662 -349971862 440847705 384780808 90288450 -451261125 -944227186 1448119368 -2077158931 1154921780 -1178711089 821276463 1154152850 -855428722 -823747146 -1195980022 421870427 456389468 -1646704860 -113470481 886104395 -1250659186 529804278 -1838095264 1015126167 -422299966 -1711751649 2002425847 -731463341 551746634 -1866109927 617513487
REM
CELL 1.54180   50.00000   50.00000   50.00000   90.00000   90.00000   90.00000
LATT -1
SFAC C  
C      1  0.5144470000000  0.4905150000000  0.5140590000000 1.0
C      1  0.5144890000000  0.4899470000000  0.4863850000000 1.0
C      1  0.4857180000000  0.4902150000000  0.5140230000000 1.0
C      1  0.4857590000000  0.4896470000000  0.4863480000000 1.0
C      1  0.4855310000000  0.4974530000000  0.4587560000000 1.0
C      1  0.4854070000000  0.4991460000000  0.5412710000000 1.0
C      1  0.5146250000000  0.4977570000000  0.4587930000000 1.0
C      1  0.5145020000000  0.4994500000000  0.5413080000000 1.0
C      1  0.5353320000000  0.4950070000000  0.5629690000000 1.0
C      1  0.5349550000000  0.5173680000000  0.4453090000000 1.0
C      1  0.4646190000000  0.4942690000000  0.5628790000000 1.0
C      1  0.4648300000000  0.5166360000000  0.4452190000000 1.0
C      1  0.5355200000000  0.4924300000000  0.4373940000000 1.0
C      1  0.5347920000000  0.5195990000000  0.5540370000000 1.0
C      1  0.4648060000000  0.4916920000000  0.4373040000000 1.0
C      1  0.4646680000000  0.5188670000000  0.5539470000000 1.0
END
