TITL C-94900-2261-1 0.102171470436133 125000 -269.623734801654 0 0 40 (C5v) n - 1
REM
REM in /rds/project/t2_vol4/rds-t2-cs072/BORA/CARBON/from-Arr/AIRSS/Generating-Clusters/GAP-ML-2020/Higher-Symm/SD-CG/HFTN-CG
REM
REM
REM
REM
REM
REM ./C.cell (b20cbc046b6831c77cfcea5457e17084)
REM AIRSS Version 0.9.1 bugfix July 2018 build 013d7b7c2542+ Fri, 06 Jul 2018 19:26:36 +0100
REM compiler GCC version 9.3.0
REM options -cpp -mtune=generic -march=x86-64 -g -O0
REM seed 853497305 645208489 -167632981 -175396216 375518408 163287345 768688529 1791628742 -2066015012 -1610522692 935963221 1493337293 -488295882 -286373261 1558502921 -1204678974 1981599048 -515149722 1970299698 -544584564 2049704624 -625499478 1614676288 499048295 271721775 -463860990 -862667470 1791105050 -1470462905 835363700 -1604717639 -897300499 -992994318
REM
CELL 1.54180   50.00000   50.00000   50.00000   90.00000   90.00000   90.00000
LATT -1
SFAC C  
C      1  0.5334110000000  0.4514220000000  0.4817170000000 1.0
C      1  0.4644910000000  0.4532020000000  0.4810400000000 1.0
C      1  0.4448950000000  0.5192960000000  0.4799620000000 1.0
C      1  0.5017040000000  0.5583650000000  0.4799740000000 1.0
C      1  0.5564100000000  0.5164160000000  0.4810580000000 1.0
C      1  0.5118170000000  0.4390470000000  0.4962430000000 1.0
C      1  0.4457690000000  0.4699170000000  0.4952010000000 1.0
C      1  0.4547270000000  0.5422740000000  0.4943100000000 1.0
C      1  0.5263130000000  0.5561220000000  0.4948010000000 1.0
C      1  0.5615960000000  0.4923240000000  0.4959960000000 1.0
C      1  0.4530310000000  0.5161560000000  0.4541550000000 1.0
C      1  0.5017330000000  0.5496490000000  0.4541650000000 1.0
C      1  0.5486320000000  0.5136870000000  0.4550940000000 1.0
C      1  0.5289150000000  0.4579680000000  0.4556590000000 1.0
C      1  0.4698300000000  0.4594940000000  0.4550790000000 1.0
C      1  0.5231330000000  0.4924420000000  0.5619690000000 1.0
C      1  0.4987630000000  0.4756830000000  0.5619650000000 1.0
C      1  0.4752950000000  0.4936780000000  0.5614990000000 1.0
C      1  0.4851610000000  0.5215590000000  0.5612170000000 1.0
C      1  0.5147270000000  0.5207950000000  0.5615070000000 1.0
C      1  0.5558020000000  0.4804860000000  0.5229040000000 1.0
C      1  0.4982490000000  0.4409060000000  0.5228930000000 1.0
C      1  0.4428260000000  0.4834040000000  0.5217940000000 1.0
C      1  0.4661270000000  0.5492490000000  0.5211270000000 1.0
C      1  0.5359490000000  0.5474460000000  0.5218130000000 1.0
C      1  0.4851280000000  0.4397360000000  0.4959810000000 1.0
C      1  0.4381800000000  0.4955120000000  0.4947840000000 1.0
C      1  0.4767260000000  0.5574020000000  0.4943140000000 1.0
C      1  0.5474970000000  0.5398770000000  0.4952210000000 1.0
C      1  0.5526900000000  0.4671560000000  0.4962520000000 1.0
C      1  0.5011580000000  0.5241680000000  0.4457090000000 1.0
C      1  0.5243890000000  0.5063540000000  0.4461700000000 1.0
C      1  0.5146230000000  0.4787530000000  0.4464490000000 1.0
C      1  0.4853550000000  0.4795090000000  0.4461620000000 1.0
C      1  0.4770330000000  0.5075770000000  0.4457040000000 1.0
C      1  0.4736640000000  0.5382830000000  0.5432680000000 1.0
C      1  0.5274220000000  0.5368940000000  0.5437960000000 1.0
C      1  0.5427070000000  0.4853400000000  0.5446370000000 1.0
C      1  0.4983960000000  0.4548660000000  0.5446280000000 1.0
C      1  0.4557250000000  0.4875870000000  0.5437820000000 1.0
END
