TITL C-94991-1856-4 207.265139980841 125000 -734.637115667268 0 0 107 (C1) n - 1
REM
REM in /rds/project/t2_vol4/rds-t2-cs072/BORA/CARBON/from-Arr/AIRSS/Generating-Clusters/GAP-ML-2020/Higher-Symm/SD-CG/HFTN-CG
REM
REM
REM
REM
REM
REM ./C.cell (b20cbc046b6831c77cfcea5457e17084)
REM AIRSS Version 0.9.1 bugfix July 2018 build 013d7b7c2542+ Fri, 06 Jul 2018 19:26:36 +0100
REM compiler GCC version 9.3.0
REM options -cpp -mtune=generic -march=x86-64 -g -O0
REM seed -588393316 -525848777 -845458082 -1631967990 -841842098 -753883603 1542702273 464750147 8179699 201114599 2000107361 809160590 -584922585 1200629680 1000511611 2045950215 -1452215490 894338494 1680952558 426759800 1686504494 -84148998 486182250 1185706216 354878262 2107337225 -2078148845 419175763 208568658 -1984061477 2034069085 -548433482 -1738820129
REM
CELL 1.54180   50.00000   50.00000   50.00000   90.00000   90.00000   90.00000
LATT -1
SFAC C  
C      1  0.4419140000000  0.5412170000000  0.5628270000000 1.0
C      1  0.4338350000000  0.4614320000000  0.5532720000000 1.0
C      1  0.4436550000000  0.4302770000000  0.4688230000000 1.0
C      1  0.4371020000000  0.5008280000000  0.4290670000000 1.0
C      1  0.4380670000000  0.5702310000000  0.4873120000000 1.0
C      1  0.5291770000000  0.5650760000000  0.4569590000000 1.0
C      1  0.5334710000000  0.5634590000000  0.5494850000000 1.0
C      1  0.5321190000000  0.4739350000000  0.5747010000000 1.0
C      1  0.5304790000000  0.4225340000000  0.4974920000000 1.0
C      1  0.5330810000000  0.4786360000000  0.4230250000000 1.0
C      1  0.4680020000000  0.5732380000000  0.5208570000000 1.0
C      1  0.4691700000000  0.5068940000000  0.5735620000000 1.0
C      1  0.4649030000000  0.4366110000000  0.5320130000000 1.0
C      1  0.4686280000000  0.4529160000000  0.4395010000000 1.0
C      1  0.4651670000000  0.5337570000000  0.4361280000000 1.0
C      1  0.5294990000000  0.5783810000000  0.5048210000000 1.0
C      1  0.5306160000000  0.5215130000000  0.5756480000000 1.0
C      1  0.5290620000000  0.4364820000000  0.5436800000000 1.0
C      1  0.5309850000000  0.4397340000000  0.4501690000000 1.0
C      1  0.5295220000000  0.5273360000000  0.4267860000000 1.0
C      1  0.6136930000000  0.4852180000000  0.5199190000000 1.0
C      1  0.6137550000000  0.4769070000000  0.4912570000000 1.0
C      1  0.6136360000000  0.5015700000000  0.4745600000000 1.0
C      1  0.6133880000000  0.5252540000000  0.4926940000000 1.0
C      1  0.6135100000000  0.5150180000000  0.5207060000000 1.0
C      1  0.4158050000000  0.4932970000000  0.5221280000000 1.0
C      1  0.4180690000000  0.4621580000000  0.4755090000000 1.0
C      1  0.4144310000000  0.4900540000000  0.4690500000000 1.0
C      1  0.4162090000000  0.5309090000000  0.4999210000000 1.0
C      1  0.4193780000000  0.5233440000000  0.5294700000000 1.0
C      1  0.4620470000000  0.5442350000000  0.5172380000000 1.0
C      1  0.4607530000000  0.4989940000000  0.5451390000000 1.0
C      1  0.4564640000000  0.4571220000000  0.5113290000000 1.0
C      1  0.4612520000000  0.4742230000000  0.4602230000000 1.0
C      1  0.4564880000000  0.5271180000000  0.4654060000000 1.0
C      1  0.5537130000000  0.5509420000000  0.4589880000000 1.0
C      1  0.5562160000000  0.5552070000000  0.5349780000000 1.0
C      1  0.5557620000000  0.4843080000000  0.5627970000000 1.0
C      1  0.5544760000000  0.4358020000000  0.5040370000000 1.0
C      1  0.5563700000000  0.4770340000000  0.4391100000000 1.0
C      1  0.4887530000000  0.4294670000000  0.5188880000000 1.0
C      1  0.4905040000000  0.4628940000000  0.4245230000000 1.0
C      1  0.4886300000000  0.5470280000000  0.4432960000000 1.0
C      1  0.4899060000000  0.5741150000000  0.5392900000000 1.0
C      1  0.4895900000000  0.4889970000000  0.5815790000000 1.0
C      1  0.4162730000000  0.5393480000000  0.5550620000000 1.0
C      1  0.4104760000000  0.4706410000000  0.5428510000000 1.0
C      1  0.4170790000000  0.4356510000000  0.4679300000000 1.0
C      1  0.4123690000000  0.4983500000000  0.4390100000000 1.0
C      1  0.4136740000000  0.5592720000000  0.4892910000000 1.0
C      1  0.4679190000000  0.4285390000000  0.4544400000000 1.0
C      1  0.4631090000000  0.5098780000000  0.4204330000000 1.0
C      1  0.4636910000000  0.5824800000000  0.4944170000000 1.0
C      1  0.4676750000000  0.5361930000000  0.5733100000000 1.0
C      1  0.4608570000000  0.4487500000000  0.5576010000000 1.0
C      1  0.5185370000000  0.5463190000000  0.5665890000000 1.0
C      1  0.5162110000000  0.4524870000000  0.5643630000000 1.0
C      1  0.5177810000000  0.4256640000000  0.4717180000000 1.0
C      1  0.5173690000000  0.5021950000000  0.4189360000000 1.0
C      1  0.5152660000000  0.5765470000000  0.4796700000000 1.0
C      1  0.4901440000000  0.5494180000000  0.5577090000000 1.0
C      1  0.4875320000000  0.4635780000000  0.5655280000000 1.0
C      1  0.4896550000000  0.4303030000000  0.4732260000000 1.0
C      1  0.4888400000000  0.4928590000000  0.4236740000000 1.0
C      1  0.4867490000000  0.5707310000000  0.4809620000000 1.0
C      1  0.5618420000000  0.5269180000000  0.5380520000000 1.0
C      1  0.5616580000000  0.4724190000000  0.5369740000000 1.0
C      1  0.5618530000000  0.4563720000000  0.4843350000000 1.0
C      1  0.5619100000000  0.5018320000000  0.4531440000000 1.0
C      1  0.5610600000000  0.5452720000000  0.4866340000000 1.0
C      1  0.5356440000000  0.5158380000000  0.5186750000000 1.0
C      1  0.5357000000000  0.4868350000000  0.5203460000000 1.0
C      1  0.5356320000000  0.4761720000000  0.4932820000000 1.0
C      1  0.5354390000000  0.4988620000000  0.4750730000000 1.0
C      1  0.5355060000000  0.5234480000000  0.4906470000000 1.0
C      1  0.5535650000000  0.4445640000000  0.5316660000000 1.0
C      1  0.5551160000000  0.4534690000000  0.4557300000000 1.0
C      1  0.5536840000000  0.5278050000000  0.4415600000000 1.0
C      1  0.5540220000000  0.5643690000000  0.5078910000000 1.0
C      1  0.5546690000000  0.5130250000000  0.5630650000000 1.0
C      1  0.5829450000000  0.4846610000000  0.5203610000000 1.0
C      1  0.5830160000000  0.4760210000000  0.4911450000000 1.0
C      1  0.5828970000000  0.5014250000000  0.4738510000000 1.0
C      1  0.5826570000000  0.5255770000000  0.4924010000000 1.0
C      1  0.5828580000000  0.5151730000000  0.5211500000000 1.0
C      1  0.4870050000000  0.5366760000000  0.5303120000000 1.0
C      1  0.4848200000000  0.4824080000000  0.5427000000000 1.0
C      1  0.4851700000000  0.4489410000000  0.4963200000000 1.0
C      1  0.4851580000000  0.4897040000000  0.4535350000000 1.0
C      1  0.4842600000000  0.5424160000000  0.4726160000000 1.0
C      1  0.5166890000000  0.5783960000000  0.5314930000000 1.0
C      1  0.5167990000000  0.4964370000000  0.5836470000000 1.0
C      1  0.5150950000000  0.4226840000000  0.5221770000000 1.0
C      1  0.5173680000000  0.4553170000000  0.4286370000000 1.0
C      1  0.5147880000000  0.5506870000000  0.4364970000000 1.0
C      1  0.4479320000000  0.4580550000000  0.4833760000000 1.0
C      1  0.4447980000000  0.4989660000000  0.4601060000000 1.0
C      1  0.4464220000000  0.5394640000000  0.4907030000000 1.0
C      1  0.4491820000000  0.5260480000000  0.5362020000000 1.0
C      1  0.4440570000000  0.4795190000000  0.5285200000000 1.0
C      1  0.5048290000000  0.4957800000000  0.4735190000000 1.0
C      1  0.5045740000000  0.5237870000000  0.4869290000000 1.0
C      1  0.5053370000000  0.5188890000000  0.5174010000000 1.0
C      1  0.5049450000000  0.4878230000000  0.5225670000000 1.0
C      1  0.5047880000000  0.4731410000000  0.4955470000000 1.0
C      1  0.4083340000000  0.5028830000000  0.4945760000000 1.0
C      1  0.4911960000000  0.4999360000000  0.4993700000000 1.0
END
