TITL C-94975-420-4 0.0246550953418341 125000 -103.92529412611 0 0 16 (C2v) n - 1
REM
REM in /rds/project/t2_vol4/rds-t2-cs072/BORA/CARBON/from-Arr/AIRSS/Generating-Clusters/GAP-ML-2020/Higher-Symm/SD-CG/HFTN-CG
REM
REM
REM
REM
REM
REM ./C.cell (b20cbc046b6831c77cfcea5457e17084)
REM AIRSS Version 0.9.1 bugfix July 2018 build 013d7b7c2542+ Fri, 06 Jul 2018 19:26:36 +0100
REM compiler GCC version 9.3.0
REM options -cpp -mtune=generic -march=x86-64 -g -O0
REM seed 591335802 -654732188 411578291 -1198982950 -405007307 1953677038 655086808 1766228862 -1145446674 -502246987 29595062 48404832 1595146301 -1896941721 -435575350 -2020800150 1960978364 -549176969 1878142137 -36029470 1991632135 -455347130 49135691 1406822864 1482884614 -1961450431 -1983977244 1265751309 1717350273 -773264375 -299003516 -1257506028 -589498806
REM
CELL 1.54180   50.00000   50.00000   50.00000   90.00000   90.00000   90.00000
LATT -1
SFAC C  
C      1  0.4425650000000  0.5303720000000  0.4987880000000 1.0
C      1  0.5104410000000  0.5583110000000  0.4988520000000 1.0
C      1  0.5623120000000  0.5057440000000  0.4988120000000 1.0
C      1  0.5334700000000  0.4382470000000  0.4987190000000 1.0
C      1  0.4737420000000  0.4702230000000  0.4987300000000 1.0
C      1  0.4615020000000  0.5477400000000  0.4988170000000 1.0
C      1  0.5338880000000  0.5477100000000  0.4988490000000 1.0
C      1  0.5633110000000  0.4798920000000  0.4987820000000 1.0
C      1  0.5072570000000  0.4341490000000  0.4987020000000 1.0
C      1  0.4470040000000  0.4803420000000  0.4987300000000 1.0
C      1  0.4381190000000  0.5042160000000  0.4987550000000 1.0
C      1  0.4846040000000  0.5596540000000  0.4988420000000 1.0
C      1  0.5520240000000  0.5293310000000  0.4988360000000 1.0
C      1  0.5510890000000  0.4569500000000  0.4987490000000 1.0
C      1  0.4835040000000  0.4433520000000  0.4987020000000 1.0
C      1  0.4947140000000  0.4909170000000  0.4987640000000 1.0
END
