TITL C-94980-510-2 48.2878855327396 125000 -698.627233483665 0 0 101 (C1) n - 1
REM
REM in /rds/project/t2_vol4/rds-t2-cs072/BORA/CARBON/from-Arr/AIRSS/Generating-Clusters/GAP-ML-2020/Higher-Symm/SD-CG/HFTN-CG
REM
REM
REM
REM
REM
REM ./C.cell (b20cbc046b6831c77cfcea5457e17084)
REM AIRSS Version 0.9.1 bugfix July 2018 build 013d7b7c2542+ Fri, 06 Jul 2018 19:26:36 +0100
REM compiler GCC version 9.3.0
REM options -cpp -mtune=generic -march=x86-64 -g -O0
REM seed 1935459010 78476172 -1247484676 -1463108855 1198592926 -14826091 1945540344 887462541 2010144279 581127464 1102950263 -1990040563 -1397847944 46755070 1373790787 949926140 -418602754 954516908 -1137132948 1652858382 294068198 -84184569 167880347 -1463700639 69673864 -1511325532 635922117 -2145885153 -363402831 -713973343 -327934598 -1460190083 -197678776
REM
CELL 1.54180   50.00000   50.00000   50.00000   90.00000   90.00000   90.00000
LATT -1
SFAC C  
C      1  0.5433510000000  0.5601140000000  0.5529230000000 1.0
C      1  0.5466260000000  0.5788190000000  0.5067680000000 1.0
C      1  0.5352600000000  0.5574500000000  0.4609260000000 1.0
C      1  0.5377890000000  0.5185500000000  0.4293750000000 1.0
C      1  0.5341360000000  0.4689670000000  0.4342680000000 1.0
C      1  0.5269000000000  0.4386110000000  0.4736310000000 1.0
C      1  0.5351580000000  0.4290740000000  0.5250940000000 1.0
C      1  0.5289020000000  0.4656160000000  0.5620170000000 1.0
C      1  0.5401450000000  0.5141130000000  0.5789930000000 1.0
C      1  0.5170130000000  0.5199640000000  0.5228660000000 1.0
C      1  0.5112070000000  0.5375830000000  0.5023330000000 1.0
C      1  0.5141230000000  0.5334070000000  0.4732870000000 1.0
C      1  0.5150690000000  0.5117290000000  0.4509400000000 1.0
C      1  0.5102570000000  0.4815070000000  0.4509150000000 1.0
C      1  0.5087360000000  0.4635800000000  0.4734800000000 1.0
C      1  0.4833800000000  0.4678260000000  0.4873320000000 1.0
C      1  0.5034820000000  0.4791310000000  0.5426950000000 1.0
C      1  0.5113140000000  0.4929730000000  0.5169040000000 1.0
C      1  0.5518010000000  0.5381650000000  0.4460890000000 1.0
C      1  0.5516940000000  0.4927350000000  0.4333930000000 1.0
C      1  0.5462210000000  0.4529960000000  0.4556070000000 1.0
C      1  0.5426330000000  0.4376950000000  0.4989260000000 1.0
C      1  0.5444580000000  0.4501360000000  0.5421380000000 1.0
C      1  0.5465590000000  0.4890280000000  0.5667680000000 1.0
C      1  0.5519080000000  0.5338250000000  0.5615310000000 1.0
C      1  0.5575540000000  0.5640230000000  0.5284020000000 1.0
C      1  0.5529450000000  0.5638770000000  0.4832750000000 1.0
C      1  0.5213060000000  0.5223250000000  0.4049880000000 1.0
C      1  0.5136540000000  0.4561270000000  0.4149950000000 1.0
C      1  0.5067380000000  0.4161170000000  0.4672160000000 1.0
C      1  0.5131790000000  0.4111550000000  0.5320100000000 1.0
C      1  0.5118570000000  0.4535820000000  0.5841790000000 1.0
C      1  0.5169580000000  0.5193950000000  0.5963340000000 1.0
C      1  0.5168700000000  0.5719840000000  0.5566240000000 1.0
C      1  0.5219430000000  0.5916100000000  0.5103740000000 1.0
C      1  0.5128880000000  0.5736300000000  0.4485730000000 1.0
C      1  0.4824020000000  0.5329440000000  0.4673780000000 1.0
C      1  0.4848140000000  0.5158080000000  0.4437790000000 1.0
C      1  0.4805020000000  0.4852430000000  0.4421530000000 1.0
C      1  0.4632080000000  0.4697130000000  0.4611430000000 1.0
C      1  0.4787660000000  0.4501440000000  0.5108190000000 1.0
C      1  0.4850550000000  0.4578240000000  0.5364680000000 1.0
C      1  0.4887460000000  0.5020400000000  0.5546200000000 1.0
C      1  0.4904300000000  0.5269150000000  0.5399780000000 1.0
C      1  0.4816960000000  0.5380780000000  0.5127980000000 1.0
C      1  0.4346530000000  0.5222030000000  0.5322510000000 1.0
C      1  0.4281430000000  0.5339310000000  0.5071810000000 1.0
C      1  0.4302320000000  0.5307390000000  0.4777310000000 1.0
C      1  0.4311470000000  0.5082390000000  0.4589680000000 1.0
C      1  0.4367140000000  0.4809340000000  0.4682270000000 1.0
C      1  0.4265260000000  0.4610040000000  0.4859450000000 1.0
C      1  0.4293600000000  0.4539230000000  0.5140130000000 1.0
C      1  0.4318540000000  0.4670810000000  0.5396990000000 1.0
C      1  0.4346090000000  0.4956310000000  0.5456550000000 1.0
C      1  0.5603080000000  0.4605090000000  0.4999140000000 1.0
C      1  0.5617840000000  0.4683250000000  0.5279200000000 1.0
C      1  0.5642750000000  0.4922080000000  0.5442050000000 1.0
C      1  0.5680490000000  0.5207550000000  0.5406970000000 1.0
C      1  0.5713460000000  0.5395970000000  0.5188600000000 1.0
C      1  0.5694100000000  0.5404670000000  0.4895360000000 1.0
C      1  0.5667680000000  0.5232740000000  0.4661690000000 1.0
C      1  0.5652060000000  0.4952170000000  0.4590860000000 1.0
C      1  0.5621060000000  0.4701220000000  0.4727220000000 1.0
C      1  0.4493670000000  0.5070230000000  0.5687150000000 1.0
C      1  0.4496810000000  0.5333860000000  0.5559730000000 1.0
C      1  0.4410810000000  0.5608440000000  0.5043600000000 1.0
C      1  0.4436390000000  0.5572400000000  0.4759010000000 1.0
C      1  0.4392130000000  0.5098670000000  0.4326580000000 1.0
C      1  0.4564100000000  0.5082050000000  0.4113540000000 1.0
C      1  0.4396280000000  0.4349960000000  0.4770100000000 1.0
C      1  0.4430640000000  0.4273100000000  0.5047900000000 1.0
C      1  0.4458260000000  0.4507770000000  0.5579540000000 1.0
C      1  0.5051340000000  0.4720940000000  0.6031150000000 1.0
C      1  0.5079030000000  0.5454000000000  0.5971650000000 1.0
C      1  0.5066500000000  0.5866450000000  0.5346850000000 1.0
C      1  0.4980390000000  0.5924470000000  0.4935310000000 1.0
C      1  0.5054350000000  0.5631460000000  0.4250120000000 1.0
C      1  0.5138700000000  0.4991890000000  0.3927730000000 1.0
C      1  0.4975160000000  0.4378550000000  0.4267940000000 1.0
C      1  0.5019210000000  0.3961970000000  0.4856040000000 1.0
C      1  0.5057630000000  0.4127070000000  0.5583910000000 1.0
C      1  0.4764080000000  0.5277820000000  0.4182150000000 1.0
C      1  0.4741100000000  0.4841820000000  0.4136070000000 1.0
C      1  0.4600430000000  0.4401540000000  0.4574670000000 1.0
C      1  0.4702910000000  0.4227650000000  0.5107410000000 1.0
C      1  0.4715420000000  0.4444670000000  0.5588440000000 1.0
C      1  0.4753570000000  0.5008910000000  0.5791810000000 1.0
C      1  0.4759150000000  0.5468860000000  0.5584010000000 1.0
C      1  0.4656960000000  0.5641880000000  0.5172570000000 1.0
C      1  0.4703300000000  0.5604000000000  0.4661820000000 1.0
C      1  0.4941710000000  0.4325530000000  0.5731550000000 1.0
C      1  0.4962450000000  0.4978410000000  0.5992450000000 1.0
C      1  0.4976510000000  0.5576720000000  0.5745560000000 1.0
C      1  0.4823390000000  0.5866720000000  0.5178940000000 1.0
C      1  0.4913410000000  0.5805510000000  0.4688110000000 1.0
C      1  0.4994670000000  0.5425480000000  0.4087450000000 1.0
C      1  0.4990260000000  0.4778420000000  0.4000330000000 1.0
C      1  0.4854970000000  0.4273310000000  0.4487360000000 1.0
C      1  0.4928410000000  0.4044670000000  0.5107990000000 1.0
C      1  0.4742180000000  0.5183920000000  0.4925860000000 1.0
C      1  0.4878150000000  0.4937880000000  0.4990780000000 1.0
END
