TITL C-94986-2497-5 -281.43900852331 125000 -401.790473265935 0 0 58 (C1) n - 1
REM
REM in /rds/project/t2_vol4/rds-t2-cs072/BORA/CARBON/from-Arr/AIRSS/Generating-Clusters/GAP-ML-2020/Higher-Symm/SD-CG/HFTN-CG
REM
REM
REM
REM
REM
REM ./C.cell (b20cbc046b6831c77cfcea5457e17084)
REM AIRSS Version 0.9.1 bugfix July 2018 build 013d7b7c2542+ Fri, 06 Jul 2018 19:26:36 +0100
REM compiler GCC version 9.3.0
REM options -cpp -mtune=generic -march=x86-64 -g -O0
REM seed -2060137811 -1683703730 -929514890 -206467234 -1226892632 -1333021580 1707060013 -2057281958 561730880 -1119090700 -222232742 -798350729 1048317333 -1297732526 129083724 1309806725 1856299858 1237745151 -1550797298 1872048786 858887135 -849283684 669675721 -54192628 -893407019 -281415933 -2017473364 -1519245099 475184544 -1811920624 -1568882208 1955176758 744310917
REM
CELL 1.54180   50.00000   50.00000   50.00000   90.00000   90.00000   90.00000
LATT -1
SFAC C  
C      1  0.5103840000000  0.4393370000000  0.5243860000000 1.0
C      1  0.5218400000000  0.4542750000000  0.5461630000000 1.0
C      1  0.4805690000000  0.4720090000000  0.5577240000000 1.0
C      1  0.5203000000000  0.5203780000000  0.5618290000000 1.0
C      1  0.5198570000000  0.5616170000000  0.5326960000000 1.0
C      1  0.5618210000000  0.5203700000000  0.4870980000000 1.0
C      1  0.5493980000000  0.4634430000000  0.4647320000000 1.0
C      1  0.5441730000000  0.5450290000000  0.4883840000000 1.0
C      1  0.4922930000000  0.4319400000000  0.4805720000000 1.0
C      1  0.5176160000000  0.5377200000000  0.4432430000000 1.0
C      1  0.4533640000000  0.4499560000000  0.4928420000000 1.0
C      1  0.4225790000000  0.4921790000000  0.5058070000000 1.0
C      1  0.4998820000000  0.5015160000000  0.4989590000000 1.0
C      1  0.5535540000000  0.4750790000000  0.5130920000000 1.0
C      1  0.4712870000000  0.4991720000000  0.5040050000000 1.0
C      1  0.4591370000000  0.5310110000000  0.4577120000000 1.0
C      1  0.4983760000000  0.4689920000000  0.4547700000000 1.0
C      1  0.4466300000000  0.4858290000000  0.4618000000000 1.0
C      1  0.5047610000000  0.4621110000000  0.5674990000000 1.0
C      1  0.4447170000000  0.5295970000000  0.4817230000000 1.0
C      1  0.4483000000000  0.5086400000000  0.5438870000000 1.0
C      1  0.5162200000000  0.4472190000000  0.4965910000000 1.0
C      1  0.4715400000000  0.4995660000000  0.5595170000000 1.0
C      1  0.4721680000000  0.4281690000000  0.4990350000000 1.0
C      1  0.5359700000000  0.4899840000000  0.4363270000000 1.0
C      1  0.5418140000000  0.4736000000000  0.5398300000000 1.0
C      1  0.4904010000000  0.5210580000000  0.5609160000000 1.0
C      1  0.4551540000000  0.5434850000000  0.5049400000000 1.0
C      1  0.4947780000000  0.5588270000000  0.4776150000000 1.0
C      1  0.4336600000000  0.5020990000000  0.4826200000000 1.0
C      1  0.5595200000000  0.5148290000000  0.5352880000000 1.0
C      1  0.5716580000000  0.5092460000000  0.4638240000000 1.0
C      1  0.5311850000000  0.5451250000000  0.5534180000000 1.0
C      1  0.5602780000000  0.4881230000000  0.4528250000000 1.0
C      1  0.4798560000000  0.5590010000000  0.5019450000000 1.0
C      1  0.4780880000000  0.5430040000000  0.5461020000000 1.0
C      1  0.4824440000000  0.4329820000000  0.5254940000000 1.0
C      1  0.4991160000000  0.4724960000000  0.4885800000000 1.0
C      1  0.5414790000000  0.4999570000000  0.5520100000000 1.0
C      1  0.5427800000000  0.5554120000000  0.5146680000000 1.0
C      1  0.4958810000000  0.5519780000000  0.4315420000000 1.0
C      1  0.4904110000000  0.4948820000000  0.4416490000000 1.0
C      1  0.4791520000000  0.5508250000000  0.4537710000000 1.0
C      1  0.4641380000000  0.5040480000000  0.4477520000000 1.0
C      1  0.4928430000000  0.5594620000000  0.5276330000000 1.0
C      1  0.5149310000000  0.5089530000000  0.4368140000000 1.0
C      1  0.5262670000000  0.4646940000000  0.4466960000000 1.0
C      1  0.4288970000000  0.4938710000000  0.5305670000000 1.0
C      1  0.4709370000000  0.4705820000000  0.5064830000000 1.0
C      1  0.4548020000000  0.5345840000000  0.5325990000000 1.0
C      1  0.4793980000000  0.4477490000000  0.4587850000000 1.0
C      1  0.5548370000000  0.5417980000000  0.5369110000000 1.0
C      1  0.5143520000000  0.5145360000000  0.5177050000000 1.0
C      1  0.4716670000000  0.4581470000000  0.5335710000000 1.0
C      1  0.5436500000000  0.4586310000000  0.4915300000000 1.0
C      1  0.5224040000000  0.5502860000000  0.4703500000000 1.0
C      1  0.5635270000000  0.5024090000000  0.5102390000000 1.0
C      1  0.4529600000000  0.4581830000000  0.4649360000000 1.0
END
