TITL C-94972-563-9 -41.1138842672645 125000 -339.414139956829 0 0 51 (C3) n - 1
REM
REM in /rds/project/t2_vol4/rds-t2-cs072/BORA/CARBON/from-Arr/AIRSS/Generating-Clusters/GAP-ML-2020/Higher-Symm/SD-CG/HFTN-CG
REM
REM
REM
REM
REM
REM ./C.cell (b20cbc046b6831c77cfcea5457e17084)
REM AIRSS Version 0.9.1 bugfix July 2018 build 013d7b7c2542+ Fri, 06 Jul 2018 19:26:36 +0100
REM compiler GCC version 9.3.0
REM options -cpp -mtune=generic -march=x86-64 -g -O0
REM seed 679439567 1380701045 691761068 -65368878 -210978623 -1191391095 -1015479996 2086113564 496107006 108161885 1709816259 -1019225619 -250508651 540909656 -1384716816 -1639862165 1185592401 -2025642360 -1322786908 1611539774 -918283939 -1012002862 -1694581609 869229434 -1352378562 1376776487 725386402 -1086397902 176137987 456047900 1411476121 152968461 -460907995
REM
CELL 1.54180   50.00000   50.00000   50.00000   90.00000   90.00000   90.00000
LATT -1
SFAC C  
C      1  0.4700220000000  0.5292410000000  0.5237350000000 1.0
C      1  0.4944350000000  0.5292420000000  0.4621710000000 1.0
C      1  0.5355450000000  0.5292400000000  0.5140960000000 1.0
C      1  0.5029220000000  0.5106100000000  0.4830960000000 1.0
C      1  0.5131790000000  0.5106100000000  0.5109830000000 1.0
C      1  0.4838990000000  0.5106110000000  0.5059220000000 1.0
C      1  0.5259850000000  0.5567120000000  0.5100930000000 1.0
C      1  0.4782700000000  0.5567130000000  0.5174580000000 1.0
C      1  0.4957490000000  0.5567130000000  0.4724520000000 1.0
C      1  0.5286440000000  0.5089970000000  0.4394000000000 1.0
C      1  0.5381590000000  0.5089950000000  0.5551060000000 1.0
C      1  0.4331970000000  0.5089990000000  0.5054940000000 1.0
C      1  0.5433200000000  0.5523030000000  0.4645820000000 1.0
C      1  0.5090160000000  0.5523030000000  0.5552260000000 1.0
C      1  0.4476680000000  0.5523060000000  0.4801950000000 1.0
C      1  0.4918890000000  0.4440540000000  0.5273790000000 1.0
C      1  0.4803420000000  0.4440550000000  0.4792860000000 1.0
C      1  0.5277650000000  0.4440530000000  0.4933330000000 1.0
C      1  0.4383610000000  0.5302000000000  0.4882840000000 1.0
C      1  0.5409680000000  0.5301980000000  0.4524770000000 1.0
C      1  0.5206740000000  0.5301970000000  0.5592410000000 1.0
C      1  0.5143600000000  0.4850780000000  0.4776520000000 1.0
C      1  0.5121730000000  0.4850770000000  0.5236110000000 1.0
C      1  0.4734650000000  0.4850790000000  0.4987370000000 1.0
C      1  0.5109960000000  0.4655950000000  0.4513850000000 1.0
C      1  0.5366020000000  0.4655930000000  0.5338300000000 1.0
C      1  0.4523990000000  0.4655950000000  0.5147840000000 1.0
C      1  0.5502730000000  0.4620280000000  0.4900860000000 1.0
C      1  0.4834470000000  0.4620280000000  0.5484950000000 1.0
C      1  0.4662770000000  0.4620300000000  0.4614170000000 1.0
C      1  0.5441980000000  0.4818240000000  0.4719260000000 1.0
C      1  0.5022130000000  0.4818240000000  0.5523130000000 1.0
C      1  0.4535880000000  0.4818260000000  0.4757600000000 1.0
C      1  0.4572030000000  0.4726540000000  0.5423860000000 1.0
C      1  0.4846900000000  0.4726540000000  0.4417440000000 1.0
C      1  0.5581050000000  0.4726520000000  0.5158690000000 1.0
C      1  0.5543770000000  0.5155760000000  0.5315180000000 1.0
C      1  0.4455170000000  0.5155790000000  0.5313320000000 1.0
C      1  0.5001080000000  0.5155790000000  0.4371500000000 1.0
C      1  0.4734240000000  0.5618980000000  0.4891030000000 1.0
C      1  0.5227280000000  0.5618970000000  0.4824330000000 1.0
C      1  0.5038530000000  0.5618970000000  0.5284670000000 1.0
C      1  0.5079200000000  0.4452010000000  0.4727780000000 1.0
C      1  0.5196120000000  0.4452000000000  0.5204700000000 1.0
C      1  0.4724640000000  0.4452010000000  0.5067500000000 1.0
C      1  0.5300380000000  0.4815010000000  0.5585230000000 1.0
C      1  0.4342980000000  0.4815040000000  0.4967520000000 1.0
C      1  0.5356630000000  0.4815030000000  0.4447240000000 1.0
C      1  0.4828650000000  0.4965270000000  0.4283600000000 1.0
C      1  0.5706090000000  0.4965240000000  0.5209810000000 1.0
C      1  0.4465250000000  0.4965260000000  0.5506590000000 1.0
END
