TITL C-95210-3058-10 73.0964605455049 125000 -229.079394761992 0 0 33 (C1) n - 1
REM
REM in /rds/project/t2_vol4/rds-t2-cs072/BORA/CARBON/from-Arr/AIRSS/Generating-Clusters/GAP-ML-2020/Higher-Symm/SD-CG/HFTN-CG
REM
REM
REM
REM
REM
REM ./C.cell (b20cbc046b6831c77cfcea5457e17084)
REM AIRSS Version 0.9.1 bugfix July 2018 build 013d7b7c2542+ Fri, 06 Jul 2018 19:26:36 +0100
REM compiler GCC version 9.3.0
REM options -cpp -mtune=generic -march=x86-64 -g -O0
REM seed 1309985351 -1972798205 -2101167268 -863729365 2042292996 -289536722 -1794817360 -87715182 -95235956 710137562 1761927967 342786738 966185062 2063286198 -2109105196 -1057184863 -1642567525 1593315073 -348514250 -1707849289 -326440151 344559798 1673902464 -458039191 2006153402 770617442 1019707060 -1602076365 -692899837 -749026143 -1807302507 1201011982 -498984529
REM
CELL 1.54180   50.00000   50.00000   50.00000   90.00000   90.00000   90.00000
LATT -1
SFAC C  
C      1  0.5135350000000  0.5545950000000  0.5327840000000 1.0
C      1  0.5248080000000  0.5586040000000  0.5071680000000 1.0
C      1  0.4986220000000  0.5586580000000  0.4684280000000 1.0
C      1  0.4742700000000  0.5576900000000  0.4796680000000 1.0
C      1  0.4865590000000  0.5575430000000  0.5241600000000 1.0
C      1  0.5164680000000  0.4507320000000  0.4668880000000 1.0
C      1  0.5363820000000  0.4505740000000  0.4889320000000 1.0
C      1  0.5070640000000  0.4477230000000  0.5270990000000 1.0
C      1  0.4790610000000  0.4506840000000  0.5207010000000 1.0
C      1  0.4752790000000  0.4484750000000  0.4923480000000 1.0
C      1  0.5322760000000  0.4938430000000  0.4731630000000 1.0
C      1  0.4839120000000  0.4879240000000  0.4629670000000 1.0
C      1  0.4593220000000  0.4905220000000  0.5064240000000 1.0
C      1  0.4921080000000  0.4882690000000  0.5439260000000 1.0
C      1  0.5374800000000  0.4875510000000  0.5221010000000 1.0
C      1  0.5375540000000  0.5159190000000  0.5241560000000 1.0
C      1  0.4925270000000  0.5159630000000  0.5451470000000 1.0
C      1  0.4598600000000  0.5190180000000  0.5064700000000 1.0
C      1  0.4827110000000  0.5159560000000  0.4627880000000 1.0
C      1  0.5307410000000  0.5219440000000  0.4743150000000 1.0
C      1  0.5070030000000  0.5323250000000  0.4614860000000 1.0
C      1  0.4652110000000  0.5305950000000  0.4807420000000 1.0
C      1  0.4730500000000  0.5325910000000  0.5292220000000 1.0
C      1  0.5184170000000  0.5283610000000  0.5420230000000 1.0
C      1  0.5382170000000  0.5341280000000  0.4999550000000 1.0
C      1  0.5169020000000  0.4726020000000  0.5380780000000 1.0
C      1  0.4703700000000  0.4763380000000  0.5291520000000 1.0
C      1  0.4662000000000  0.4742150000000  0.4823780000000 1.0
C      1  0.5113770000000  0.4776150000000  0.4601700000000 1.0
C      1  0.5426120000000  0.4775430000000  0.4951130000000 1.0
C      1  0.4968520000000  0.5658390000000  0.4966250000000 1.0
C      1  0.4981980000000  0.4356250000000  0.4822220000000 1.0
C      1  0.5191590000000  0.4351150000000  0.5051450000000 1.0
END
