TITL C-95196-1168-7 78.2457888819697 125000 -316.810113353229 0 0 46 (Ci) n - 1
REM
REM in /rds/project/t2_vol4/rds-t2-cs072/BORA/CARBON/from-Arr/AIRSS/Generating-Clusters/GAP-ML-2020/Higher-Symm/SD-CG/HFTN-CG
REM
REM
REM
REM
REM
REM ./C.cell (b20cbc046b6831c77cfcea5457e17084)
REM AIRSS Version 0.9.1 bugfix July 2018 build 013d7b7c2542+ Fri, 06 Jul 2018 19:26:36 +0100
REM compiler GCC version 9.3.0
REM options -cpp -mtune=generic -march=x86-64 -g -O0
REM seed -59559055 -2136007083 1439687861 601005065 1970259656 1269892754 -1347783985 -1761835255 -177182728 1188059309 -2064076701 1474227981 -1659185891 1081610168 -1951993804 -177413233 1649723514 403012876 -1570386368 1586937775 -33868881 -1655211115 -1949275684 -1877848212 -2131912569 1397771922 -186389095 -1404309641 -2044822677 -1472079412 1906421807 -328045180 1077796397
REM
CELL 1.54180   50.00000   50.00000   50.00000   90.00000   90.00000   90.00000
LATT -1
SFAC C  
C      1  0.4574670000000  0.4646470000000  0.5040590000000 1.0
C      1  0.5425330000000  0.5353530000000  0.4959410000000 1.0
C      1  0.4426250000000  0.5271770000000  0.5168190000000 1.0
C      1  0.5573750000000  0.4728230000000  0.4831810000000 1.0
C      1  0.5284190000000  0.4843770000000  0.5427180000000 1.0
C      1  0.4715810000000  0.5156230000000  0.4572820000000 1.0
C      1  0.4828930000000  0.5614080000000  0.5032990000000 1.0
C      1  0.5171070000000  0.4385920000000  0.4967010000000 1.0
C      1  0.4556310000000  0.4764370000000  0.4770140000000 1.0
C      1  0.5443690000000  0.5235630000000  0.5229860000000 1.0
C      1  0.5175360000000  0.5058970000000  0.5582110000000 1.0
C      1  0.4824640000000  0.4941030000000  0.4417890000000 1.0
C      1  0.4635800000000  0.5483720000000  0.5206830000000 1.0
C      1  0.5364200000000  0.4516280000000  0.4793170000000 1.0
C      1  0.4490910000000  0.5068030000000  0.5368540000000 1.0
C      1  0.5509090000000  0.4931970000000  0.4631460000000 1.0
C      1  0.4896640000000  0.5003750000000  0.5602260000000 1.0
C      1  0.5103360000000  0.4996250000000  0.4397740000000 1.0
C      1  0.5020190000000  0.4434900000000  0.5216900000000 1.0
C      1  0.4979810000000  0.5565100000000  0.4783100000000 1.0
C      1  0.4765390000000  0.4440290000000  0.5052840000000 1.0
C      1  0.5234610000000  0.5559710000000  0.4947160000000 1.0
C      1  0.4692350000000  0.5181310000000  0.5545980000000 1.0
C      1  0.5307650000000  0.4818690000000  0.4454020000000 1.0
C      1  0.4935730000000  0.4510050000000  0.4584700000000 1.0
C      1  0.5064270000000  0.5489950000000  0.5415300000000 1.0
C      1  0.5217750000000  0.4574350000000  0.4551340000000 1.0
C      1  0.4782250000000  0.5425650000000  0.5448660000000 1.0
C      1  0.4934430000000  0.5377280000000  0.4581850000000 1.0
C      1  0.5065570000000  0.4622720000000  0.5418150000000 1.0
C      1  0.5387510000000  0.5181100000000  0.4723370000000 1.0
C      1  0.4612490000000  0.4818900000000  0.5276630000000 1.0
C      1  0.4337330000000  0.5167400000000  0.4932780000000 1.0
C      1  0.5662670000000  0.4832600000000  0.5067220000000 1.0
C      1  0.5175930000000  0.5244680000000  0.4513430000000 1.0
C      1  0.4824070000000  0.4755320000000  0.5486570000000 1.0
C      1  0.5523060000000  0.4955470000000  0.5261140000000 1.0
C      1  0.4476940000000  0.5044530000000  0.4738860000000 1.0
C      1  0.5169110000000  0.4960480000000  0.4883730000000 1.0
C      1  0.4830890000000  0.5039520000000  0.5116270000000 1.0
C      1  0.5113190000000  0.5028750000000  0.5154720000000 1.0
C      1  0.4886810000000  0.4971250000000  0.4845270000000 1.0
C      1  0.5269200000000  0.5303150000000  0.5456760000000 1.0
C      1  0.4730800000000  0.4696850000000  0.4543240000000 1.0
C      1  0.4916540000000  0.4369390000000  0.4823210000000 1.0
C      1  0.5083460000000  0.5630610000000  0.5176790000000 1.0
END
