TITL C-95181-9816-4 -32.2129366874147 125000 -381.773204636226 0 0 54 (C1) n - 1
REM
REM in /rds/project/t2_vol4/rds-t2-cs072/BORA/CARBON/from-Arr/AIRSS/Generating-Clusters/GAP-ML-2020/Higher-Symm/SD-CG/HFTN-CG
REM
REM
REM
REM
REM
REM ./C.cell (b20cbc046b6831c77cfcea5457e17084)
REM AIRSS Version 0.9.1 bugfix July 2018 build 013d7b7c2542+ Fri, 06 Jul 2018 19:26:36 +0100
REM compiler GCC version 9.3.0
REM options -cpp -mtune=generic -march=x86-64 -g -O0
REM seed 1772912125 -1365031001 2070910470 -1798865148 -2067912976 1645382770 -1276956829 -924159489 1332702756 400035108 169097058 821877148 -1939464771 1263138229 -1924661429 -666923323 1013561683 -2030349392 909684190 -430351185 -253371511 1798142053 2085058550 -1239066649 -689119524 1072842080 1369307040 -1593256553 1588061418 -576078661 2111248568 -858096393 380717458
REM
CELL 1.54180   50.00000   50.00000   50.00000   90.00000   90.00000   90.00000
LATT -1
SFAC C  
C      1  0.4922730000000  0.4888290000000  0.5628960000000 1.0
C      1  0.4903960000000  0.5656940000000  0.5323470000000 1.0
C      1  0.5037750000000  0.5468680000000  0.4554860000000 1.0
C      1  0.5033440000000  0.4683910000000  0.4378890000000 1.0
C      1  0.5045620000000  0.4300770000000  0.5085590000000 1.0
C      1  0.4649850000000  0.5286080000000  0.5533840000000 1.0
C      1  0.4739250000000  0.5685520000000  0.4862950000000 1.0
C      1  0.4802090000000  0.5087540000000  0.4366770000000 1.0
C      1  0.4799030000000  0.4386830000000  0.4676980000000 1.0
C      1  0.4763010000000  0.4469300000000  0.5454980000000 1.0
C      1  0.4567030000000  0.4518170000000  0.4815860000000 1.0
C      1  0.4520430000000  0.4598980000000  0.5352920000000 1.0
C      1  0.4438750000000  0.5315650000000  0.5324640000000 1.0
C      1  0.4518130000000  0.5480860000000  0.4828660000000 1.0
C      1  0.4564250000000  0.5008140000000  0.4542670000000 1.0
C      1  0.5470490000000  0.4994840000000  0.5201240000000 1.0
C      1  0.5462230000000  0.5278600000000  0.5135530000000 1.0
C      1  0.4907500000000  0.5244500000000  0.5048580000000 1.0
C      1  0.5132960000000  0.4867650000000  0.4848500000000 1.0
C      1  0.5408570000000  0.4832380000000  0.4974430000000 1.0
C      1  0.5287940000000  0.5319580000000  0.4594700000000 1.0
C      1  0.5282840000000  0.4605280000000  0.4492160000000 1.0
C      1  0.5278460000000  0.4441410000000  0.5193580000000 1.0
C      1  0.5159450000000  0.5042690000000  0.5583640000000 1.0
C      1  0.5169420000000  0.5646380000000  0.5213440000000 1.0
C      1  0.4790540000000  0.4583230000000  0.4468370000000 1.0
C      1  0.4799410000000  0.4329430000000  0.5204950000000 1.0
C      1  0.4670170000000  0.5006140000000  0.5591530000000 1.0
C      1  0.4693540000000  0.5694070000000  0.5148530000000 1.0
C      1  0.4798580000000  0.5353850000000  0.4460710000000 1.0
C      1  0.5315110000000  0.5431770000000  0.5332530000000 1.0
C      1  0.5384080000000  0.5404050000000  0.4867360000000 1.0
C      1  0.5459950000000  0.4833480000000  0.4482180000000 1.0
C      1  0.5422400000000  0.4541570000000  0.4969280000000 1.0
C      1  0.5345820000000  0.4881200000000  0.5432420000000 1.0
C      1  0.5288620000000  0.4442530000000  0.4719820000000 1.0
C      1  0.5237190000000  0.4611200000000  0.5420870000000 1.0
C      1  0.5142480000000  0.5316520000000  0.5532860000000 1.0
C      1  0.5217830000000  0.5634340000000  0.4938260000000 1.0
C      1  0.5296180000000  0.5073290000000  0.4444880000000 1.0
C      1  0.4881880000000  0.5443350000000  0.5516630000000 1.0
C      1  0.4995480000000  0.5658880000000  0.4761560000000 1.0
C      1  0.5046460000000  0.4964830000000  0.4337400000000 1.0
C      1  0.5047520000000  0.4318040000000  0.4796940000000 1.0
C      1  0.4976600000000  0.4618340000000  0.5547900000000 1.0
C      1  0.4552420000000  0.5297200000000  0.4625660000000 1.0
C      1  0.4563490000000  0.4737040000000  0.4605650000000 1.0
C      1  0.4555590000000  0.4460410000000  0.5088730000000 1.0
C      1  0.4468230000000  0.4862470000000  0.5426630000000 1.0
C      1  0.4473780000000  0.5504370000000  0.5124980000000 1.0
C      1  0.5904970000000  0.4702720000000  0.4695570000000 1.0
C      1  0.4341680000000  0.5057530000000  0.5272120000000 1.0
C      1  0.5722450000000  0.4784900000000  0.4542090000000 1.0
C      1  0.4935070000000  0.4992270000000  0.4991190000000 1.0
END
