TITL C-95000-4854-6 16.2471413092637 125000 -358.497177048087 0 0 53 (C1) n - 1
REM
REM in /rds/project/t2_vol4/rds-t2-cs072/BORA/CARBON/from-Arr/AIRSS/Generating-Clusters/GAP-ML-2020/Higher-Symm/SD-CG/HFTN-CG
REM
REM
REM
REM
REM
REM ./C.cell (b20cbc046b6831c77cfcea5457e17084)
REM AIRSS Version 0.9.1 bugfix July 2018 build 013d7b7c2542+ Fri, 06 Jul 2018 19:26:36 +0100
REM compiler GCC version 9.3.0
REM options -cpp -mtune=generic -march=x86-64 -g -O0
REM seed 1219172695 -698495857 1587007193 -1497055442 -1696837987 -2098142758 -1079469892 1427806 -1315651459 -784532646 -187055962 989079636 913039186 -1392986483 -1941797659 -717488357 -104199697 -141056068 -1730555221 1367874232 -1676859621 3383129 -1116831704 -589426089 1231708061 -558009922 1949989161 2057076334 -1324108617 -748619379 1674151727 1201889966 1479116183
REM
CELL 1.54180   50.00000   50.00000   50.00000   90.00000   90.00000   90.00000
LATT -1
SFAC C  
C      1  0.5264340000000  0.5389750000000  0.5455460000000 1.0
C      1  0.4750630000000  0.5404920000000  0.4538540000000 1.0
C      1  0.5199690000000  0.4661020000000  0.5620900000000 1.0
C      1  0.4790510000000  0.4624450000000  0.4501170000000 1.0
C      1  0.4785560000000  0.5634790000000  0.5428770000000 1.0
C      1  0.5140230000000  0.5355600000000  0.4497310000000 1.0
C      1  0.4741820000000  0.4615010000000  0.5428890000000 1.0
C      1  0.5250330000000  0.4673070000000  0.4516270000000 1.0
C      1  0.4422720000000  0.4739120000000  0.4775400000000 1.0
C      1  0.5418220000000  0.4741460000000  0.5203860000000 1.0
C      1  0.4434820000000  0.5183750000000  0.4811730000000 1.0
C      1  0.5588120000000  0.5153270000000  0.5201830000000 1.0
C      1  0.5473540000000  0.4802540000000  0.4941770000000 1.0
C      1  0.4413700000000  0.4795030000000  0.5058770000000 1.0
C      1  0.5568290000000  0.5170950000000  0.4695280000000 1.0
C      1  0.4475150000000  0.5226280000000  0.5318630000000 1.0
C      1  0.4612050000000  0.5395770000000  0.4785800000000 1.0
C      1  0.5421190000000  0.5385490000000  0.5212240000000 1.0
C      1  0.4617470000000  0.4548160000000  0.4715660000000 1.0
C      1  0.5116560000000  0.4716800000000  0.5227330000000 1.0
C      1  0.5306500000000  0.5296330000000  0.4744930000000 1.0
C      1  0.4641630000000  0.5455050000000  0.5266370000000 1.0
C      1  0.5214090000000  0.4788240000000  0.4783820000000 1.0
C      1  0.4606800000000  0.4616640000000  0.5180300000000 1.0
C      1  0.4801320000000  0.5408660000000  0.5025570000000 1.0
C      1  0.5293940000000  0.5478670000000  0.4977580000000 1.0
C      1  0.4755940000000  0.4525180000000  0.4958770000000 1.0
C      1  0.5048440000000  0.4607580000000  0.4967500000000 1.0
C      1  0.5473150000000  0.4776240000000  0.4376700000000 1.0
C      1  0.4748710000000  0.4889990000000  0.5485640000000 1.0
C      1  0.4732100000000  0.4914400000000  0.4472030000000 1.0
C      1  0.5339490000000  0.4898860000000  0.5612940000000 1.0
C      1  0.5080110000000  0.4267340000000  0.4716400000000 1.0
C      1  0.5118030000000  0.4274520000000  0.5257350000000 1.0
C      1  0.5005150000000  0.5754090000000  0.4743960000000 1.0
C      1  0.5000980000000  0.5748230000000  0.5279650000000 1.0
C      1  0.4542420000000  0.5059440000000  0.5531180000000 1.0
C      1  0.5551860000000  0.4991360000000  0.4490670000000 1.0
C      1  0.5511140000000  0.4936320000000  0.5382690000000 1.0
C      1  0.4475450000000  0.4964310000000  0.4621510000000 1.0
C      1  0.5040240000000  0.4470910000000  0.4512960000000 1.0
C      1  0.5033750000000  0.4514760000000  0.5432740000000 1.0
C      1  0.4976480000000  0.5587630000000  0.4533220000000 1.0
C      1  0.5094330000000  0.5607120000000  0.5490360000000 1.0
C      1  0.5081350000000  0.5064520000000  0.4803440000000 1.0
C      1  0.4996610000000  0.4987090000000  0.5306770000000 1.0
C      1  0.4915790000000  0.5147660000000  0.4528900000000 1.0
C      1  0.5189570000000  0.5113060000000  0.5494840000000 1.0
C      1  0.5031370000000  0.5618850000000  0.5003460000000 1.0
C      1  0.5155050000000  0.4310940000000  0.4983800000000 1.0
C      1  0.4390380000000  0.5082750000000  0.5081210000000 1.0
C      1  0.5619520000000  0.5042560000000  0.4943900000000 1.0
C      1  0.4936070000000  0.5128200000000  0.5047880000000 1.0
END
