TITL C-95204-2264-12 -0.00271180479787559 125000 -40.5000966821072 0 0 7 (Cs) n - 1
REM
REM in /rds/project/t2_vol4/rds-t2-cs072/BORA/CARBON/from-Arr/AIRSS/Generating-Clusters/GAP-ML-2020/Higher-Symm/SD-CG/HFTN-CG
REM
REM
REM
REM
REM
REM ./C.cell (b20cbc046b6831c77cfcea5457e17084)
REM AIRSS Version 0.9.1 bugfix July 2018 build 013d7b7c2542+ Fri, 06 Jul 2018 19:26:36 +0100
REM compiler GCC version 9.3.0
REM options -cpp -mtune=generic -march=x86-64 -g -O0
REM seed 1057040136 -43633139 -2139203382 -435896744 1980705552 -1494917323 -21804412 2082494528 -385498862 2090234486 1922803465 1807834342 -1163150312 1730879495 9544128 1218614011 1204167720 -650046690 2074670174 410291605 -1151474191 -1917213854 -2059975462 1439133490 -1060681181 546793057 -705497776 -1375300583 945433391 308488553 -174219063 802590439 -366939895
REM
CELL 1.54180   50.00000   50.00000   50.00000   90.00000   90.00000   90.00000
LATT -1
SFAC C  
C      1  0.5162630000000  0.5179730000000  0.5104500000000 1.0
C      1  0.5199270000000  0.4906260000000  0.5224520000000 1.0
C      1  0.4939500000000  0.5085050000000  0.4717550000000 1.0
C      1  0.4774300000000  0.4676910000000  0.4973090000000 1.0
C      1  0.5099000000000  0.5238350000000  0.4856870000000 1.0
C      1  0.4835050000000  0.4868630000000  0.4812370000000 1.0
C      1  0.4990250000000  0.5045070000000  0.5311090000000 1.0
END
