TITL C-95186-68-5 -0.0137121369606811 125000 -171.096055851801 0 0 26 (C2h) n - 1
REM
REM in /rds/project/t2_vol4/rds-t2-cs072/BORA/CARBON/from-Arr/AIRSS/Generating-Clusters/GAP-ML-2020/Higher-Symm/SD-CG/HFTN-CG
REM
REM
REM
REM
REM
REM ./C.cell (b20cbc046b6831c77cfcea5457e17084)
REM AIRSS Version 0.9.1 bugfix July 2018 build 013d7b7c2542+ Fri, 06 Jul 2018 19:26:36 +0100
REM compiler GCC version 9.3.0
REM options -cpp -mtune=generic -march=x86-64 -g -O0
REM seed 991887960 -127683496 -1968808672 1882092481 437253949 337530660 -1167377203 -1334827144 355368882 -1611121225 1577796156 1407802875 -259155452 20878261 -930718449 -1053983236 708150375 -1373156221 -1121365453 -1316631429 1205354954 1219811769 1252965085 -921115045 716819568 22498048 233362910 -932182311 -300670148 -486655086 2087499377 612458207 1596515849
REM
CELL 1.54180   50.00000   50.00000   50.00000   90.00000   90.00000   90.00000
LATT -1
SFAC C  
C      1  0.5147400000000  0.4459940000000  0.5144480000000 1.0
C      1  0.5147430000000  0.5540050000000  0.4855500000000 1.0
C      1  0.4856030000000  0.4459950000000  0.5144500000000 1.0
C      1  0.4856060000000  0.5540060000000  0.4855520000000 1.0
C      1  0.4851160000000  0.5522290000000  0.5141760000000 1.0
C      1  0.4851100000000  0.4477720000000  0.4858250000000 1.0
C      1  0.5152360000000  0.5522280000000  0.5141750000000 1.0
C      1  0.5152310000000  0.4477710000000  0.4858240000000 1.0
C      1  0.5359540000000  0.5385530000000  0.5266430000000 1.0
C      1  0.5359490000000  0.4614440000000  0.4733540000000 1.0
C      1  0.4643970000000  0.5385560000000  0.5266460000000 1.0
C      1  0.4643920000000  0.4614470000000  0.4733570000000 1.0
C      1  0.4578910000000  0.4867440000000  0.5159100000000 1.0
C      1  0.4578910000000  0.5132590000000  0.4840940000000 1.0
C      1  0.5424550000000  0.4867410000000  0.5159060000000 1.0
C      1  0.5424550000000  0.5132560000000  0.4840900000000 1.0
C      1  0.4766060000000  0.4695370000000  0.5288100000000 1.0
C      1  0.4766060000000  0.5304650000000  0.4711920000000 1.0
C      1  0.5237410000000  0.4695350000000  0.5288080000000 1.0
C      1  0.5237400000000  0.5304630000000  0.4711900000000 1.0
C      1  0.4567820000000  0.4842010000000  0.4862990000000 1.0
C      1  0.4567840000000  0.5158020000000  0.5137050000000 1.0
C      1  0.5435620000000  0.4841980000000  0.4862950000000 1.0
C      1  0.5435650000000  0.5157990000000  0.5137010000000 1.0
C      1  0.5001740000000  0.4771880000000  0.5436500000000 1.0
C      1  0.5001720000000  0.5228120000000  0.4563500000000 1.0
END
