TITL C-95001-4108-1 -62.2573691502383 125000 -140.868124373115 0 0 22 (Cs) n - 1
REM
REM in /rds/project/t2_vol4/rds-t2-cs072/BORA/CARBON/from-Arr/AIRSS/Generating-Clusters/GAP-ML-2020/Higher-Symm/SD-CG/HFTN-CG
REM
REM
REM
REM
REM
REM ./C.cell (b20cbc046b6831c77cfcea5457e17084)
REM AIRSS Version 0.9.1 bugfix July 2018 build 013d7b7c2542+ Fri, 06 Jul 2018 19:26:36 +0100
REM compiler GCC version 9.3.0
REM options -cpp -mtune=generic -march=x86-64 -g -O0
REM seed -1699120823 987735505 187623880 -728349291 -404724066 741209477 1559745202 -1518202340 -1332836163 -106434765 811794227 1135354655 -627137798 -590525932 -1021695546 696319748 48935174 -814631897 -524645105 918653801 -1253067776 2091263150 -199652428 522647764 620754443 2043559989 -1476011948 1717010201 -658238755 -770104495 -2128424808 711664925 1207644041
REM
CELL 1.54180   50.00000   50.00000   50.00000   90.00000   90.00000   90.00000
LATT -1
SFAC C  
C      1  0.4627860000000  0.5126070000000  0.5049480000000 1.0
C      1  0.5007150000000  0.5167180000000  0.5328630000000 1.0
C      1  0.5456260000000  0.5041460000000  0.5199770000000 1.0
C      1  0.5234690000000  0.5174210000000  0.4790630000000 1.0
C      1  0.4770600000000  0.5130490000000  0.4711990000000 1.0
C      1  0.4657110000000  0.4845020000000  0.5113370000000 1.0
C      1  0.4927550000000  0.4875860000000  0.5395290000000 1.0
C      1  0.5301490000000  0.4800910000000  0.5131170000000 1.0
C      1  0.5229800000000  0.4885210000000  0.4680650000000 1.0
C      1  0.4839440000000  0.4850660000000  0.4682250000000 1.0
C      1  0.5328880000000  0.4709750000000  0.4870970000000 1.0
C      1  0.5037960000000  0.4789670000000  0.4512100000000 1.0
C      1  0.4769040000000  0.4694440000000  0.4904580000000 1.0
C      1  0.4673900000000  0.4778410000000  0.5372900000000 1.0
C      1  0.5134750000000  0.4703750000000  0.5329960000000 1.0
C      1  0.5396470000000  0.5245340000000  0.5021330000000 1.0
C      1  0.4992200000000  0.5323870000000  0.4752000000000 1.0
C      1  0.4526920000000  0.5176400000000  0.4808490000000 1.0
C      1  0.4809120000000  0.5318210000000  0.5184880000000 1.0
C      1  0.5284680000000  0.5241880000000  0.5285650000000 1.0
C      1  0.4937830000000  0.5472620000000  0.4986150000000 1.0
C      1  0.5056390000000  0.5017290000000  0.5030330000000 1.0
END
