TITL C-95196-1168-6 1091.85294867955 125000 -629.460553144966 0 0 89 (C1) n - 1
REM
REM in /rds/project/t2_vol4/rds-t2-cs072/BORA/CARBON/from-Arr/AIRSS/Generating-Clusters/GAP-ML-2020/Higher-Symm/SD-CG/HFTN-CG
REM
REM
REM
REM
REM
REM ./C.cell (b20cbc046b6831c77cfcea5457e17084)
REM AIRSS Version 0.9.1 bugfix July 2018 build 013d7b7c2542+ Fri, 06 Jul 2018 19:26:36 +0100
REM compiler GCC version 9.3.0
REM options -cpp -mtune=generic -march=x86-64 -g -O0
REM seed 721369785 806405948 -174339874 318830564 20361432 -13045002 -1007695088 1794863223 454596079 -1092098435 -1093057129 524589042 -129441750 -1033473427 1793343027 -45443948 1331323510 -1558102707 -2036379295 -1565374545 -133501324 1058955705 539711536 -1420296516 -572100738 -2140164402 -284461907 1966625963 -1018963703 -1123200476 -1015139917 -1250783345 -1647187121
REM
CELL 1.54180   50.00000   50.00000   50.00000   90.00000   90.00000   90.00000
LATT -1
SFAC C  
C      1  0.5530050000000  0.4828060000000  0.5552980000000 1.0
C      1  0.5522120000000  0.5134300000000  0.5547150000000 1.0
C      1  0.5032840000000  0.4451930000000  0.4404050000000 1.0
C      1  0.5047190000000  0.5552540000000  0.4406050000000 1.0
C      1  0.4699150000000  0.5125380000000  0.4939570000000 1.0
C      1  0.4710780000000  0.4847960000000  0.4973250000000 1.0
C      1  0.4560090000000  0.4559660000000  0.5443800000000 1.0
C      1  0.4412560000000  0.5499960000000  0.5524170000000 1.0
C      1  0.4384060000000  0.4408850000000  0.5253270000000 1.0
C      1  0.4396790000000  0.5512290000000  0.5224600000000 1.0
C      1  0.5384820000000  0.5260820000000  0.4508630000000 1.0
C      1  0.5380300000000  0.4735360000000  0.4504950000000 1.0
C      1  0.5437810000000  0.5695310000000  0.5303800000000 1.0
C      1  0.5424430000000  0.4290190000000  0.5292290000000 1.0
C      1  0.4616480000000  0.4676480000000  0.5682090000000 1.0
C      1  0.4535950000000  0.5345780000000  0.5686280000000 1.0
C      1  0.5231350000000  0.4155790000000  0.5124650000000 1.0
C      1  0.5228810000000  0.5815000000000  0.5144780000000 1.0
C      1  0.4524910000000  0.5221940000000  0.5156090000000 1.0
C      1  0.4558220000000  0.4774530000000  0.5233080000000 1.0
C      1  0.4179180000000  0.4589260000000  0.5154640000000 1.0
C      1  0.4153670000000  0.5353350000000  0.5090780000000 1.0
C      1  0.4504470000000  0.4283670000000  0.5021020000000 1.0
C      1  0.4506800000000  0.5685490000000  0.5015000000000 1.0
C      1  0.4743970000000  0.4863250000000  0.4282190000000 1.0
C      1  0.4754870000000  0.5154860000000  0.4259440000000 1.0
C      1  0.4768030000000  0.5183950000000  0.5718040000000 1.0
C      1  0.4795170000000  0.4885490000000  0.5735430000000 1.0
C      1  0.5895130000000  0.5133740000000  0.5234260000000 1.0
C      1  0.5894090000000  0.4842710000000  0.5232250000000 1.0
C      1  0.5031530000000  0.4876440000000  0.5347360000000 1.0
C      1  0.5014300000000  0.5150160000000  0.5324260000000 1.0
C      1  0.4968770000000  0.5777580000000  0.5258660000000 1.0
C      1  0.4969220000000  0.4155350000000  0.5238520000000 1.0
C      1  0.4249980000000  0.5106360000000  0.5195900000000 1.0
C      1  0.4258960000000  0.4843410000000  0.5251670000000 1.0
C      1  0.4831370000000  0.5668160000000  0.4545800000000 1.0
C      1  0.4813200000000  0.4348180000000  0.4548510000000 1.0
C      1  0.4975820000000  0.4723540000000  0.4341520000000 1.0
C      1  0.4988510000000  0.5281620000000  0.4331730000000 1.0
C      1  0.5051900000000  0.4800640000000  0.5628110000000 1.0
C      1  0.4993260000000  0.5309150000000  0.5566990000000 1.0
C      1  0.4572360000000  0.5528110000000  0.4537840000000 1.0
C      1  0.4556210000000  0.4499490000000  0.4555800000000 1.0
C      1  0.4127360000000  0.4857230000000  0.4782680000000 1.0
C      1  0.4185130000000  0.5098400000000  0.4672270000000 1.0
C      1  0.5704400000000  0.5287680000000  0.5358180000000 1.0
C      1  0.5706620000000  0.4684130000000  0.5357810000000 1.0
C      1  0.5923280000000  0.4845220000000  0.4942580000000 1.0
C      1  0.5924870000000  0.5136710000000  0.4943910000000 1.0
C      1  0.5105720000000  0.5142850000000  0.4573920000000 1.0
C      1  0.5105360000000  0.4852220000000  0.4579980000000 1.0
C      1  0.4917650000000  0.4196580000000  0.4776190000000 1.0
C      1  0.4927910000000  0.5800170000000  0.4787560000000 1.0
C      1  0.4198350000000  0.5365610000000  0.4811630000000 1.0
C      1  0.4177990000000  0.4604310000000  0.4864460000000 1.0
C      1  0.5125310000000  0.5250120000000  0.5069650000000 1.0
C      1  0.5141000000000  0.4744830000000  0.5095690000000 1.0
C      1  0.5763930000000  0.4691160000000  0.4777170000000 1.0
C      1  0.5770510000000  0.5296000000000  0.4779430000000 1.0
C      1  0.5027920000000  0.5613220000000  0.5493920000000 1.0
C      1  0.5038220000000  0.4260540000000  0.5483690000000 1.0
C      1  0.4403760000000  0.5563170000000  0.4762030000000 1.0
C      1  0.4396980000000  0.4423320000000  0.4780160000000 1.0
C      1  0.4518960000000  0.4775360000000  0.4427060000000 1.0
C      1  0.4534190000000  0.5273650000000  0.4388530000000 1.0
C      1  0.5371040000000  0.5132750000000  0.5024810000000 1.0
C      1  0.5380870000000  0.4873370000000  0.5036900000000 1.0
C      1  0.5318670000000  0.5536380000000  0.4516500000000 1.0
C      1  0.5308170000000  0.4461450000000  0.4510220000000 1.0
C      1  0.5279950000000  0.4391040000000  0.5524110000000 1.0
C      1  0.5309840000000  0.5587470000000  0.5535260000000 1.0
C      1  0.5212270000000  0.5805590000000  0.4864980000000 1.0
C      1  0.5205720000000  0.4181990000000  0.4847940000000 1.0
C      1  0.5420270000000  0.4333520000000  0.4737600000000 1.0
C      1  0.5429150000000  0.5660770000000  0.4747140000000 1.0
C      1  0.5640500000000  0.5526070000000  0.4900830000000 1.0
C      1  0.5628010000000  0.4464050000000  0.4897170000000 1.0
C      1  0.4768340000000  0.4174930000000  0.5020080000000 1.0
C      1  0.4773400000000  0.5789420000000  0.5032500000000 1.0
C      1  0.4947910000000  0.5236120000000  0.4850140000000 1.0
C      1  0.4958870000000  0.4741350000000  0.4881740000000 1.0
C      1  0.5314160000000  0.5313310000000  0.5627580000000 1.0
C      1  0.5304830000000  0.4660690000000  0.5636470000000 1.0
C      1  0.5625520000000  0.4850390000000  0.4573890000000 1.0
C      1  0.5627960000000  0.5140580000000  0.4575190000000 1.0
C      1  0.5625270000000  0.4451340000000  0.5188380000000 1.0
C      1  0.5631530000000  0.5526850000000  0.5192420000000 1.0
C      1  0.4380770000000  0.5042530000000  0.4476120000000 1.0
END
