TITL C-95001-4108-7 -49.6120428473917 125000 -268.105891301713 0 0 40 (C1) n - 1
REM
REM in /rds/project/t2_vol4/rds-t2-cs072/BORA/CARBON/from-Arr/AIRSS/Generating-Clusters/GAP-ML-2020/Higher-Symm/SD-CG/HFTN-CG
REM
REM
REM
REM
REM
REM ./C.cell (b20cbc046b6831c77cfcea5457e17084)
REM AIRSS Version 0.9.1 bugfix July 2018 build 013d7b7c2542+ Fri, 06 Jul 2018 19:26:36 +0100
REM compiler GCC version 9.3.0
REM options -cpp -mtune=generic -march=x86-64 -g -O0
REM seed -1790009195 1981865938 1746940004 1256656842 1688021859 1326535057 1794350966 1733909975 38612897 1070152271 1820025636 -532798289 -240666599 1901853521 -1658540806 198721125 -307156192 1883908879 -570462827 1434011153 -1690819973 597213557 1520352848 1758596072 1851268285 1245260756 1460349083 -1147635501 -1355303816 -681522427 -1112824791 -386545434 -1566872247
REM
CELL 1.54180   50.00000   50.00000   50.00000   90.00000   90.00000   90.00000
LATT -1
SFAC C  
C      1  0.5627770000000  0.5032320000000  0.4669000000000 1.0
C      1  0.5578970000000  0.5184070000000  0.4909190000000 1.0
C      1  0.5217600000000  0.5206070000000  0.5411350000000 1.0
C      1  0.4944370000000  0.5245190000000  0.5502950000000 1.0
C      1  0.4785220000000  0.5011740000000  0.5528800000000 1.0
C      1  0.4506730000000  0.5002680000000  0.5455580000000 1.0
C      1  0.4374930000000  0.5048890000000  0.4742840000000 1.0
C      1  0.4303320000000  0.5152660000000  0.4509510000000 1.0
C      1  0.4557380000000  0.5065330000000  0.4494690000000 1.0
C      1  0.5235200000000  0.5257480000000  0.4466830000000 1.0
C      1  0.5466930000000  0.5074550000000  0.4443310000000 1.0
C      1  0.5452120000000  0.4822280000000  0.4778640000000 1.0
C      1  0.5429950000000  0.4967690000000  0.5033900000000 1.0
C      1  0.5276030000000  0.4956310000000  0.5274470000000 1.0
C      1  0.5105050000000  0.4734550000000  0.5339170000000 1.0
C      1  0.4922860000000  0.4773030000000  0.5537960000000 1.0
C      1  0.4464720000000  0.4950800000000  0.5213010000000 1.0
C      1  0.4503940000000  0.4915470000000  0.4942030000000 1.0
C      1  0.4757760000000  0.4806260000000  0.4819570000000 1.0
C      1  0.4796440000000  0.4953640000000  0.4561470000000 1.0
C      1  0.5059890000000  0.5022770000000  0.4489330000000 1.0
C      1  0.5290090000000  0.4851240000000  0.4529580000000 1.0
C      1  0.5072080000000  0.5696040000000  0.4701470000000 1.0
C      1  0.5270550000000  0.5479980000000  0.4653060000000 1.0
C      1  0.5450010000000  0.5437260000000  0.4871390000000 1.0
C      1  0.5418020000000  0.5582970000000  0.5111680000000 1.0
C      1  0.5314640000000  0.5462790000000  0.5347770000000 1.0
C      1  0.5096240000000  0.5662460000000  0.5357390000000 1.0
C      1  0.4858890000000  0.5511270000000  0.5418860000000 1.0
C      1  0.4607600000000  0.5583670000000  0.5320650000000 1.0
C      1  0.4530970000000  0.5651180000000  0.5086540000000 1.0
C      1  0.4584110000000  0.5665480000000  0.4827020000000 1.0
C      1  0.4797950000000  0.5668580000000  0.4686470000000 1.0
C      1  0.5139560000000  0.5910640000000  0.4883120000000 1.0
C      1  0.5050360000000  0.4511390000000  0.5141930000000 1.0
C      1  0.4930230000000  0.4634950000000  0.4928290000000 1.0
C      1  0.5153380000000  0.4008340000000  0.5234320000000 1.0
C      1  0.5099410000000  0.4253030000000  0.5189130000000 1.0
C      1  0.5206010000000  0.5788840000000  0.5114020000000 1.0
C      1  0.5027970000000  0.3792610000000  0.5303900000000 1.0
END
