TITL C-95189-184-4 0.0862587135603287 125000 -293.016671379724 0 0 44 (C1) n - 1
REM
REM in /rds/project/t2_vol4/rds-t2-cs072/BORA/CARBON/from-Arr/AIRSS/Generating-Clusters/GAP-ML-2020/Higher-Symm/SD-CG/HFTN-CG
REM
REM
REM
REM
REM
REM ./C.cell (b20cbc046b6831c77cfcea5457e17084)
REM AIRSS Version 0.9.1 bugfix July 2018 build 013d7b7c2542+ Fri, 06 Jul 2018 19:26:36 +0100
REM compiler GCC version 9.3.0
REM options -cpp -mtune=generic -march=x86-64 -g -O0
REM seed -395680296 12436329 -1206478029 -750213479 899565234 860913541 603483699 581874382 1895282831 -1829256761 -979869517 -335127951 -1380864745 1801654294 -1981515603 -667657812 -1159335511 -1128865272 219391518 -2073604147 720424133 2048266032 506379359 -406475232 -194729008 791719123 -1587791544 207380775 1760076221 -281773710 -310670733 1140593036 -1663658321
REM
CELL 1.54180   50.00000   50.00000   50.00000   90.00000   90.00000   90.00000
LATT -1
SFAC C  
C      1  0.4364740000000  0.4822430000000  0.4827920000000 1.0
C      1  0.4633310000000  0.4825210000000  0.4724070000000 1.0
C      1  0.5068000000000  0.4487840000000  0.5160540000000 1.0
C      1  0.5306830000000  0.4760330000000  0.5502940000000 1.0
C      1  0.4817290000000  0.4599200000000  0.4705240000000 1.0
C      1  0.5351970000000  0.5541170000000  0.5590990000000 1.0
C      1  0.4563710000000  0.5292370000000  0.4569980000000 1.0
C      1  0.5311010000000  0.5527890000000  0.4698340000000 1.0
C      1  0.5425680000000  0.5293110000000  0.4586740000000 1.0
C      1  0.5110420000000  0.4642480000000  0.4695960000000 1.0
C      1  0.4745290000000  0.5048870000000  0.4864260000000 1.0
C      1  0.5469580000000  0.4734000000000  0.5024770000000 1.0
C      1  0.4593310000000  0.4616620000000  0.5216310000000 1.0
C      1  0.5584370000000  0.4861880000000  0.4792000000000 1.0
C      1  0.4793390000000  0.4465700000000  0.5075660000000 1.0
C      1  0.4761290000000  0.5272040000000  0.5328490000000 1.0
C      1  0.4720950000000  0.5448720000000  0.5095390000000 1.0
C      1  0.5544810000000  0.4746940000000  0.4552740000000 1.0
C      1  0.4368680000000  0.4735950000000  0.5093350000000 1.0
C      1  0.5312000000000  0.5319890000000  0.5453440000000 1.0
C      1  0.4320810000000  0.5109720000000  0.4940570000000 1.0
C      1  0.4736120000000  0.5272640000000  0.4380980000000 1.0
C      1  0.4535820000000  0.5278550000000  0.4860120000000 1.0
C      1  0.4581440000000  0.5056510000000  0.5360010000000 1.0
C      1  0.5040800000000  0.5169780000000  0.5414180000000 1.0
C      1  0.4984280000000  0.5159210000000  0.4769210000000 1.0
C      1  0.5192800000000  0.5116610000000  0.4940680000000 1.0
C      1  0.5470740000000  0.5237660000000  0.5013710000000 1.0
C      1  0.5284840000000  0.4812370000000  0.4526890000000 1.0
C      1  0.5113140000000  0.4993200000000  0.5177500000000 1.0
C      1  0.4907790000000  0.5606340000000  0.4968000000000 1.0
C      1  0.5413800000000  0.4885380000000  0.5272890000000 1.0
C      1  0.4716660000000  0.4372210000000  0.4826730000000 1.0
C      1  0.5502630000000  0.5164910000000  0.5285820000000 1.0
C      1  0.5134870000000  0.5667310000000  0.4834480000000 1.0
C      1  0.5081440000000  0.4935340000000  0.5606980000000 1.0
C      1  0.5239540000000  0.4579040000000  0.4950580000000 1.0
C      1  0.4685030000000  0.4792290000000  0.5414660000000 1.0
C      1  0.4905410000000  0.4722610000000  0.5563140000000 1.0
C      1  0.5602780000000  0.5158690000000  0.4782700000000 1.0
C      1  0.4984800000000  0.5184940000000  0.4482750000000 1.0
C      1  0.4352950000000  0.5011360000000  0.5196180000000 1.0
C      1  0.5110800000000  0.4566950000000  0.5427020000000 1.0
C      1  0.5254070000000  0.5103720000000  0.4445100000000 1.0
END
