TITL C-95210-3058-8 2.42866563646951 125000 -159.61055225543 0 0 26 (C3) n - 1
REM
REM in /rds/project/t2_vol4/rds-t2-cs072/BORA/CARBON/from-Arr/AIRSS/Generating-Clusters/GAP-ML-2020/Higher-Symm/SD-CG/HFTN-CG
REM
REM
REM
REM
REM
REM ./C.cell (b20cbc046b6831c77cfcea5457e17084)
REM AIRSS Version 0.9.1 bugfix July 2018 build 013d7b7c2542+ Fri, 06 Jul 2018 19:26:36 +0100
REM compiler GCC version 9.3.0
REM options -cpp -mtune=generic -march=x86-64 -g -O0
REM seed -1043656842 -1275733365 -223867156 -60456441 -1870201924 -1519906419 1924155140 299702061 494221468 -921145572 -1894936687 -338530086 -66618271 168739453 719925912 818696257 1342572275 -1441670242 -1980796977 -697982881 1555325498 473549698 -645849242 -1202135796 -870932458 -730535555 1806115416 -2029432039 -1123516989 1520001003 -1064219882 1936542800 329241136
REM
CELL 1.54180   50.00000   50.00000   50.00000   90.00000   90.00000   90.00000
LATT -1
SFAC C  
C      1  0.4521140000000  0.4951080000000  0.5181030000000 1.0
C      1  0.4521250000000  0.5136170000000  0.4975930000000 1.0
C      1  0.4520770000000  0.4866000000000  0.4918190000000 1.0
C      1  0.5164020000000  0.4643160000000  0.5320830000000 1.0
C      1  0.5165100000000  0.5410170000000  0.5170960000000 1.0
C      1  0.5163760000000  0.4896870000000  0.4581650000000 1.0
C      1  0.5075570000000  0.5089090000000  0.5459620000000 1.0
C      1  0.5075250000000  0.5307540000000  0.4715620000000 1.0
C      1  0.5074220000000  0.4553990000000  0.4898430000000 1.0
C      1  0.4694000000000  0.4941060000000  0.5392090000000 1.0
C      1  0.4694150000000  0.5323680000000  0.4878610000000 1.0
C      1  0.4693070000000  0.4687690000000  0.4804000000000 1.0
C      1  0.4953760000000  0.5431670000000  0.4965250000000 1.0
C      1  0.4952340000000  0.4708300000000  0.4666450000000 1.0
C      1  0.4953200000000  0.4811220000000  0.5442310000000 1.0
C      1  0.5034000000000  0.4760010000000  0.4404340000000 1.0
C      1  0.5034690000000  0.4558240000000  0.5528360000000 1.0
C      1  0.5036050000000  0.5632560000000  0.5141080000000 1.0
C      1  0.4820130000000  0.4525860000000  0.5003110000000 1.0
C      1  0.4821570000000  0.5194210000000  0.5432330000000 1.0
C      1  0.4820920000000  0.5231750000000  0.4638920000000 1.0
C      1  0.5250440000000  0.5090200000000  0.4755860000000 1.0
C      1  0.5250100000000  0.4697220000000  0.5066060000000 1.0
C      1  0.5251000000000  0.5162350000000  0.5251290000000 1.0
C      1  0.5280080000000  0.4983210000000  0.5024370000000 1.0
C      1  0.4963810000000  0.4983710000000  0.5024660000000 1.0
END
