TITL C-95184-9807-5 91.1172915061039 125000 -164.569031165506 0 0 26 (C1) n - 1
REM
REM in /rds/project/t2_vol4/rds-t2-cs072/BORA/CARBON/from-Arr/AIRSS/Generating-Clusters/GAP-ML-2020/Higher-Symm/SD-CG/HFTN-CG
REM
REM
REM
REM
REM
REM ./C.cell (b20cbc046b6831c77cfcea5457e17084)
REM AIRSS Version 0.9.1 bugfix July 2018 build 013d7b7c2542+ Fri, 06 Jul 2018 19:26:36 +0100
REM compiler GCC version 9.3.0
REM options -cpp -mtune=generic -march=x86-64 -g -O0
REM seed -2129927638 -954312787 843042514 -1094004255 -1866653647 468138028 1037806617 -2132214678 -753442192 899798876 -1093150220 1000294935 683984400 -393788248 794069431 -1785051721 284998816 8685264 -357359196 397491876 870021417 382772805 1224481255 -2009167585 356869759 -1555525668 83830197 -665504704 -162883976 76119064 -1269239796 1466653348 813782309
REM
CELL 1.54180   50.00000   50.00000   50.00000   90.00000   90.00000   90.00000
LATT -1
SFAC C  
C      1  0.4897570000000  0.4921210000000  0.5015790000000 1.0
C      1  0.5508120000000  0.5153290000000  0.5142160000000 1.0
C      1  0.4785870000000  0.5105820000000  0.4818020000000 1.0
C      1  0.4824630000000  0.5230770000000  0.5356930000000 1.0
C      1  0.5398340000000  0.5377160000000  0.5001370000000 1.0
C      1  0.5055560000000  0.4688920000000  0.5429290000000 1.0
C      1  0.4603400000000  0.5290160000000  0.5241510000000 1.0
C      1  0.4602580000000  0.4540910000000  0.4955580000000 1.0
C      1  0.4834060000000  0.4381640000000  0.5080850000000 1.0
C      1  0.5290860000000  0.5066170000000  0.5320610000000 1.0
C      1  0.4994020000000  0.4471090000000  0.4842200000000 1.0
C      1  0.5346860000000  0.4857240000000  0.4818540000000 1.0
C      1  0.5108290000000  0.4730200000000  0.4896320000000 1.0
C      1  0.5181070000000  0.5194060000000  0.4476380000000 1.0
C      1  0.5040160000000  0.5138290000000  0.5181430000000 1.0
C      1  0.5350520000000  0.5030520000000  0.4590490000000 1.0
C      1  0.5249100000000  0.4848700000000  0.5486300000000 1.0
C      1  0.5132800000000  0.5333610000000  0.4966380000000 1.0
C      1  0.5020840000000  0.5241350000000  0.4707250000000 1.0
C      1  0.4852010000000  0.4557810000000  0.5312860000000 1.0
C      1  0.4697590000000  0.5727490000000  0.4721850000000 1.0
C      1  0.4693840000000  0.4756450000000  0.5147500000000 1.0
C      1  0.4643510000000  0.5311890000000  0.4964020000000 1.0
C      1  0.4574920000000  0.5542330000000  0.4842300000000 1.0
C      1  0.4740260000000  0.4558500000000  0.4720520000000 1.0
C      1  0.5573230000000  0.4944420000000  0.4963540000000 1.0
END
