TITL C-95192-1643-9 0.0306385203437797 125000 -167.56739548369 0 0 26 (D2h) n - 1
REM
REM in /rds/project/t2_vol4/rds-t2-cs072/BORA/CARBON/from-Arr/AIRSS/Generating-Clusters/GAP-ML-2020/Higher-Symm/SD-CG/HFTN-CG
REM
REM
REM
REM
REM
REM ./C.cell (b20cbc046b6831c77cfcea5457e17084)
REM AIRSS Version 0.9.1 bugfix July 2018 build 013d7b7c2542+ Fri, 06 Jul 2018 19:26:36 +0100
REM compiler GCC version 9.3.0
REM options -cpp -mtune=generic -march=x86-64 -g -O0
REM seed -830115309 -1983217971 -2127200041 -1163802957 -2042448193 -981666115 625937084 1205941256 883221678 -1039029476 -1875288788 -447749674 1971211494 -2049199224 -1945031790 1869417909 -58270815 -1103362284 -214289313 815099498 941502933 -1006902080 -1156079896 1209462103 567298645 106911434 -1499411354 -1560045599 1036732191 137501186 1096343724 731503058 -1342672275
REM
CELL 1.54180   50.00000   50.00000   50.00000   90.00000   90.00000   90.00000
LATT -1
SFAC C  
C      1  0.4706930000000  0.5364410000000  0.5336190000000 1.0
C      1  0.5293320000000  0.5364220000000  0.4663830000000 1.0
C      1  0.4706680000000  0.4605090000000  0.5336170000000 1.0
C      1  0.5293070000000  0.4604910000000  0.4663810000000 1.0
C      1  0.5293270000000  0.5364210000000  0.5336240000000 1.0
C      1  0.4706980000000  0.5364420000000  0.4663780000000 1.0
C      1  0.5293020000000  0.4604900000000  0.5336220000000 1.0
C      1  0.4706730000000  0.4605100000000  0.4663760000000 1.0
C      1  0.4852480000000  0.4473520000000  0.4852090000000 1.0
C      1  0.5147180000000  0.4473420000000  0.5147890000000 1.0
C      1  0.4852820000000  0.5495900000000  0.4852110000000 1.0
C      1  0.5147520000000  0.5495800000000  0.5147910000000 1.0
C      1  0.5147210000000  0.4473420000000  0.4852120000000 1.0
C      1  0.4852460000000  0.4473510000000  0.5147860000000 1.0
C      1  0.5147540000000  0.5495800000000  0.4852140000000 1.0
C      1  0.4852790000000  0.5495890000000  0.5147880000000 1.0
C      1  0.4864110000000  0.5242600000000  0.4471970000000 1.0
C      1  0.5136060000000  0.5242490000000  0.5528040000000 1.0
C      1  0.4863940000000  0.4726830000000  0.4471960000000 1.0
C      1  0.5135890000000  0.4726720000000  0.5528030000000 1.0
C      1  0.5136150000000  0.5242510000000  0.4471990000000 1.0
C      1  0.4864020000000  0.5242580000000  0.5528020000000 1.0
C      1  0.5135980000000  0.4726740000000  0.4471980000000 1.0
C      1  0.4863850000000  0.4726810000000  0.5528010000000 1.0
C      1  0.4999950000000  0.4984650000000  0.5589830000000 1.0
C      1  0.5000050000000  0.4984670000000  0.4410170000000 1.0
END
