TITL C-95183-1533-8 -18.0263249260802 125000 -648.828124064432 0 0 94 (C1) n - 1
REM
REM in /rds/project/t2_vol4/rds-t2-cs072/BORA/CARBON/from-Arr/AIRSS/Generating-Clusters/GAP-ML-2020/Higher-Symm/SD-CG/HFTN-CG
REM
REM
REM
REM
REM
REM ./C.cell (b20cbc046b6831c77cfcea5457e17084)
REM AIRSS Version 0.9.1 bugfix July 2018 build 013d7b7c2542+ Fri, 06 Jul 2018 19:26:36 +0100
REM compiler GCC version 9.3.0
REM options -cpp -mtune=generic -march=x86-64 -g -O0
REM seed -1437109194 -202753431 1289756946 899586881 -1745827993 1075360328 -604161598 -958202613 -1793775182 -294292457 1931133805 2117415047 -1304663663 1402353708 193582980 -533467007 -1296087123 -1648765868 -1823115159 -1315751905 831870385 1336384181 -2124724846 -357143357 196423902 441466461 801692210 628118143 -1804886887 1411791530 2006244933 -1139208935 -1499425708
REM
CELL 1.54180   50.00000   50.00000   50.00000   90.00000   90.00000   90.00000
LATT -1
SFAC C  
C      1  0.5797250000000  0.5245950000000  0.5008680000000 1.0
C      1  0.4236290000000  0.5192390000000  0.4892250000000 1.0
C      1  0.5197070000000  0.4438210000000  0.5780680000000 1.0
C      1  0.4735180000000  0.4415890000000  0.4210700000000 1.0
C      1  0.5736070000000  0.5464370000000  0.4801970000000 1.0
C      1  0.4219020000000  0.5421900000000  0.5094040000000 1.0
C      1  0.5359290000000  0.4387050000000  0.5059630000000 1.0
C      1  0.4669950000000  0.4346470000000  0.4954520000000 1.0
C      1  0.5594910000000  0.4849100000000  0.4285140000000 1.0
C      1  0.4378380000000  0.4858800000000  0.5673970000000 1.0
C      1  0.5718540000000  0.5417390000000  0.4524190000000 1.0
C      1  0.4244430000000  0.5406940000000  0.5385550000000 1.0
C      1  0.4772470000000  0.5105900000000  0.5179090000000 1.0
C      1  0.5104780000000  0.5131690000000  0.4759100000000 1.0
C      1  0.5199120000000  0.4637970000000  0.5096460000000 1.0
C      1  0.4804350000000  0.4594310000000  0.4880320000000 1.0
C      1  0.5101640000000  0.5658900000000  0.4377920000000 1.0
C      1  0.4928130000000  0.5656580000000  0.5632810000000 1.0
C      1  0.4824700000000  0.5607170000000  0.4348900000000 1.0
C      1  0.5155210000000  0.5586500000000  0.5781430000000 1.0
C      1  0.4852730000000  0.4879450000000  0.5311160000000 1.0
C      1  0.5116200000000  0.4868220000000  0.4644180000000 1.0
C      1  0.4580770000000  0.4380030000000  0.5482100000000 1.0
C      1  0.5379340000000  0.4377470000000  0.4516180000000 1.0
C      1  0.5896180000000  0.4897340000000  0.4676840000000 1.0
C      1  0.4091650000000  0.4890350000000  0.5267000000000 1.0
C      1  0.5646560000000  0.4758640000000  0.5062210000000 1.0
C      1  0.4369260000000  0.4718950000000  0.4918750000000 1.0
C      1  0.4723500000000  0.5066360000000  0.4911210000000 1.0
C      1  0.5358980000000  0.5116290000000  0.5193590000000 1.0
C      1  0.4766860000000  0.5406270000000  0.5562740000000 1.0
C      1  0.5243140000000  0.5435280000000  0.4262880000000 1.0
C      1  0.5381870000000  0.4633670000000  0.5767500000000 1.0
C      1  0.4495420000000  0.4526480000000  0.4192750000000 1.0
C      1  0.6079670000000  0.5061930000000  0.4543230000000 1.0
C      1  0.3897080000000  0.5047880000000  0.5398660000000 1.0
C      1  0.4397570000000  0.5303300000000  0.4669550000000 1.0
C      1  0.5716110000000  0.5364400000000  0.5259610000000 1.0
C      1  0.4959840000000  0.4387920000000  0.5655630000000 1.0
C      1  0.4958200000000  0.4529720000000  0.4317190000000 1.0
C      1  0.4836000000000  0.5251760000000  0.4724170000000 1.0
C      1  0.5468630000000  0.5285270000000  0.5408560000000 1.0
C      1  0.5332880000000  0.5566340000000  0.5321560000000 1.0
C      1  0.4791020000000  0.5546390000000  0.4808690000000 1.0
C      1  0.4809170000000  0.5370350000000  0.5271990000000 1.0
C      1  0.5247060000000  0.5250530000000  0.4975920000000 1.0
C      1  0.4914390000000  0.4632190000000  0.5190170000000 1.0
C      1  0.5091560000000  0.4629350000000  0.4803030000000 1.0
C      1  0.4925000000000  0.4817750000000  0.4400380000000 1.0
C      1  0.5017400000000  0.4905550000000  0.5538270000000 1.0
C      1  0.4433010000000  0.4750050000000  0.4308240000000 1.0
C      1  0.5465910000000  0.4898050000000  0.5737610000000 1.0
C      1  0.4367950000000  0.4488910000000  0.5337740000000 1.0
C      1  0.5611580000000  0.4502600000000  0.4640770000000 1.0
C      1  0.5722810000000  0.4728620000000  0.4515480000000 1.0
C      1  0.4258630000000  0.4731170000000  0.5445250000000 1.0
C      1  0.4856010000000  0.4355690000000  0.5359530000000 1.0
C      1  0.5182310000000  0.4337500000000  0.4723110000000 1.0
C      1  0.4686040000000  0.4487140000000  0.5725500000000 1.0
C      1  0.5248120000000  0.4512720000000  0.4297530000000 1.0
C      1  0.5332210000000  0.4771600000000  0.4207000000000 1.0
C      1  0.4625110000000  0.4761910000000  0.5787440000000 1.0
C      1  0.5879700000000  0.5197500000000  0.4431410000000 1.0
C      1  0.4084140000000  0.5202260000000  0.5512960000000 1.0
C      1  0.4489730000000  0.5558670000000  0.4770070000000 1.0
C      1  0.5601900000000  0.5629400000000  0.5204210000000 1.0
C      1  0.4191870000000  0.4928320000000  0.4995660000000 1.0
C      1  0.5809760000000  0.4963100000000  0.4943320000000 1.0
C      1  0.4895150000000  0.5559040000000  0.5081500000000 1.0
C      1  0.5160800000000  0.5494800000000  0.5100740000000 1.0
C      1  0.5182850000000  0.5714500000000  0.5532680000000 1.0
C      1  0.4921790000000  0.5697950000000  0.4595410000000 1.0
C      1  0.4621860000000  0.4812600000000  0.4788140000000 1.0
C      1  0.5395960000000  0.4834340000000  0.5216570000000 1.0
C      1  0.4423670000000  0.4473650000000  0.5059210000000 1.0
C      1  0.5592690000000  0.4509380000000  0.4928330000000 1.0
C      1  0.5299270000000  0.4830660000000  0.5508270000000 1.0
C      1  0.4631750000000  0.4896050000000  0.4478620000000 1.0
C      1  0.4894180000000  0.4203020000000  0.5101280000000 1.0
C      1  0.5148730000000  0.4204840000000  0.4975830000000 1.0
C      1  0.4307800000000  0.5645180000000  0.4956290000000 1.0
C      1  0.5652710000000  0.5696970000000  0.4948600000000 1.0
C      1  0.5041550000000  0.5228500000000  0.4199130000000 1.0
C      1  0.4933540000000  0.5191170000000  0.5731790000000 1.0
C      1  0.4630380000000  0.5197020000000  0.4491290000000 1.0
C      1  0.5425400000000  0.5174640000000  0.5689790000000 1.0
C      1  0.4463180000000  0.5370740000000  0.5585200000000 1.0
C      1  0.5510460000000  0.5360580000000  0.4315500000000 1.0
C      1  0.4774720000000  0.5334080000000  0.4279240000000 1.0
C      1  0.5187190000000  0.5300440000000  0.5797730000000 1.0
C      1  0.4863330000000  0.4923350000000  0.5776930000000 1.0
C      1  0.5095660000000  0.4953930000000  0.4199330000000 1.0
C      1  0.5663130000000  0.5120080000000  0.4247770000000 1.0
C      1  0.4314610000000  0.5138340000000  0.5688950000000 1.0
END
