TITL C-95203-2093-4 -95.4970609848384 125000 -829.666167883783 0 0 117 (C1) n - 1
REM
REM in /rds/project/t2_vol4/rds-t2-cs072/BORA/CARBON/from-Arr/AIRSS/Generating-Clusters/GAP-ML-2020/Higher-Symm/SD-CG/HFTN-CG
REM
REM
REM
REM
REM
REM ./C.cell (b20cbc046b6831c77cfcea5457e17084)
REM AIRSS Version 0.9.1 bugfix July 2018 build 013d7b7c2542+ Fri, 06 Jul 2018 19:26:36 +0100
REM compiler GCC version 9.3.0
REM options -cpp -mtune=generic -march=x86-64 -g -O0
REM seed 467557897 1026089215 -425332946 -1425965615 2020225527 1385589135 1577557382 2039604467 251031435 1049571910 616923996 -2090807451 2050591828 -20988182 1950908705 2000681127 221051393 641645525 1428403339 1299826850 1684469962 1611501484 -550031232 -914508077 29739849 -449529271 -466608239 -1114013370 -78587693 -1405362631 -2039098713 178867324 952222042
REM
CELL 1.54180   50.00000   50.00000   50.00000   90.00000   90.00000   90.00000
LATT -1
SFAC C  
C      1  0.5615270000000  0.5460130000000  0.5465760000000 1.0
C      1  0.4318930000000  0.5408300000000  0.5256170000000 1.0
C      1  0.5105570000000  0.5412470000000  0.4277430000000 1.0
C      1  0.4481940000000  0.5125920000000  0.5863970000000 1.0
C      1  0.4506600000000  0.5112780000000  0.4115720000000 1.0
C      1  0.6004990000000  0.5118940000000  0.5019360000000 1.0
C      1  0.4693610000000  0.5204740000000  0.4540740000000 1.0
C      1  0.5534770000000  0.5173710000000  0.4993660000000 1.0
C      1  0.4732760000000  0.5217510000000  0.5469600000000 1.0
C      1  0.5093620000000  0.5270600000000  0.4831110000000 1.0
C      1  0.5182800000000  0.5271500000000  0.5267160000000 1.0
C      1  0.4832070000000  0.5280060000000  0.4994660000000 1.0
C      1  0.4419480000000  0.5178610000000  0.4389420000000 1.0
C      1  0.5806870000000  0.5186750000000  0.4818470000000 1.0
C      1  0.4760600000000  0.5193920000000  0.5798560000000 1.0
C      1  0.4200370000000  0.5124670000000  0.5270620000000 1.0
C      1  0.5163240000000  0.5134010000000  0.4166430000000 1.0
C      1  0.5639660000000  0.5157290000000  0.5535590000000 1.0
C      1  0.5920520000000  0.4898350000000  0.5189340000000 1.0
C      1  0.4373980000000  0.4909200000000  0.5703520000000 1.0
C      1  0.4704750000000  0.4901600000000  0.4101370000000 1.0
C      1  0.4468050000000  0.4181430000000  0.4980280000000 1.0
C      1  0.5310740000000  0.4187330000000  0.4502470000000 1.0
C      1  0.5223000000000  0.4169490000000  0.5459480000000 1.0
C      1  0.5107680000000  0.5024120000000  0.4696940000000 1.0
C      1  0.5247370000000  0.4981480000000  0.5307970000000 1.0
C      1  0.4719000000000  0.5017760000000  0.5051640000000 1.0
C      1  0.5738880000000  0.4710930000000  0.4760200000000 1.0
C      1  0.4837380000000  0.4720960000000  0.5748920000000 1.0
C      1  0.4441000000000  0.4700900000000  0.4482130000000 1.0
C      1  0.4477710000000  0.5428790000000  0.5504610000000 1.0
C      1  0.4812160000000  0.5424910000000  0.4293750000000 1.0
C      1  0.5784810000000  0.5512440000000  0.5238070000000 1.0
C      1  0.4428370000000  0.4457420000000  0.4624820000000 1.0
C      1  0.5629150000000  0.4472760000000  0.4660300000000 1.0
C      1  0.4968140000000  0.4476600000000  0.5704060000000 1.0
C      1  0.5051870000000  0.5802060000000  0.4606390000000 1.0
C      1  0.5335100000000  0.5839810000000  0.5258820000000 1.0
C      1  0.4620520000000  0.5809110000000  0.5150770000000 1.0
C      1  0.5645640000000  0.5521040000000  0.4530030000000 1.0
C      1  0.5104390000000  0.5524390000000  0.5799750000000 1.0
C      1  0.4232660000000  0.5529450000000  0.4668780000000 1.0
C      1  0.4814480000000  0.3999930000000  0.5227430000000 1.0
C      1  0.4912140000000  0.3987700000000  0.4958570000000 1.0
C      1  0.5208240000000  0.4009760000000  0.4968820000000 1.0
C      1  0.4676810000000  0.5640040000000  0.5594860000000 1.0
C      1  0.4638700000000  0.5625560000000  0.4423110000000 1.0
C      1  0.5696090000000  0.5642810000000  0.4996500000000 1.0
C      1  0.4297840000000  0.4631170000000  0.5120680000000 1.0
C      1  0.5250560000000  0.4641830000000  0.4314290000000 1.0
C      1  0.5452710000000  0.4610550000000  0.5522190000000 1.0
C      1  0.4300700000000  0.4946780000000  0.4542350000000 1.0
C      1  0.5743890000000  0.4964320000000  0.4623900000000 1.0
C      1  0.4954030000000  0.4968090000000  0.5832010000000 1.0
C      1  0.4155140000000  0.5298120000000  0.4795940000000 1.0
C      1  0.5574560000000  0.5306300000000  0.4377140000000 1.0
C      1  0.5267580000000  0.5304610000000  0.5827510000000 1.0
C      1  0.5303040000000  0.5334870000000  0.5008740000000 1.0
C      1  0.4914740000000  0.5348600000000  0.5277520000000 1.0
C      1  0.4643100000000  0.5329250000000  0.4799210000000 1.0
C      1  0.4432230000000  0.4560960000000  0.5378730000000 1.0
C      1  0.4962860000000  0.4561000000000  0.4319030000000 1.0
C      1  0.5604040000000  0.4524860000000  0.5280830000000 1.0
C      1  0.4745830000000  0.4760290000000  0.4353490000000 1.0
C      1  0.5701920000000  0.4736750000000  0.5088670000000 1.0
C      1  0.4572950000000  0.4766780000000  0.5545790000000 1.0
C      1  0.4869040000000  0.4305750000000  0.4402830000000 1.0
C      1  0.5559410000000  0.4280660000000  0.5143870000000 1.0
C      1  0.4545500000000  0.4311250000000  0.5439870000000 1.0
C      1  0.5260360000000  0.4824720000000  0.4846820000000 1.0
C      1  0.4985270000000  0.4838250000000  0.5286110000000 1.0
C      1  0.4741590000000  0.4837680000000  0.4839400000000 1.0
C      1  0.5346130000000  0.4106050000000  0.5214330000000 1.0
C      1  0.4554800000000  0.4119430000000  0.5235710000000 1.0
C      1  0.5054580000000  0.4123710000000  0.4468940000000 1.0
C      1  0.5967300000000  0.5303560000000  0.5231790000000 1.0
C      1  0.4317800000000  0.5293440000000  0.5703200000000 1.0
C      1  0.4722320000000  0.5288030000000  0.4055850000000 1.0
C      1  0.5424290000000  0.4442430000000  0.4446160000000 1.0
C      1  0.5248510000000  0.4421250000000  0.5603130000000 1.0
C      1  0.4342400000000  0.4426710000000  0.4908230000000 1.0
C      1  0.5129710000000  0.4582450000000  0.4907120000000 1.0
C      1  0.4990090000000  0.4584980000000  0.5151280000000 1.0
C      1  0.4852310000000  0.4587130000000  0.4912800000000 1.0
C      1  0.4632470000000  0.4257300000000  0.4565530000000 1.0
C      1  0.5588630000000  0.4262220000000  0.4854350000000 1.0
C      1  0.4793040000000  0.4275920000000  0.5595980000000 1.0
C      1  0.4182320000000  0.5027530000000  0.4796080000000 1.0
C      1  0.5583500000000  0.5036470000000  0.4390760000000 1.0
C      1  0.5231340000000  0.5038270000000  0.5793700000000 1.0
C      1  0.4195480000000  0.5075630000000  0.5553630000000 1.0
C      1  0.4919930000000  0.5077140000000  0.4024700000000 1.0
C      1  0.5877620000000  0.5088250000000  0.5401970000000 1.0
C      1  0.5776910000000  0.5485150000000  0.4769910000000 1.0
C      1  0.4829180000000  0.5491320000000  0.5790100000000 1.0
C      1  0.4384080000000  0.5488570000000  0.4440890000000 1.0
C      1  0.4724340000000  0.4959190000000  0.5342140000000 1.0
C      1  0.4837550000000  0.4958010000000  0.4585710000000 1.0
C      1  0.5439110000000  0.4916360000000  0.5061760000000 1.0
C      1  0.5201790000000  0.5651550000000  0.4392880000000 1.0
C      1  0.5450650000000  0.5688940000000  0.5488580000000 1.0
C      1  0.4365960000000  0.5651050000000  0.5126270000000 1.0
C      1  0.5451210000000  0.5823360000000  0.4999910000000 1.0
C      1  0.4789740000000  0.5816860000000  0.5381220000000 1.0
C      1  0.4768530000000  0.5791100000000  0.4629880000000 1.0
C      1  0.5416890000000  0.4930610000000  0.5571980000000 1.0
C      1  0.4202700000000  0.4911330000000  0.5068180000000 1.0
C      1  0.5340400000000  0.4919830000000  0.4265260000000 1.0
C      1  0.4341440000000  0.5717460000000  0.4849560000000 1.0
C      1  0.5447640000000  0.5717200000000  0.4524830000000 1.0
C      1  0.5207190000000  0.5728370000000  0.5633900000000 1.0
C      1  0.4951670000000  0.4084300000000  0.5459210000000 1.0
C      1  0.4672100000000  0.4087460000000  0.4795810000000 1.0
C      1  0.5389050000000  0.4086180000000  0.4759000000000 1.0
C      1  0.5311960000000  0.5844130000000  0.4747450000000 1.0
C      1  0.5077890000000  0.5859880000000  0.5406910000000 1.0
C      1  0.4606070000000  0.5840410000000  0.4858350000000 1.0
END
