TITL C-95189-184-2 -16.407427802536 125000 -327.147095249459 0 0 49 (C1) n - 1
REM
REM in /rds/project/t2_vol4/rds-t2-cs072/BORA/CARBON/from-Arr/AIRSS/Generating-Clusters/GAP-ML-2020/Higher-Symm/SD-CG/HFTN-CG
REM
REM
REM
REM
REM
REM ./C.cell (b20cbc046b6831c77cfcea5457e17084)
REM AIRSS Version 0.9.1 bugfix July 2018 build 013d7b7c2542+ Fri, 06 Jul 2018 19:26:36 +0100
REM compiler GCC version 9.3.0
REM options -cpp -mtune=generic -march=x86-64 -g -O0
REM seed 288780316 1642953880 -838227266 1324074448 522345152 -314675959 1151960895 -1861702821 -790688619 -1183515819 1467137690 -638109704 1011890161 696434553 1647977387 -299215962 1493514889 -1798274211 1405826549 -740946408 313998545 -1664283415 1260851758 146086236 1917420873 -1757200363 -1983604049 -2086144192 -561973836 81871028 -743011029 948177305 -459676970
REM
CELL 1.54180   50.00000   50.00000   50.00000   90.00000   90.00000   90.00000
LATT -1
SFAC C  
C      1  0.4666850000000  0.5048350000000  0.4482740000000 1.0
C      1  0.4837680000000  0.5280620000000  0.4495870000000 1.0
C      1  0.5126010000000  0.5298310000000  0.4492840000000 1.0
C      1  0.5316520000000  0.5085120000000  0.4490730000000 1.0
C      1  0.5263590000000  0.4800700000000  0.4494170000000 1.0
C      1  0.5012380000000  0.4657530000000  0.4481200000000 1.0
C      1  0.4745640000000  0.4770320000000  0.4479920000000 1.0
C      1  0.4501710000000  0.5357490000000  0.5086030000000 1.0
C      1  0.4979340000000  0.5717200000000  0.5108810000000 1.0
C      1  0.5467670000000  0.5414000000000  0.5086370000000 1.0
C      1  0.5682260000000  0.4895360000000  0.5119340000000 1.0
C      1  0.5296520000000  0.4467270000000  0.5089300000000 1.0
C      1  0.4776670000000  0.4454590000000  0.5094280000000 1.0
C      1  0.4433080000000  0.4842440000000  0.5091870000000 1.0
C      1  0.5283030000000  0.4448170000000  0.4805470000000 1.0
C      1  0.4763120000000  0.4444450000000  0.4812460000000 1.0
C      1  0.4420900000000  0.4828450000000  0.4810450000000 1.0
C      1  0.4485560000000  0.5344220000000  0.4802140000000 1.0
C      1  0.4973450000000  0.5552570000000  0.4852160000000 1.0
C      1  0.5464600000000  0.5408020000000  0.4799380000000 1.0
C      1  0.5542270000000  0.4907130000000  0.4853620000000 1.0
C      1  0.4444620000000  0.5087240000000  0.4668560000000 1.0
C      1  0.4732850000000  0.5461030000000  0.4689760000000 1.0
C      1  0.5213190000000  0.5497760000000  0.4681690000000 1.0
C      1  0.5524350000000  0.5149590000000  0.4679470000000 1.0
C      1  0.5427800000000  0.4676540000000  0.4690600000000 1.0
C      1  0.5023340000000  0.4435490000000  0.4670900000000 1.0
C      1  0.4582310000000  0.4626560000000  0.4667120000000 1.0
C      1  0.5156800000000  0.4735400000000  0.5137160000000 1.0
C      1  0.4895400000000  0.4719750000000  0.5036470000000 1.0
C      1  0.4710410000000  0.4930200000000  0.5034560000000 1.0
C      1  0.4753570000000  0.5188480000000  0.5136740000000 1.0
C      1  0.4989360000000  0.5338490000000  0.5070080000000 1.0
C      1  0.5241380000000  0.5215860000000  0.5137790000000 1.0
C      1  0.5318280000000  0.4953790000000  0.5051130000000 1.0
C      1  0.5331410000000  0.4940630000000  0.5512300000000 1.0
C      1  0.5158100000000  0.4703940000000  0.5446470000000 1.0
C      1  0.4873630000000  0.4694190000000  0.5524360000000 1.0
C      1  0.4679990000000  0.4912720000000  0.5522900000000 1.0
C      1  0.4722500000000  0.5193850000000  0.5445350000000 1.0
C      1  0.4978590000000  0.5341430000000  0.5505060000000 1.0
C      1  0.5239190000000  0.5213700000000  0.5446840000000 1.0
C      1  0.4499690000000  0.4751980000000  0.5346130000000 1.0
C      1  0.4468030000000  0.5357410000000  0.5353420000000 1.0
C      1  0.4977520000000  0.5559920000000  0.5316700000000 1.0
C      1  0.5472320000000  0.5409860000000  0.5353030000000 1.0
C      1  0.5557570000000  0.4914510000000  0.5342790000000 1.0
C      1  0.5294910000000  0.4433900000000  0.5356390000000 1.0
C      1  0.4694070000000  0.4533450000000  0.5347080000000 1.0
END
