TITL C-95194-1007-1 645.098650682403 125000 -830.179548765831 0 0 121 (C1) n - 1
REM
REM in /rds/project/t2_vol4/rds-t2-cs072/BORA/CARBON/from-Arr/AIRSS/Generating-Clusters/GAP-ML-2020/Higher-Symm/SD-CG/HFTN-CG
REM
REM
REM
REM
REM
REM ./C.cell (b20cbc046b6831c77cfcea5457e17084)
REM AIRSS Version 0.9.1 bugfix July 2018 build 013d7b7c2542+ Fri, 06 Jul 2018 19:26:36 +0100
REM compiler GCC version 9.3.0
REM options -cpp -mtune=generic -march=x86-64 -g -O0
REM seed -1539408772 -849810650 -2085641528 1703790738 -1504683238 -1760775799 142488059 -362139391 -364420678 170859080 -347823444 439395971 -1461331180 -1055196847 -1952585604 667339350 -721236546 -628046303 1704598128 -1556869875 514904329 1071543214 740596482 -699419645 824545130 446955421 -909327366 2045687951 1453442506 -2032014020 -701627145 1006212050 -1505782315
REM
CELL 1.54180   50.00000   50.00000   50.00000   90.00000   90.00000   90.00000
LATT -1
SFAC C  
C      1  0.4063980000000  0.5107400000000  0.5096800000000 1.0
C      1  0.4069230000000  0.4891580000000  0.4914410000000 1.0
C      1  0.5925450000000  0.5100220000000  0.5085540000000 1.0
C      1  0.5932980000000  0.4885400000000  0.4904750000000 1.0
C      1  0.4728010000000  0.4694550000000  0.4778220000000 1.0
C      1  0.4694820000000  0.5326490000000  0.5246420000000 1.0
C      1  0.5294240000000  0.4684340000000  0.4782120000000 1.0
C      1  0.5273700000000  0.5319040000000  0.5214410000000 1.0
C      1  0.4898840000000  0.5176190000000  0.4644430000000 1.0
C      1  0.4860300000000  0.4819430000000  0.5288900000000 1.0
C      1  0.5193980000000  0.5176470000000  0.4663460000000 1.0
C      1  0.5159390000000  0.4821340000000  0.5285770000000 1.0
C      1  0.5583450000000  0.5462550000000  0.4563470000000 1.0
C      1  0.5575890000000  0.4535900000000  0.5424730000000 1.0
C      1  0.4442920000000  0.5444700000000  0.4579640000000 1.0
C      1  0.4438370000000  0.4542650000000  0.5424760000000 1.0
C      1  0.4510140000000  0.5564890000000  0.5584470000000 1.0
C      1  0.4529050000000  0.4453470000000  0.4432420000000 1.0
C      1  0.5480040000000  0.5547250000000  0.5559860000000 1.0
C      1  0.5478040000000  0.4436450000000  0.4433520000000 1.0
C      1  0.5118270000000  0.4151390000000  0.4245240000000 1.0
C      1  0.5134840000000  0.5838760000000  0.5765510000000 1.0
C      1  0.4869170000000  0.4157270000000  0.4223240000000 1.0
C      1  0.4885250000000  0.5844040000000  0.5751230000000 1.0
C      1  0.4482420000000  0.5292410000000  0.5705880000000 1.0
C      1  0.4492120000000  0.4716080000000  0.4305910000000 1.0
C      1  0.5515660000000  0.5284540000000  0.5686470000000 1.0
C      1  0.5520770000000  0.4696580000000  0.4301380000000 1.0
C      1  0.5706010000000  0.4771060000000  0.4523440000000 1.0
C      1  0.5693800000000  0.5208790000000  0.5460900000000 1.0
C      1  0.4305200000000  0.4784510000000  0.4529010000000 1.0
C      1  0.4288150000000  0.5224360000000  0.5489050000000 1.0
C      1  0.4858750000000  0.4422740000000  0.4826990000000 1.0
C      1  0.4841280000000  0.5587220000000  0.5170110000000 1.0
C      1  0.5156510000000  0.4417150000000  0.4830870000000 1.0
C      1  0.5142610000000  0.5586420000000  0.5168730000000 1.0
C      1  0.5145500000000  0.4430840000000  0.5823610000000 1.0
C      1  0.5155310000000  0.5566000000000  0.4169030000000 1.0
C      1  0.4861290000000  0.4430130000000  0.5822720000000 1.0
C      1  0.4870740000000  0.5564640000000  0.4166400000000 1.0
C      1  0.4154270000000  0.4662260000000  0.5058440000000 1.0
C      1  0.4144770000000  0.5337120000000  0.4948530000000 1.0
C      1  0.5861740000000  0.4650790000000  0.5052680000000 1.0
C      1  0.5843260000000  0.5330630000000  0.4940900000000 1.0
C      1  0.4447490000000  0.4575390000000  0.4702670000000 1.0
C      1  0.4415100000000  0.5446730000000  0.5321100000000 1.0
C      1  0.5571260000000  0.4557640000000  0.4699740000000 1.0
C      1  0.5553350000000  0.5422030000000  0.5286810000000 1.0
C      1  0.4844910000000  0.5129810000000  0.5440320000000 1.0
C      1  0.4864100000000  0.4869030000000  0.4549610000000 1.0
C      1  0.5151160000000  0.5130450000000  0.5430440000000 1.0
C      1  0.5172730000000  0.4859860000000  0.4553240000000 1.0
C      1  0.5295270000000  0.4869730000000  0.5027230000000 1.0
C      1  0.5229110000000  0.5137740000000  0.4965770000000 1.0
C      1  0.4734170000000  0.4875110000000  0.5028410000000 1.0
C      1  0.4655000000000  0.5143640000000  0.5027560000000 1.0
C      1  0.5280060000000  0.4849710000000  0.4275550000000 1.0
C      1  0.5267600000000  0.5138840000000  0.5704250000000 1.0
C      1  0.4743880000000  0.4855700000000  0.4278370000000 1.0
C      1  0.4730910000000  0.5140750000000  0.5715790000000 1.0
C      1  0.5378470000000  0.5991770000000  0.5086080000000 1.0
C      1  0.5390330000000  0.4000940000000  0.4914810000000 1.0
C      1  0.4614050000000  0.5992030000000  0.5081070000000 1.0
C      1  0.4632490000000  0.4009920000000  0.4905910000000 1.0
C      1  0.5158780000000  0.4363260000000  0.5128650000000 1.0
C      1  0.5151310000000  0.5635650000000  0.4867880000000 1.0
C      1  0.4853850000000  0.4366640000000  0.5125410000000 1.0
C      1  0.4846950000000  0.5629700000000  0.4866890000000 1.0
C      1  0.5261790000000  0.4545930000000  0.5354540000000 1.0
C      1  0.5272790000000  0.5464760000000  0.4633410000000 1.0
C      1  0.4752450000000  0.4547350000000  0.5353870000000 1.0
C      1  0.4756000000000  0.5448380000000  0.4631620000000 1.0
C      1  0.5163170000000  0.4323500000000  0.5555450000000 1.0
C      1  0.5165540000000  0.5675180000000  0.4438460000000 1.0
C      1  0.4846930000000  0.4324840000000  0.5553180000000 1.0
C      1  0.4848670000000  0.5671890000000  0.4436540000000 1.0
C      1  0.5290480000000  0.4151750000000  0.4717720000000 1.0
C      1  0.5286740000000  0.5838630000000  0.5284730000000 1.0
C      1  0.4719500000000  0.4165540000000  0.4708110000000 1.0
C      1  0.4709510000000  0.5843440000000  0.5281880000000 1.0
C      1  0.5524750000000  0.4569450000000  0.5714240000000 1.0
C      1  0.5537370000000  0.5434050000000  0.4269600000000 1.0
C      1  0.4485840000000  0.4566700000000  0.5714420000000 1.0
C      1  0.4491260000000  0.5415720000000  0.4287530000000 1.0
C      1  0.5790230000000  0.4717230000000  0.5318920000000 1.0
C      1  0.5777840000000  0.5266200000000  0.4676130000000 1.0
C      1  0.4225100000000  0.4729670000000  0.5323160000000 1.0
C      1  0.4225140000000  0.5265900000000  0.4686680000000 1.0
C      1  0.5569240000000  0.5670580000000  0.4794680000000 1.0
C      1  0.5579870000000  0.4316440000000  0.5199130000000 1.0
C      1  0.4431380000000  0.5664330000000  0.4804750000000 1.0
C      1  0.4436610000000  0.4328150000000  0.5195240000000 1.0
C      1  0.4652500000000  0.5870470000000  0.4820540000000 1.0
C      1  0.4661040000000  0.4125310000000  0.5170090000000 1.0
C      1  0.5345680000000  0.5876600000000  0.4823020000000 1.0
C      1  0.5352590000000  0.4118690000000  0.5176400000000 1.0
C      1  0.4710540000000  0.5331730000000  0.4139920000000 1.0
C      1  0.4702310000000  0.4662260000000  0.5854560000000 1.0
C      1  0.5317230000000  0.5333830000000  0.4136860000000 1.0
C      1  0.5305080000000  0.4663550000000  0.5851520000000 1.0
C      1  0.5150040000000  0.5920610000000  0.4595890000000 1.0
C      1  0.5156370000000  0.4076910000000  0.5400840000000 1.0
C      1  0.4846450000000  0.5918240000000  0.4592780000000 1.0
C      1  0.4852710000000  0.4078030000000  0.5398770000000 1.0
C      1  0.5331230000000  0.5777610000000  0.5568920000000 1.0
C      1  0.5319900000000  0.4209440000000  0.4432460000000 1.0
C      1  0.4677960000000  0.5786410000000  0.5569970000000 1.0
C      1  0.4677610000000  0.4222800000000  0.4423790000000 1.0
C      1  0.4326900000000  0.4460540000000  0.4962800000000 1.0
C      1  0.4310840000000  0.5543830000000  0.5038950000000 1.0
C      1  0.5692430000000  0.4444270000000  0.4963000000000 1.0
C      1  0.5675480000000  0.5537250000000  0.5030020000000 1.0
C      1  0.5164670000000  0.5072020000000  0.4130980000000 1.0
C      1  0.5152040000000  0.4920730000000  0.5852600000000 1.0
C      1  0.4862460000000  0.5073940000000  0.4127750000000 1.0
C      1  0.4851160000000  0.4920370000000  0.5857570000000 1.0
C      1  0.5840020000000  0.5003700000000  0.5344770000000 1.0
C      1  0.5838550000000  0.4982230000000  0.4646710000000 1.0
C      1  0.4159390000000  0.5013820000000  0.5355720000000 1.0
C      1  0.4159950000000  0.4985410000000  0.4654800000000 1.0
C      1  0.4917370000000  0.5134960000000  0.4927810000000 1.0
END
