TITL C-95002-3891-1 116.034452917323 125000 -919.838715212955 0 0 135 (C1) n - 1
REM
REM in /rds/project/t2_vol4/rds-t2-cs072/BORA/CARBON/from-Arr/AIRSS/Generating-Clusters/GAP-ML-2020/Higher-Symm/SD-CG/HFTN-CG
REM
REM
REM
REM
REM
REM ./C.cell (b20cbc046b6831c77cfcea5457e17084)
REM AIRSS Version 0.9.1 bugfix July 2018 build 013d7b7c2542+ Fri, 06 Jul 2018 19:26:36 +0100
REM compiler GCC version 9.3.0
REM options -cpp -mtune=generic -march=x86-64 -g -O0
REM seed -1227896002 1346253807 -1211079098 1354626022 -1654623040 62764010 -747171016 1933380085 -1977333597 1517813274 63224034 1740859287 1445674992 710899774 1009118503 1838064552 -181047688 -1461863526 -2063154916 -973153242 1871607654 -1318089297 609612190 113366302 -2043248700 -599534178 1343809893 -417708871 578213030 -1429455082 -233339622 -766544900 -212486029
REM
CELL 1.54180   50.00000   50.00000   50.00000   90.00000   90.00000   90.00000
LATT -1
SFAC C  
C      1  0.5211150000000  0.4747740000000  0.5360780000000 1.0
C      1  0.5145400000000  0.5356690000000  0.5380040000000 1.0
C      1  0.4726180000000  0.4963000000000  0.5436960000000 1.0
C      1  0.5209120000000  0.4734080000000  0.4641050000000 1.0
C      1  0.5123460000000  0.5335570000000  0.4638200000000 1.0
C      1  0.4651360000000  0.4925610000000  0.4642530000000 1.0
C      1  0.5461160000000  0.5097810000000  0.5206190000000 1.0
C      1  0.4729850000000  0.5347510000000  0.5234180000000 1.0
C      1  0.4815130000000  0.4562030000000  0.5228770000000 1.0
C      1  0.5444890000000  0.5074440000000  0.4783480000000 1.0
C      1  0.4704720000000  0.5335370000000  0.4807730000000 1.0
C      1  0.4840940000000  0.4551590000000  0.4803140000000 1.0
C      1  0.5869360000000  0.4989790000000  0.5501780000000 1.0
C      1  0.4587040000000  0.5764510000000  0.5508900000000 1.0
C      1  0.4545460000000  0.4252910000000  0.5515250000000 1.0
C      1  0.5860260000000  0.4985100000000  0.4499270000000 1.0
C      1  0.4574710000000  0.5751820000000  0.4502320000000 1.0
C      1  0.4556530000000  0.4246730000000  0.4482140000000 1.0
C      1  0.5298150000000  0.5750690000000  0.4452690000000 1.0
C      1  0.4191560000000  0.4869210000000  0.4421980000000 1.0
C      1  0.5497860000000  0.4371090000000  0.4438260000000 1.0
C      1  0.5310550000000  0.5766550000000  0.5570920000000 1.0
C      1  0.4221170000000  0.4881330000000  0.5535350000000 1.0
C      1  0.5489890000000  0.4378740000000  0.5549930000000 1.0
C      1  0.5375570000000  0.5547810000000  0.5740960000000 1.0
C      1  0.4362090000000  0.5045950000000  0.5722450000000 1.0
C      1  0.5274840000000  0.4435220000000  0.5724760000000 1.0
C      1  0.5358560000000  0.5535260000000  0.4278670000000 1.0
C      1  0.4363130000000  0.5032710000000  0.4270680000000 1.0
C      1  0.5278870000000  0.4427710000000  0.4269120000000 1.0
C      1  0.4821000000000  0.5621280000000  0.4864810000000 1.0
C      1  0.4543600000000  0.4494020000000  0.4846210000000 1.0
C      1  0.5614020000000  0.4835470000000  0.4853740000000 1.0
C      1  0.4832230000000  0.5629170000000  0.5155060000000 1.0
C      1  0.4529020000000  0.4489720000000  0.5135310000000 1.0
C      1  0.5626840000000  0.4846980000000  0.5143980000000 1.0
C      1  0.4044780000000  0.4665070000000  0.4843050000000 1.0
C      1  0.5743570000000  0.4338200000000  0.4856680000000 1.0
C      1  0.5194860000000  0.5968700000000  0.4868510000000 1.0
C      1  0.4058560000000  0.4672080000000  0.5127470000000 1.0
C      1  0.5733920000000  0.4350110000000  0.5135150000000 1.0
C      1  0.5204550000000  0.5980890000000  0.5148760000000 1.0
C      1  0.5887990000000  0.4802280000000  0.5280860000000 1.0
C      1  0.4736490000000  0.5875080000000  0.5288970000000 1.0
C      1  0.4362200000000  0.4307460000000  0.5294330000000 1.0
C      1  0.5877370000000  0.4798910000000  0.4719120000000 1.0
C      1  0.4724420000000  0.5863960000000  0.4723610000000 1.0
C      1  0.4374600000000  0.4308100000000  0.4697200000000 1.0
C      1  0.5264640000000  0.4720470000000  0.5816340000000 1.0
C      1  0.5136460000000  0.5399000000000  0.5838690000000 1.0
C      1  0.4604610000000  0.4919980000000  0.5845520000000 1.0
C      1  0.5269210000000  0.4709700000000  0.4177160000000 1.0
C      1  0.5118090000000  0.5385710000000  0.4183490000000 1.0
C      1  0.4617140000000  0.4904970000000  0.4181330000000 1.0
C      1  0.5571440000000  0.5378990000000  0.5604950000000 1.0
C      1  0.4415600000000  0.5299150000000  0.5594390000000 1.0
C      1  0.5040480000000  0.4336140000000  0.5589130000000 1.0
C      1  0.5555970000000  0.5370400000000  0.4413330000000 1.0
C      1  0.4409900000000  0.5281930000000  0.4410120000000 1.0
C      1  0.5040690000000  0.4336070000000  0.4403650000000 1.0
C      1  0.4816110000000  0.4145570000000  0.4484990000000 1.0
C      1  0.5827610000000  0.5260320000000  0.4505370000000 1.0
C      1  0.4361440000000  0.5576110000000  0.4500760000000 1.0
C      1  0.4803670000000  0.4147370000000  0.5503320000000 1.0
C      1  0.5841430000000  0.5265830000000  0.5505420000000 1.0
C      1  0.4370210000000  0.5590140000000  0.5495830000000 1.0
C      1  0.4836100000000  0.4998220000000  0.5977510000000 1.0
C      1  0.5098480000000  0.4881430000000  0.5968740000000 1.0
C      1  0.5069940000000  0.5167680000000  0.5977300000000 1.0
C      1  0.4836640000000  0.4983070000000  0.4032790000000 1.0
C      1  0.5102400000000  0.4872810000000  0.4029840000000 1.0
C      1  0.5065050000000  0.5159090000000  0.4034340000000 1.0
C      1  0.5585630000000  0.5562690000000  0.4884730000000 1.0
C      1  0.4140490000000  0.5198640000000  0.4829540000000 1.0
C      1  0.5238220000000  0.4144000000000  0.4833520000000 1.0
C      1  0.5629700000000  0.5647060000000  0.5172460000000 1.0
C      1  0.4246130000000  0.5207920000000  0.5115640000000 1.0
C      1  0.5183650000000  0.4223560000000  0.5119740000000 1.0
C      1  0.4694870000000  0.4719150000000  0.4404230000000 1.0
C      1  0.5383900000000  0.4867360000000  0.4404810000000 1.0
C      1  0.4919810000000  0.5404860000000  0.4412980000000 1.0
C      1  0.4694690000000  0.4726260000000  0.5634940000000 1.0
C      1  0.5388550000000  0.4880310000000  0.5593460000000 1.0
C      1  0.4938080000000  0.5427590000000  0.5617470000000 1.0
C      1  0.5384820000000  0.5183800000000  0.5483790000000 1.0
C      1  0.4700500000000  0.5251810000000  0.5512340000000 1.0
C      1  0.4954060000000  0.4600020000000  0.5487700000000 1.0
C      1  0.5366580000000  0.5166250000000  0.4516260000000 1.0
C      1  0.4673020000000  0.5225010000000  0.4532960000000 1.0
C      1  0.4955870000000  0.4590210000000  0.4528620000000 1.0
C      1  0.4425040000000  0.4807470000000  0.4803990000000 1.0
C      1  0.5395980000000  0.4604130000000  0.4839110000000 1.0
C      1  0.5132320000000  0.5566110000000  0.4849110000000 1.0
C      1  0.4446600000000  0.4788980000000  0.5101060000000 1.0
C      1  0.5404710000000  0.4615780000000  0.5161510000000 1.0
C      1  0.5145400000000  0.5573120000000  0.5167680000000 1.0
C      1  0.4983400000000  0.5210400000000  0.4859740000000 1.0
C      1  0.4840050000000  0.4859300000000  0.4866190000000 1.0
C      1  0.5143850000000  0.4939350000000  0.4854450000000 1.0
C      1  0.5001710000000  0.5218690000000  0.5171720000000 1.0
C      1  0.4726530000000  0.4848700000000  0.5161450000000 1.0
C      1  0.5189390000000  0.4962760000000  0.5161560000000 1.0
C      1  0.4978580000000  0.5996930000000  0.4677080000000 1.0
C      1  0.4136380000000  0.4465480000000  0.4645770000000 1.0
C      1  0.5872450000000  0.4516330000000  0.4664170000000 1.0
C      1  0.4988060000000  0.6008910000000  0.5341590000000 1.0
C      1  0.4130120000000  0.4473930000000  0.5333140000000 1.0
C      1  0.5869140000000  0.4518000000000  0.5328540000000 1.0
C      1  0.4209310000000  0.4919700000000  0.5236730000000 1.0
C      1  0.5455360000000  0.4335260000000  0.5250000000000 1.0
C      1  0.5382180000000  0.5779060000000  0.5274930000000 1.0
C      1  0.4137530000000  0.4919720000000  0.4717690000000 1.0
C      1  0.5470780000000  0.4305910000000  0.4735080000000 1.0
C      1  0.5354030000000  0.5743870000000  0.4752750000000 1.0
C      1  0.5051790000000  0.5871610000000  0.5577920000000 1.0
C      1  0.4231490000000  0.4603470000000  0.5565280000000 1.0
C      1  0.5714840000000  0.4540530000000  0.5563620000000 1.0
C      1  0.5040480000000  0.5855180000000  0.4442750000000 1.0
C      1  0.4233650000000  0.4591910000000  0.4411790000000 1.0
C      1  0.5720890000000  0.4536340000000  0.4425570000000 1.0
C      1  0.4836320000000  0.5702180000000  0.5649860000000 1.0
C      1  0.4489090000000  0.4509490000000  0.5643510000000 1.0
C      1  0.5677850000000  0.4812950000000  0.5634970000000 1.0
C      1  0.4826600000000  0.5683080000000  0.4369740000000 1.0
C      1  0.4496130000000  0.4499450000000  0.4351800000000 1.0
C      1  0.5673630000000  0.4809070000000  0.4362270000000 1.0
C      1  0.5744690000000  0.5497150000000  0.5383980000000 1.0
C      1  0.4241030000000  0.5389540000000  0.5365010000000 1.0
C      1  0.5039480000000  0.4125200000000  0.5369390000000 1.0
C      1  0.5735450000000  0.5479880000000  0.4637010000000 1.0
C      1  0.4213120000000  0.5376040000000  0.4621640000000 1.0
C      1  0.5056990000000  0.4113770000000  0.4619080000000 1.0
C      1  0.5496800000000  0.5280470000000  0.4975770000000 1.0
C      1  0.4987460000000  0.4442670000000  0.5033640000000 1.0
C      1  0.4532390000000  0.5273450000000  0.5037930000000 1.0
END
