TITL C-95192-1643-11 -0.0508910283809023 125000 -325.68471441145 0 0 48 (C1) n - 1
REM
REM in /rds/project/t2_vol4/rds-t2-cs072/BORA/CARBON/from-Arr/AIRSS/Generating-Clusters/GAP-ML-2020/Higher-Symm/SD-CG/HFTN-CG
REM
REM
REM
REM
REM
REM ./C.cell (b20cbc046b6831c77cfcea5457e17084)
REM AIRSS Version 0.9.1 bugfix July 2018 build 013d7b7c2542+ Fri, 06 Jul 2018 19:26:36 +0100
REM compiler GCC version 9.3.0
REM options -cpp -mtune=generic -march=x86-64 -g -O0
REM seed -809499008 1591213969 -2088567742 -657059209 1961514453 -897800307 215879642 433911546 11604896 -1019822929 132867938 158302242 1734553627 -1778598485 1809966504 -2050010695 -1989657655 -1352871873 1007907033 -1268372710 2089208406 -1707624510 40176189 -524054666 -12487906 -1837832699 -1474411453 2034333627 827595108 831319512 1217551443 -2071432137 -1908176425
REM
CELL 1.54180   50.00000   50.00000   50.00000   90.00000   90.00000   90.00000
LATT -1
SFAC C  
C      1  0.5249660000000  0.4391110000000  0.4781820000000 1.0
C      1  0.5523970000000  0.5137750000000  0.5142560000000 1.0
C      1  0.4684820000000  0.5567910000000  0.4981250000000 1.0
C      1  0.4510570000000  0.4694230000000  0.4838730000000 1.0
C      1  0.4613520000000  0.5222560000000  0.5276030000000 1.0
C      1  0.5061430000000  0.4620580000000  0.5438580000000 1.0
C      1  0.4915270000000  0.5608710000000  0.5338500000000 1.0
C      1  0.5057780000000  0.5626210000000  0.5572810000000 1.0
C      1  0.4496250000000  0.4662780000000  0.5261150000000 1.0
C      1  0.5123780000000  0.5607240000000  0.4781490000000 1.0
C      1  0.4607580000000  0.4503460000000  0.5044140000000 1.0
C      1  0.4912710000000  0.5129860000000  0.5215660000000 1.0
C      1  0.5411000000000  0.5219100000000  0.4690180000000 1.0
C      1  0.5321430000000  0.5024770000000  0.4484480000000 1.0
C      1  0.5586190000000  0.5077530000000  0.4876500000000 1.0
C      1  0.5070620000000  0.5364830000000  0.5578960000000 1.0
C      1  0.5087600000000  0.4857250000000  0.4895920000000 1.0
C      1  0.4975100000000  0.5300820000000  0.4402640000000 1.0
C      1  0.4397760000000  0.4837600000000  0.5063810000000 1.0
C      1  0.4863140000000  0.4404370000000  0.5020380000000 1.0
C      1  0.4930220000000  0.5472930000000  0.4601070000000 1.0
C      1  0.5421910000000  0.4778090000000  0.4580250000000 1.0
C      1  0.4568100000000  0.5150970000000  0.4782500000000 1.0
C      1  0.5271820000000  0.4552430000000  0.4554210000000 1.0
C      1  0.5377160000000  0.5376680000000  0.5100060000000 1.0
C      1  0.5319970000000  0.4460340000000  0.5046610000000 1.0
C      1  0.4853000000000  0.4823560000000  0.4489010000000 1.0
C      1  0.5494730000000  0.4680710000000  0.5078600000000 1.0
C      1  0.5434500000000  0.4891390000000  0.5280960000000 1.0
C      1  0.4960810000000  0.4388080000000  0.4757050000000 1.0
C      1  0.5085870000000  0.4455320000000  0.5203310000000 1.0
C      1  0.5084050000000  0.5302490000000  0.5065080000000 1.0
C      1  0.5380480000000  0.5484710000000  0.4812480000000 1.0
C      1  0.5003540000000  0.5101550000000  0.5507210000000 1.0
C      1  0.4828040000000  0.4604320000000  0.5577680000000 1.0
C      1  0.5214790000000  0.4868010000000  0.5461270000000 1.0
C      1  0.4974640000000  0.5595600000000  0.5043440000000 1.0
C      1  0.5568510000000  0.4806500000000  0.4829840000000 1.0
C      1  0.4891720000000  0.4878690000000  0.5082880000000 1.0
C      1  0.4690620000000  0.5049010000000  0.5504110000000 1.0
C      1  0.4674370000000  0.5412990000000  0.4748800000000 1.0
C      1  0.4643550000000  0.5506290000000  0.5262570000000 1.0
C      1  0.4970480000000  0.4569320000000  0.4526520000000 1.0
C      1  0.4459480000000  0.5104760000000  0.5048000000000 1.0
C      1  0.4625340000000  0.4887860000000  0.4660990000000 1.0
C      1  0.5039370000000  0.5036640000000  0.4397480000000 1.0
C      1  0.4640810000000  0.4777020000000  0.5477130000000 1.0
C      1  0.5121930000000  0.5125080000000  0.4835270000000 1.0
END
