TITL C-95001-4108-8 -0.0558137825394255 125000 -371.752675303359 0 0 56 (C2) n - 1
REM
REM in /rds/project/t2_vol4/rds-t2-cs072/BORA/CARBON/from-Arr/AIRSS/Generating-Clusters/GAP-ML-2020/Higher-Symm/SD-CG/HFTN-CG
REM
REM
REM
REM
REM
REM ./C.cell (b20cbc046b6831c77cfcea5457e17084)
REM AIRSS Version 0.9.1 bugfix July 2018 build 013d7b7c2542+ Fri, 06 Jul 2018 19:26:36 +0100
REM compiler GCC version 9.3.0
REM options -cpp -mtune=generic -march=x86-64 -g -O0
REM seed -773770461 -911905193 431166976 826506932 -1941351899 273100661 -749969084 1499387986 -462614077 577198023 -1047759816 -1768944270 2134192708 -1418763487 586504293 -1121870763 -350233439 477393043 -920322017 -793024215 -1736128495 -2121136557 -1330202014 1792325308 -1861926426 347700595 392514176 1681110391 -271738461 -2032648890 -183054048 1053896009 -1378160122
REM
CELL 1.54180   50.00000   50.00000   50.00000   90.00000   90.00000   90.00000
LATT -1
SFAC C  
C      1  0.4681560000000  0.5330350000000  0.4448870000000 1.0
C      1  0.4763740000000  0.5467820000000  0.4910780000000 1.0
C      1  0.4783430000000  0.5220850000000  0.5407390000000 1.0
C      1  0.4759030000000  0.4791790000000  0.5446960000000 1.0
C      1  0.4692370000000  0.4446430000000  0.5172170000000 1.0
C      1  0.4766100000000  0.4594510000000  0.4741590000000 1.0
C      1  0.5303650000000  0.5292370000000  0.4499200000000 1.0
C      1  0.5236350000000  0.5482740000000  0.4897260000000 1.0
C      1  0.5211610000000  0.5348030000000  0.5306530000000 1.0
C      1  0.5231640000000  0.4808730000000  0.5435980000000 1.0
C      1  0.5314480000000  0.4389440000000  0.5198620000000 1.0
C      1  0.5230280000000  0.4839490000000  0.4546970000000 1.0
C      1  0.5116630000000  0.4968240000000  0.5648160000000 1.0
C      1  0.5154300000000  0.4516230000000  0.5408990000000 1.0
C      1  0.5111690000000  0.4412160000000  0.4996390000000 1.0
C      1  0.5157240000000  0.5079520000000  0.4381100000000 1.0
C      1  0.5142240000000  0.5506510000000  0.4623460000000 1.0
C      1  0.5138700000000  0.5600370000000  0.5156670000000 1.0
C      1  0.4856290000000  0.5018330000000  0.5619820000000 1.0
C      1  0.4853440000000  0.4519710000000  0.5408890000000 1.0
C      1  0.4839110000000  0.4379150000000  0.4938440000000 1.0
C      1  0.4884560000000  0.5128360000000  0.4425940000000 1.0
C      1  0.4841390000000  0.5507110000000  0.4619750000000 1.0
C      1  0.4878360000000  0.5638970000000  0.5113900000000 1.0
C      1  0.4214400000000  0.4905990000000  0.5280290000000 1.0
C      1  0.4198340000000  0.4725450000000  0.5053820000000 1.0
C      1  0.4229620000000  0.4825260000000  0.4782080000000 1.0
C      1  0.4218170000000  0.5116380000000  0.4710430000000 1.0
C      1  0.4246070000000  0.5272110000000  0.4958950000000 1.0
C      1  0.4228370000000  0.5186550000000  0.5229210000000 1.0
C      1  0.5749440000000  0.4900000000000  0.5256630000000 1.0
C      1  0.5777760000000  0.4692710000000  0.5049220000000 1.0
C      1  0.5766500000000  0.4827750000000  0.4781540000000 1.0
C      1  0.5797560000000  0.5114970000000  0.4745180000000 1.0
C      1  0.5781070000000  0.5295220000000  0.4971850000000 1.0
C      1  0.5766900000000  0.5182580000000  0.5233820000000 1.0
C      1  0.5454060000000  0.4925210000000  0.5258880000000 1.0
C      1  0.5545720000000  0.4517050000000  0.5083070000000 1.0
C      1  0.5470940000000  0.4869330000000  0.4724520000000 1.0
C      1  0.5503600000000  0.5165960000000  0.4692030000000 1.0
C      1  0.5479420000000  0.5325030000000  0.4942320000000 1.0
C      1  0.5454180000000  0.5218180000000  0.5225100000000 1.0
C      1  0.4516060000000  0.4870810000000  0.5303070000000 1.0
C      1  0.4492310000000  0.4662490000000  0.5091940000000 1.0
C      1  0.4525210000000  0.4760640000000  0.4810170000000 1.0
C      1  0.4450340000000  0.5188930000000  0.4547080000000 1.0
C      1  0.4541430000000  0.5268920000000  0.4984360000000 1.0
C      1  0.4541070000000  0.5170360000000  0.5262320000000 1.0
C      1  0.5110880000000  0.4718890000000  0.4991680000000 1.0
C      1  0.5005740000000  0.4867090000000  0.5230660000000 1.0
C      1  0.4998110000000  0.4783760000000  0.4728130000000 1.0
C      1  0.4997660000000  0.5162130000000  0.5203340000000 1.0
C      1  0.4885100000000  0.5055050000000  0.4723820000000 1.0
C      1  0.4989830000000  0.5254840000000  0.4921920000000 1.0
C      1  0.5397240000000  0.4779400000000  0.5000000000000 1.0
C      1  0.4598670000000  0.5049340000000  0.4784320000000 1.0
END
