TITL C-95196-1168-2 -0.0949167457342052 125000 -488.440540369655 0 0 73 (C1) n - 1
REM
REM in /rds/project/t2_vol4/rds-t2-cs072/BORA/CARBON/from-Arr/AIRSS/Generating-Clusters/GAP-ML-2020/Higher-Symm/SD-CG/HFTN-CG
REM
REM
REM
REM
REM
REM ./C.cell (b20cbc046b6831c77cfcea5457e17084)
REM AIRSS Version 0.9.1 bugfix July 2018 build 013d7b7c2542+ Fri, 06 Jul 2018 19:26:36 +0100
REM compiler GCC version 9.3.0
REM options -cpp -mtune=generic -march=x86-64 -g -O0
REM seed -844628198 -670775817 -211869322 1504132200 -673817927 -881213356 -1999836006 -51664285 -180221764 1515083463 -1867435863 293168334 653756212 321899283 -2015693757 -747632059 782981466 -1334538136 -430292122 -208780021 1719578542 1754994774 1423924903 764637224 1430254468 1023920097 -96434491 715866249 -715455178 -1424145578 194192867 531639136 1068979999
REM
CELL 1.54180   50.00000   50.00000   50.00000   90.00000   90.00000   90.00000
LATT -1
SFAC C  
C      1  0.5835690000000  0.4907610000000  0.4742900000000 1.0
C      1  0.5330540000000  0.5768630000000  0.4885210000000 1.0
C      1  0.4390110000000  0.5498910000000  0.4725590000000 1.0
C      1  0.4271120000000  0.4587830000000  0.4738500000000 1.0
C      1  0.5171470000000  0.4188350000000  0.4787440000000 1.0
C      1  0.4863480000000  0.5507060000000  0.5418410000000 1.0
C      1  0.4443540000000  0.5080000000000  0.5411150000000 1.0
C      1  0.4687070000000  0.4512680000000  0.5389690000000 1.0
C      1  0.5335720000000  0.4582880000000  0.5416450000000 1.0
C      1  0.5561240000000  0.5269720000000  0.5391490000000 1.0
C      1  0.5311760000000  0.4355480000000  0.4608480000000 1.0
C      1  0.5713230000000  0.5089000000000  0.4573430000000 1.0
C      1  0.5160150000000  0.5723270000000  0.4679590000000 1.0
C      1  0.4389260000000  0.5306920000000  0.4532380000000 1.0
C      1  0.4473630000000  0.4504860000000  0.4565820000000 1.0
C      1  0.5055100000000  0.5387600000000  0.4991350000000 1.0
C      1  0.4618680000000  0.5151500000000  0.4939320000000 1.0
C      1  0.4699170000000  0.4676220000000  0.4916460000000 1.0
C      1  0.5192020000000  0.4648940000000  0.4939230000000 1.0
C      1  0.5459450000000  0.5084890000000  0.4953480000000 1.0
C      1  0.4505520000000  0.5100110000000  0.5675240000000 1.0
C      1  0.4754270000000  0.4591410000000  0.5640560000000 1.0
C      1  0.5330140000000  0.4642370000000  0.5680950000000 1.0
C      1  0.5455930000000  0.5233720000000  0.5645480000000 1.0
C      1  0.4913510000000  0.5514370000000  0.5685750000000 1.0
C      1  0.4664790000000  0.4236450000000  0.4990050000000 1.0
C      1  0.5616330000000  0.4485640000000  0.5005450000000 1.0
C      1  0.5769680000000  0.5425160000000  0.4968240000000 1.0
C      1  0.4765170000000  0.5724900000000  0.4970200000000 1.0
C      1  0.4192040000000  0.5064380000000  0.4990540000000 1.0
C      1  0.5167110000000  0.4840450000000  0.5773690000000 1.0
C      1  0.5231160000000  0.5129540000000  0.5767550000000 1.0
C      1  0.4971040000000  0.5263960000000  0.5795540000000 1.0
C      1  0.4759100000000  0.5066000000000  0.5780160000000 1.0
C      1  0.4880620000000  0.4802340000000  0.5756870000000 1.0
C      1  0.5314730000000  0.5327290000000  0.4562000000000 1.0
C      1  0.4821470000000  0.5428550000000  0.4565610000000 1.0
C      1  0.4686210000000  0.4941510000000  0.4491800000000 1.0
C      1  0.4941010000000  0.4610830000000  0.4509510000000 1.0
C      1  0.5291560000000  0.4854450000000  0.4517380000000 1.0
C      1  0.5733890000000  0.5162520000000  0.4851220000000 1.0
C      1  0.5052490000000  0.5693380000000  0.4950970000000 1.0
C      1  0.4364980000000  0.5296450000000  0.4917220000000 1.0
C      1  0.4505910000000  0.4449990000000  0.4849620000000 1.0
C      1  0.5362870000000  0.4385100000000  0.4891810000000 1.0
C      1  0.4571820000000  0.4914460000000  0.4775770000000 1.0
C      1  0.4935560000000  0.4556330000000  0.4798310000000 1.0
C      1  0.5386340000000  0.4832180000000  0.4807150000000 1.0
C      1  0.5327670000000  0.5328470000000  0.4864340000000 1.0
C      1  0.4855520000000  0.5275770000000  0.4818560000000 1.0
C      1  0.5428730000000  0.5075270000000  0.5233400000000 1.0
C      1  0.4959830000000  0.5232200000000  0.5246720000000 1.0
C      1  0.4705490000000  0.5051250000000  0.5207160000000 1.0
C      1  0.4788100000000  0.4746830000000  0.5190420000000 1.0
C      1  0.5102690000000  0.4740360000000  0.5208380000000 1.0
C      1  0.4644390000000  0.5621530000000  0.4731910000000 1.0
C      1  0.4280720000000  0.4863070000000  0.4801730000000 1.0
C      1  0.4910860000000  0.4266440000000  0.4848380000000 1.0
C      1  0.5660410000000  0.4703190000000  0.4825200000000 1.0
C      1  0.5501870000000  0.5552120000000  0.4963690000000 1.0
C      1  0.5652030000000  0.5469990000000  0.5210520000000 1.0
C      1  0.4718300000000  0.5645550000000  0.5226300000000 1.0
C      1  0.4212820000000  0.5053000000000  0.5262560000000 1.0
C      1  0.4641960000000  0.4271760000000  0.5262390000000 1.0
C      1  0.5556880000000  0.4523750000000  0.5269690000000 1.0
C      1  0.5223670000000  0.4566930000000  0.4446330000000 1.0
C      1  0.5450540000000  0.5095180000000  0.4455200000000 1.0
C      1  0.5107490000000  0.5511770000000  0.4503630000000 1.0
C      1  0.4625100000000  0.5225060000000  0.4427350000000 1.0
C      1  0.4663400000000  0.4653210000000  0.4419530000000 1.0
C      1  0.5161710000000  0.5016040000000  0.5284150000000 1.0
C      1  0.4988080000000  0.4909870000000  0.4536910000000 1.0
C      1  0.4996030000000  0.5012840000000  0.4803580000000 1.0
END
