TITL C-95202-2166-2 0.000295089020237054 125000 -22.947849492071 0 0 4 (D(inf)h) n - 1
REM
REM in /rds/project/t2_vol4/rds-t2-cs072/BORA/CARBON/from-Arr/AIRSS/Generating-Clusters/GAP-ML-2020/Higher-Symm/SD-CG/HFTN-CG
REM
REM
REM
REM
REM
REM ./C.cell (b20cbc046b6831c77cfcea5457e17084)
REM AIRSS Version 0.9.1 bugfix July 2018 build 013d7b7c2542+ Fri, 06 Jul 2018 19:26:36 +0100
REM compiler GCC version 9.3.0
REM options -cpp -mtune=generic -march=x86-64 -g -O0
REM seed -2026173417 -925047985 -780913988 -856836038 153460312 -1968202538 -549323763 -1344997634 67910719 346370051 -423693030 -986876896 -1060323962 1384917112 -1361224032 -1888631202 -2063146153 2052987897 1571782092 -1654981801 -481287960 601252723 -1908128945 357993545 1909746731 -1089794707 1986958332 -1983931430 1913515807 1621139146 -1540258698 -843083074 -627284585
REM
CELL 1.54180   50.00000   50.00000   50.00000   90.00000   90.00000   90.00000
LATT -1
SFAC C  
C      1  0.5033690000000  0.5025580000000  0.4865340000000 1.0
C      1  0.5033690000000  0.5025580000000  0.5388630000000 1.0
C      1  0.5033690000000  0.5025580000000  0.4611370000000 1.0
C      1  0.5033690000000  0.5025580000000  0.5134660000000 1.0
END
