TITL C-95198-1258-7 -178.045730193641 125000 -400.153207851276 0 0 61 (C1) n - 1
REM
REM in /rds/project/t2_vol4/rds-t2-cs072/BORA/CARBON/from-Arr/AIRSS/Generating-Clusters/GAP-ML-2020/Higher-Symm/SD-CG/HFTN-CG
REM
REM
REM
REM
REM
REM ./C.cell (b20cbc046b6831c77cfcea5457e17084)
REM AIRSS Version 0.9.1 bugfix July 2018 build 013d7b7c2542+ Fri, 06 Jul 2018 19:26:36 +0100
REM compiler GCC version 9.3.0
REM options -cpp -mtune=generic -march=x86-64 -g -O0
REM seed -308797230 113225583 -1960869588 -1951873165 201024482 -2036480011 1517206232 -723660352 -1963869851 -828730925 -1612212056 -1238818127 1982098719 72363220 1524797848 -373447967 1704225905 30376875 1310277249 -982761711 1112935816 -941627322 -1955572870 1638134332 1960162772 474257162 724201343 -1855619877 -1398696533 -1523441182 -1522565874 224526435 -1590050205
REM
CELL 1.54180   50.00000   50.00000   50.00000   90.00000   90.00000   90.00000
LATT -1
SFAC C  
C      1  0.5129510000000  0.4866080000000  0.4341990000000 1.0
C      1  0.5161130000000  0.5127880000000  0.5706500000000 1.0
C      1  0.4858460000000  0.4840850000000  0.5677220000000 1.0
C      1  0.4825120000000  0.5161620000000  0.4336980000000 1.0
C      1  0.5179390000000  0.4338370000000  0.4870160000000 1.0
C      1  0.5191160000000  0.5719880000000  0.5081760000000 1.0
C      1  0.4843030000000  0.5685850000000  0.4863780000000 1.0
C      1  0.4834810000000  0.4329070000000  0.5104050000000 1.0
C      1  0.4888020000000  0.5081160000000  0.5293920000000 1.0
C      1  0.4685860000000  0.4839700000000  0.4595010000000 1.0
C      1  0.5161700000000  0.5063950000000  0.4742980000000 1.0
C      1  0.5165900000000  0.4921430000000  0.5307940000000 1.0
C      1  0.4885840000000  0.5301840000000  0.5087620000000 1.0
C      1  0.4766790000000  0.4675620000000  0.4818900000000 1.0
C      1  0.5193220000000  0.4712690000000  0.5093220000000 1.0
C      1  0.5153470000000  0.5304180000000  0.4923220000000 1.0
C      1  0.4609850000000  0.5302110000000  0.4900880000000 1.0
C      1  0.4550180000000  0.4689950000000  0.5060050000000 1.0
C      1  0.5412920000000  0.5333070000000  0.5105510000000 1.0
C      1  0.5465280000000  0.4696680000000  0.4932960000000 1.0
C      1  0.4625610000000  0.4893720000000  0.5288070000000 1.0
C      1  0.4513040000000  0.5086740000000  0.4666430000000 1.0
C      1  0.5409510000000  0.5130460000000  0.5324350000000 1.0
C      1  0.5435570000000  0.4908780000000  0.4705180000000 1.0
C      1  0.4567730000000  0.5235790000000  0.4403380000000 1.0
C      1  0.4642050000000  0.4739210000000  0.5549250000000 1.0
C      1  0.5364830000000  0.5267160000000  0.5593530000000 1.0
C      1  0.5370720000000  0.4770260000000  0.4439600000000 1.0
C      1  0.4582730000000  0.4406190000000  0.5174030000000 1.0
C      1  0.4613360000000  0.5576660000000  0.4769230000000 1.0
C      1  0.5411440000000  0.5624440000000  0.5202580000000 1.0
C      1  0.5435940000000  0.4417300000000  0.4814680000000 1.0
C      1  0.5552130000000  0.4337740000000  0.4573180000000 1.0
C      1  0.5489120000000  0.5723460000000  0.5448670000000 1.0
C      1  0.4443780000000  0.4311450000000  0.5394600000000 1.0
C      1  0.4515220000000  0.5601490000000  0.4517500000000 1.0
C      1  0.5474300000000  0.4517730000000  0.4411760000000 1.0
C      1  0.5398960000000  0.5536460000000  0.5596120000000 1.0
C      1  0.4442750000000  0.5467350000000  0.4312440000000 1.0
C      1  0.4536320000000  0.4488950000000  0.5553890000000 1.0
C      1  0.4891570000000  0.4389520000000  0.4823230000000 1.0
C      1  0.4914620000000  0.5615830000000  0.5139580000000 1.0
C      1  0.5110330000000  0.4424550000000  0.5143480000000 1.0
C      1  0.5121710000000  0.5607500000000  0.4829060000000 1.0
C      1  0.4841270000000  0.4863300000000  0.4351360000000 1.0
C      1  0.4890260000000  0.5128230000000  0.5614910000000 1.0
C      1  0.5090080000000  0.5140270000000  0.4456630000000 1.0
C      1  0.5137250000000  0.4850120000000  0.5614630000000 1.0
C      1  0.4235380000000  0.5006770000000  0.4728710000000 1.0
C      1  0.4426050000000  0.5105710000000  0.5314890000000 1.0
C      1  0.5643870000000  0.4959090000000  0.5325520000000 1.0
C      1  0.5652760000000  0.5106960000000  0.4707980000000 1.0
C      1  0.4267130000000  0.4725860000000  0.4988140000000 1.0
C      1  0.4420850000000  0.5306080000000  0.5121000000000 1.0
C      1  0.5630600000000  0.5312380000000  0.4912840000000 1.0
C      1  0.5683320000000  0.4748140000000  0.5123010000000 1.0
C      1  0.5811820000000  0.4756680000000  0.5357730000000 1.0
C      1  0.5778850000000  0.5342500000000  0.4693930000000 1.0
C      1  0.4236660000000  0.5300370000000  0.5321590000000 1.0
C      1  0.4087420000000  0.4799950000000  0.4808300000000 1.0
C      1  0.5031540000000  0.4808940000000  0.4859230000000 1.0
END
