TITL C-95192-1643-10 -0.120789264058108 125000 -936.433760522779 0 0 136 (C4h) n - 1
REM
REM in /rds/project/t2_vol4/rds-t2-cs072/BORA/CARBON/from-Arr/AIRSS/Generating-Clusters/GAP-ML-2020/Higher-Symm/SD-CG/HFTN-CG
REM
REM
REM
REM
REM
REM ./C.cell (b20cbc046b6831c77cfcea5457e17084)
REM AIRSS Version 0.9.1 bugfix July 2018 build 013d7b7c2542+ Fri, 06 Jul 2018 19:26:36 +0100
REM compiler GCC version 9.3.0
REM options -cpp -mtune=generic -march=x86-64 -g -O0
REM seed -1310098925 1743393428 410138655 -382373994 -1204917294 816103815 941970564 794153329 1735295860 1697443451 -1931808781 1943254642 989345365 -174045977 -2057816208 1202923714 563848597 418264397 1607568454 -637935124 -584284610 1687442040 890627260 1437098172 1527694718 1119091952 43981204 -1898289244 -1540184107 1918436816 -1919240065 -1806424332 577258342
REM
CELL 1.54180   50.00000   50.00000   50.00000   90.00000   90.00000   90.00000
LATT -1
SFAC C  
C      1  0.5427920000000  0.4848230000000  0.5031510000000 1.0
C      1  0.4968610000000  0.4848210000000  0.5427920000000 1.0
C      1  0.4572200000000  0.4847870000000  0.4968610000000 1.0
C      1  0.5031510000000  0.4847890000000  0.4572200000000 1.0
C      1  0.5427800000000  0.5152130000000  0.5031390000000 1.0
C      1  0.4968490000000  0.5152110000000  0.5427800000000 1.0
C      1  0.4572080000000  0.5151770000000  0.4968490000000 1.0
C      1  0.5031390000000  0.5151790000000  0.4572080000000 1.0
C      1  0.5600510000000  0.5692120000000  0.5036410000000 1.0
C      1  0.4963040000000  0.5692100000000  0.5600510000000 1.0
C      1  0.4398950000000  0.5691620000000  0.4963040000000 1.0
C      1  0.5036420000000  0.5691650000000  0.4398950000000 1.0
C      1  0.5601050000000  0.4308380000000  0.5036960000000 1.0
C      1  0.4963580000000  0.4308350000000  0.5601050000000 1.0
C      1  0.4399490000000  0.4307880000000  0.4963590000000 1.0
C      1  0.5036960000000  0.4307900000000  0.4399490000000 1.0
C      1  0.5289320000000  0.4437470000000  0.4363290000000 1.0
C      1  0.5637150000000  0.4437970000000  0.5289320000000 1.0
C      1  0.4711120000000  0.4437750000000  0.5637150000000 1.0
C      1  0.4363290000000  0.4437240000000  0.4711120000000 1.0
C      1  0.5288880000000  0.5562250000000  0.4362850000000 1.0
C      1  0.5636710000000  0.5562760000000  0.5288880000000 1.0
C      1  0.4710680000000  0.5562530000000  0.5636710000000 1.0
C      1  0.4362850000000  0.5562030000000  0.4710680000000 1.0
C      1  0.4429300000000  0.4856180000000  0.5863600000000 1.0
C      1  0.4136510000000  0.4855500000000  0.4429300000000 1.0
C      1  0.5570820000000  0.4855950000000  0.4136510000000 1.0
C      1  0.5863600000000  0.4856630000000  0.5570820000000 1.0
C      1  0.4429180000000  0.5144050000000  0.5863490000000 1.0
C      1  0.4136400000000  0.5143370000000  0.4429180000000 1.0
C      1  0.5570700000000  0.5143820000000  0.4136400000000 1.0
C      1  0.5863490000000  0.5144500000000  0.5570700000000 1.0
C      1  0.4454060000000  0.5157370000000  0.4692420000000 1.0
C      1  0.5307460000000  0.5157610000000  0.4454060000000 1.0
C      1  0.5545810000000  0.5158040000000  0.5307460000000 1.0
C      1  0.4692420000000  0.5157800000000  0.5545810000000 1.0
C      1  0.4454190000000  0.4841960000000  0.4692540000000 1.0
C      1  0.5307580000000  0.4842200000000  0.4454190000000 1.0
C      1  0.5545940000000  0.4842630000000  0.5307580000000 1.0
C      1  0.4692540000000  0.4842390000000  0.5545940000000 1.0
C      1  0.5583930000000  0.5150120000000  0.4572480000000 1.0
C      1  0.5427400000000  0.5150460000000  0.5583930000000 1.0
C      1  0.4415950000000  0.5150000000000  0.5427400000000 1.0
C      1  0.4572480000000  0.5149660000000  0.4415950000000 1.0
C      1  0.5584050000000  0.4850000000000  0.4572600000000 1.0
C      1  0.5427520000000  0.4850340000000  0.5584050000000 1.0
C      1  0.4416070000000  0.4849880000000  0.5427520000000 1.0
C      1  0.4572600000000  0.4849540000000  0.4416070000000 1.0
C      1  0.4719080000000  0.5860940000000  0.5257490000000 1.0
C      1  0.4741830000000  0.5860740000000  0.4719080000000 1.0
C      1  0.5280240000000  0.5860960000000  0.4741830000000 1.0
C      1  0.5257490000000  0.5861160000000  0.5280240000000 1.0
C      1  0.4719760000000  0.4139040000000  0.5258170000000 1.0
C      1  0.4742510000000  0.4138840000000  0.4719760000000 1.0
C      1  0.5280920000000  0.4139060000000  0.4742510000000 1.0
C      1  0.5258170000000  0.4139260000000  0.5280920000000 1.0
C      1  0.4620130000000  0.5871840000000  0.4980900000000 1.0
C      1  0.5018410000000  0.5871860000000  0.4620130000000 1.0
C      1  0.5379180000000  0.5872160000000  0.5018410000000 1.0
C      1  0.4980910000000  0.5872140000000  0.5379180000000 1.0
C      1  0.4620820000000  0.4127840000000  0.4981590000000 1.0
C      1  0.5019090000000  0.4127860000000  0.4620820000000 1.0
C      1  0.5379870000000  0.4128160000000  0.5019100000000 1.0
C      1  0.4981590000000  0.4128140000000  0.5379870000000 1.0
C      1  0.4386520000000  0.5550360000000  0.5207280000000 1.0
C      1  0.4792290000000  0.5550190000000  0.4386520000000 1.0
C      1  0.5613050000000  0.5550680000000  0.4792280000000 1.0
C      1  0.5207280000000  0.5550840000000  0.5613050000000 1.0
C      1  0.4386950000000  0.4449320000000  0.5207720000000 1.0
C      1  0.4792720000000  0.4449160000000  0.4386950000000 1.0
C      1  0.5613480000000  0.4449640000000  0.4792720000000 1.0
C      1  0.5207710000000  0.4449810000000  0.5613480000000 1.0
C      1  0.4703620000000  0.4707610000000  0.5805250000000 1.0
C      1  0.4194980000000  0.4706980000000  0.4703620000000 1.0
C      1  0.5296610000000  0.4707210000000  0.4194980000000 1.0
C      1  0.5805250000000  0.4707840000000  0.5296610000000 1.0
C      1  0.4703390000000  0.5292790000000  0.5805020000000 1.0
C      1  0.4194750000000  0.5292160000000  0.4703390000000 1.0
C      1  0.5296380000000  0.5292390000000  0.4194750000000 1.0
C      1  0.5805020000000  0.5293020000000  0.5296380000000 1.0
C      1  0.5645050000000  0.4738910000000  0.5747180000000 1.0
C      1  0.4253030000000  0.4738320000000  0.5645050000000 1.0
C      1  0.4355160000000  0.4737810000000  0.4253030000000 1.0
C      1  0.5747180000000  0.4738400000000  0.4355160000000 1.0
C      1  0.5644840000000  0.5262190000000  0.5746970000000 1.0
C      1  0.4252820000000  0.5261600000000  0.5644840000000 1.0
C      1  0.4354950000000  0.5261090000000  0.4252820000000 1.0
C      1  0.5746970000000  0.5261680000000  0.4354950000000 1.0
C      1  0.4566370000000  0.4336350000000  0.5402750000000 1.0
C      1  0.4597770000000  0.4336030000000  0.4566370000000 1.0
C      1  0.5434150000000  0.4336370000000  0.4597770000000 1.0
C      1  0.5402750000000  0.4336690000000  0.5434150000000 1.0
C      1  0.4565850000000  0.5663630000000  0.5402230000000 1.0
C      1  0.4597250000000  0.5663310000000  0.4565850000000 1.0
C      1  0.5433630000000  0.5663650000000  0.4597250000000 1.0
C      1  0.5402230000000  0.5663970000000  0.5433630000000 1.0
C      1  0.6051100000000  0.4686320000000  0.4747730000000 1.0
C      1  0.5252520000000  0.4686520000000  0.6051100000000 1.0
C      1  0.3949150000000  0.4685690000000  0.5252520000000 1.0
C      1  0.4747730000000  0.4685490000000  0.3949150000000 1.0
C      1  0.6050850000000  0.5314310000000  0.4747480000000 1.0
C      1  0.5252270000000  0.5314510000000  0.6050850000000 1.0
C      1  0.3948900000000  0.5313680000000  0.5252270000000 1.0
C      1  0.4747480000000  0.5313480000000  0.3948900000000 1.0
C      1  0.4363610000000  0.4740750000000  0.5159160000000 1.0
C      1  0.4841040000000  0.4740620000000  0.4363610000000 1.0
C      1  0.5636590000000  0.4741130000000  0.4841040000000 1.0
C      1  0.5159160000000  0.4741250000000  0.5636590000000 1.0
C      1  0.4363410000000  0.5258870000000  0.5158960000000 1.0
C      1  0.4840840000000  0.5258750000000  0.4363410000000 1.0
C      1  0.5636390000000  0.5259250000000  0.4840840000000 1.0
C      1  0.5158960000000  0.5259380000000  0.5636390000000 1.0
C      1  0.4013050000000  0.4661740000000  0.5505060000000 1.0
C      1  0.4495200000000  0.4661340000000  0.4013060000000 1.0
C      1  0.5987210000000  0.4662110000000  0.4495210000000 1.0
C      1  0.5505060000000  0.4662520000000  0.5987210000000 1.0
C      1  0.4012790000000  0.5337890000000  0.5504790000000 1.0
C      1  0.4494940000000  0.5337480000000  0.4012790000000 1.0
C      1  0.5986950000000  0.5338260000000  0.4494940000000 1.0
C      1  0.5504800000000  0.5338660000000  0.5986940000000 1.0
C      1  0.4984550000000  0.4695290000000  0.5197980000000 1.0
C      1  0.4802260000000  0.4695130000000  0.4984560000000 1.0
C      1  0.5015690000000  0.4695140000000  0.4802260000000 1.0
C      1  0.5197980000000  0.4695300000000  0.5015690000000 1.0
C      1  0.4984310000000  0.5304860000000  0.5197740000000 1.0
C      1  0.4802020000000  0.5304700000000  0.4984310000000 1.0
C      1  0.5015450000000  0.5304710000000  0.4802020000000 1.0
C      1  0.5197740000000  0.5304870000000  0.5015440000000 1.0
C      1  0.5892900000000  0.4826000000000  0.4986890000000 1.0
C      1  0.5013250000000  0.4826010000000  0.5892900000000 1.0
C      1  0.4107240000000  0.4825310000000  0.5013250000000 1.0
C      1  0.4986890000000  0.4825290000000  0.4107240000000 1.0
C      1  0.5892760000000  0.5174690000000  0.4986750000000 1.0
C      1  0.5013110000000  0.5174710000000  0.5892760000000 1.0
C      1  0.4107100000000  0.5174000000000  0.5013110000000 1.0
C      1  0.4986750000000  0.5173990000000  0.4107100000000 1.0
END
