TITL C-95205-2160-4 -14.6996374075115 125000 -383.656849698185 0 0 59 (S4) n - 1
REM
REM in /rds/project/t2_vol4/rds-t2-cs072/BORA/CARBON/from-Arr/AIRSS/Generating-Clusters/GAP-ML-2020/Higher-Symm/SD-CG/HFTN-CG
REM
REM
REM
REM
REM
REM ./C.cell (b20cbc046b6831c77cfcea5457e17084)
REM AIRSS Version 0.9.1 bugfix July 2018 build 013d7b7c2542+ Fri, 06 Jul 2018 19:26:36 +0100
REM compiler GCC version 9.3.0
REM options -cpp -mtune=generic -march=x86-64 -g -O0
REM seed -268089563 -441643489 1344089031 871521574 -1532426356 -2059073063 1223907434 -486889444 -848097971 -1355168039 745178520 -1372006144 379170911 150022902 327516705 -948650943 648070746 -585158767 478826240 1660461822 990929118 -1013668994 -1516754842 2057561913 -1210154693 -272757032 1047205781 589235942 -745476041 -1376341321 2027601459 339631764 1303708928
REM
CELL 1.54180   50.00000   50.00000   50.00000   90.00000   90.00000   90.00000
LATT -1
SFAC C  
C      1  0.4464400000000  0.4559760000000  0.5460660000000 1.0
C      1  0.5468570000000  0.5447450000000  0.5536110000000 1.0
C      1  0.5544060000000  0.4559960000000  0.4531760000000 1.0
C      1  0.4539670000000  0.5447430000000  0.4456450000000 1.0
C      1  0.5038390000000  0.5592320000000  0.5257380000000 1.0
C      1  0.5265330000000  0.4415000000000  0.4961910000000 1.0
C      1  0.4969810000000  0.5592360000000  0.4735210000000 1.0
C      1  0.4743160000000  0.4414930000000  0.5030490000000 1.0
C      1  0.4994860000000  0.5107460000000  0.4701690000000 1.0
C      1  0.4709620000000  0.4899830000000  0.5005540000000 1.0
C      1  0.5013460000000  0.5107420000000  0.5290820000000 1.0
C      1  0.5298750000000  0.4899900000000  0.4986940000000 1.0
C      1  0.5400690000000  0.5017660000000  0.4471660000000 1.0
C      1  0.4479580000000  0.4989700000000  0.4599730000000 1.0
C      1  0.4607650000000  0.5017480000000  0.5520840000000 1.0
C      1  0.5528770000000  0.4989760000000  0.5392770000000 1.0
C      1  0.4611710000000  0.4627210000000  0.4860970000000 1.0
C      1  0.4868880000000  0.5380010000000  0.5388790000000 1.0
C      1  0.5396730000000  0.4627280000000  0.5131470000000 1.0
C      1  0.5139380000000  0.5380100000000  0.4603770000000 1.0
C      1  0.4417010000000  0.4792960000000  0.5564090000000 1.0
C      1  0.5572010000000  0.5214250000000  0.5583450000000 1.0
C      1  0.5591390000000  0.4793180000000  0.4428370000000 1.0
C      1  0.4436290000000  0.5214210000000  0.4409080000000 1.0
C      1  0.4960230000000  0.4743710000000  0.5678330000000 1.0
C      1  0.5686250000000  0.5263620000000  0.5040240000000 1.0
C      1  0.5048180000000  0.4743820000000  0.4314120000000 1.0
C      1  0.4322040000000  0.5263460000000  0.4952300000000 1.0
C      1  0.5428450000000  0.5297500000000  0.4599090000000 1.0
C      1  0.4607020000000  0.4709870000000  0.4571910000000 1.0
C      1  0.4579830000000  0.5297340000000  0.5393460000000 1.0
C      1  0.5401390000000  0.4709900000000  0.5420540000000 1.0
C      1  0.4296970000000  0.4997190000000  0.4835810000000 1.0
C      1  0.4843740000000  0.5009960000000  0.5703450000000 1.0
C      1  0.5711380000000  0.4997330000000  0.5156680000000 1.0
C      1  0.5164610000000  0.5010110000000  0.4289050000000 1.0
C      1  0.4993560000000  0.5214900000000  0.5590880000000 1.0
C      1  0.5598810000000  0.4792420000000  0.5006820000000 1.0
C      1  0.5014740000000  0.5215000000000  0.4401650000000 1.0
C      1  0.4409590000000  0.4792280000000  0.4985640000000 1.0
C      1  0.5620800000000  0.5327420000000  0.4788670000000 1.0
C      1  0.4796600000000  0.4679990000000  0.4379560000000 1.0
C      1  0.4387470000000  0.5327240000000  0.5203880000000 1.0
C      1  0.5211820000000  0.4679940000000  0.5612890000000 1.0
C      1  0.5305310000000  0.5107270000000  0.5212600000000 1.0
C      1  0.5220530000000  0.4900100000000  0.4695090000000 1.0
C      1  0.4703010000000  0.5107230000000  0.4779910000000 1.0
C      1  0.4787840000000  0.4900000000000  0.5297390000000 1.0
C      1  0.4680990000000  0.4453330000000  0.5317200000000 1.0
C      1  0.5325100000000  0.5553920000000  0.5319540000000 1.0
C      1  0.5327490000000  0.4453460000000  0.4675210000000 1.0
C      1  0.4683120000000  0.5553900000000  0.4673040000000 1.0
C      1  0.5422630000000  0.5363820000000  0.5128850000000 1.0
C      1  0.5136790000000  0.4643570000000  0.4577720000000 1.0
C      1  0.4585630000000  0.5363750000000  0.4863700000000 1.0
C      1  0.4871640000000  0.4643470000000  0.5414720000000 1.0
C      1  0.5004250000000  0.4338820000000  0.4996200000000 1.0
C      1  0.5004090000000  0.5668480000000  0.4996300000000 1.0
C      1  0.5004170000000  0.5003650000000  0.4996250000000 1.0
END
