TITL C-95209-4156-5 -564.306232981925 125000 -918.48179439611 0 0 126 (C1) n - 1
REM
REM in /rds/project/t2_vol4/rds-t2-cs072/BORA/CARBON/from-Arr/AIRSS/Generating-Clusters/GAP-ML-2020/Higher-Symm/SD-CG/HFTN-CG
REM
REM
REM
REM
REM
REM ./C.cell (b20cbc046b6831c77cfcea5457e17084)
REM AIRSS Version 0.9.1 bugfix July 2018 build 013d7b7c2542+ Fri, 06 Jul 2018 19:26:36 +0100
REM compiler GCC version 9.3.0
REM options -cpp -mtune=generic -march=x86-64 -g -O0
REM seed -790653765 12657703 184759049 -920211536 -185656984 -1606549831 1141741626 1219489063 -2146634693 -584044263 -829160601 -1289529371 -550844229 728364071 688344585 1677955691 -1127733844 -1953028614 2050747931 936312276 918371181 341608275 -1631549191 989140394 -2017460968 -2013948372 -586403664 -807663554 -1637571629 1392368980 -946012293 936384202 327181938
REM
CELL 1.54180   50.00000   50.00000   50.00000   90.00000   90.00000   90.00000
LATT -1
SFAC C  
C      1  0.4243400000000  0.5339280000000  0.5466920000000 1.0
C      1  0.5034170000000  0.5337170000000  0.5874610000000 1.0
C      1  0.5781080000000  0.5316860000000  0.5421280000000 1.0
C      1  0.5731060000000  0.5329170000000  0.4534970000000 1.0
C      1  0.4954420000000  0.5304310000000  0.4100520000000 1.0
C      1  0.4192440000000  0.5297680000000  0.4574230000000 1.0
C      1  0.4245980000000  0.4721880000000  0.5469400000000 1.0
C      1  0.5028920000000  0.4730040000000  0.5896840000000 1.0
C      1  0.5779130000000  0.4705650000000  0.5422220000000 1.0
C      1  0.5732710000000  0.4699350000000  0.4535280000000 1.0
C      1  0.4954950000000  0.4697540000000  0.4096330000000 1.0
C      1  0.4194800000000  0.4689000000000  0.4582230000000 1.0
C      1  0.4516030000000  0.5298460000000  0.4222700000000 1.0
C      1  0.4100940000000  0.5310710000000  0.5018710000000 1.0
C      1  0.4580950000000  0.5352170000000  0.5767110000000 1.0
C      1  0.5473360000000  0.5331150000000  0.5764440000000 1.0
C      1  0.5862220000000  0.5313330000000  0.4978030000000 1.0
C      1  0.5409030000000  0.5318430000000  0.4219180000000 1.0
C      1  0.4519330000000  0.4691600000000  0.4230760000000 1.0
C      1  0.4096880000000  0.4695850000000  0.5026120000000 1.0
C      1  0.4570770000000  0.4730930000000  0.5783410000000 1.0
C      1  0.5463720000000  0.4723910000000  0.5764220000000 1.0
C      1  0.5871760000000  0.4695320000000  0.4978760000000 1.0
C      1  0.5410030000000  0.4706170000000  0.4219870000000 1.0
C      1  0.4706010000000  0.5140240000000  0.5070850000000 1.0
C      1  0.4911660000000  0.5238720000000  0.5258050000000 1.0
C      1  0.5194990000000  0.5143120000000  0.5194860000000 1.0
C      1  0.5240720000000  0.5238700000000  0.4903860000000 1.0
C      1  0.5042000000000  0.5141870000000  0.4709450000000 1.0
C      1  0.4791500000000  0.5266880000000  0.4811350000000 1.0
C      1  0.4715320000000  0.4847610000000  0.5065900000000 1.0
C      1  0.4927280000000  0.4732820000000  0.5246860000000 1.0
C      1  0.5194090000000  0.4851370000000  0.5188530000000 1.0
C      1  0.5243870000000  0.4749890000000  0.4916090000000 1.0
C      1  0.5045040000000  0.4848540000000  0.4715510000000 1.0
C      1  0.4793290000000  0.4726150000000  0.4810500000000 1.0
C      1  0.5066790000000  0.4501950000000  0.5733430000000 1.0
C      1  0.5654500000000  0.4475960000000  0.5308130000000 1.0
C      1  0.5579670000000  0.4463570000000  0.4576100000000 1.0
C      1  0.4917870000000  0.4475670000000  0.4268290000000 1.0
C      1  0.4321900000000  0.4466010000000  0.4702100000000 1.0
C      1  0.4405840000000  0.4491480000000  0.5426260000000 1.0
C      1  0.5081960000000  0.5563190000000  0.5709520000000 1.0
C      1  0.5670640000000  0.5553010000000  0.5310270000000 1.0
C      1  0.5574810000000  0.5565550000000  0.4579120000000 1.0
C      1  0.4911870000000  0.5529940000000  0.4264110000000 1.0
C      1  0.4315550000000  0.5527060000000  0.4685460000000 1.0
C      1  0.4407120000000  0.5563380000000  0.5409460000000 1.0
C      1  0.5374120000000  0.4474580000000  0.4381470000000 1.0
C      1  0.4647570000000  0.4470310000000  0.4350780000000 1.0
C      1  0.4264180000000  0.4470380000000  0.4980280000000 1.0
C      1  0.4606860000000  0.4498980000000  0.5624600000000 1.0
C      1  0.5336200000000  0.4498980000000  0.5650210000000 1.0
C      1  0.5717820000000  0.4462410000000  0.5031040000000 1.0
C      1  0.5368180000000  0.5547490000000  0.4381560000000 1.0
C      1  0.4639580000000  0.5525610000000  0.4338160000000 1.0
C      1  0.4260740000000  0.5535420000000  0.4961700000000 1.0
C      1  0.4618060000000  0.5583610000000  0.5602390000000 1.0
C      1  0.5356210000000  0.5562940000000  0.5650850000000 1.0
C      1  0.5711240000000  0.5547840000000  0.5033270000000 1.0
C      1  0.4084440000000  0.5139180000000  0.4787290000000 1.0
C      1  0.4371970000000  0.5180920000000  0.5664740000000 1.0
C      1  0.5268300000000  0.5172370000000  0.5881410000000 1.0
C      1  0.5875200000000  0.5148540000000  0.5211090000000 1.0
C      1  0.5610480000000  0.5156710000000  0.4338120000000 1.0
C      1  0.4718700000000  0.5138760000000  0.4098450000000 1.0
C      1  0.4082390000000  0.4855370000000  0.4789060000000 1.0
C      1  0.4369160000000  0.4895440000000  0.5664480000000 1.0
C      1  0.5266530000000  0.4891190000000  0.5886010000000 1.0
C      1  0.5878920000000  0.4865910000000  0.5211060000000 1.0
C      1  0.5609730000000  0.4871180000000  0.4338920000000 1.0
C      1  0.4717320000000  0.4856240000000  0.4098160000000 1.0
C      1  0.4776010000000  0.5597850000000  0.4791170000000 1.0
C      1  0.4718210000000  0.5701630000000  0.5069290000000 1.0
C      1  0.4915580000000  0.5535080000000  0.5259300000000 1.0
C      1  0.5180170000000  0.5603230000000  0.5169780000000 1.0
C      1  0.5250280000000  0.5531970000000  0.4900590000000 1.0
C      1  0.5051190000000  0.5697550000000  0.4712850000000 1.0
C      1  0.4780680000000  0.4402340000000  0.4802370000000 1.0
C      1  0.4718980000000  0.4284310000000  0.5086620000000 1.0
C      1  0.4926750000000  0.4412570000000  0.5281850000000 1.0
C      1  0.5205650000000  0.4322180000000  0.5201770000000 1.0
C      1  0.5256980000000  0.4453470000000  0.4919520000000 1.0
C      1  0.5059590000000  0.4316770000000  0.4716100000000 1.0
C      1  0.5215120000000  0.4785580000000  0.4031700000000 1.0
C      1  0.4263470000000  0.4774110000000  0.4320120000000 1.0
C      1  0.4044500000000  0.4792440000000  0.5286120000000 1.0
C      1  0.4769210000000  0.4818250000000  0.5965280000000 1.0
C      1  0.5723750000000  0.4796460000000  0.5684240000000 1.0
C      1  0.5928810000000  0.4784620000000  0.4717750000000 1.0
C      1  0.5216500000000  0.5227330000000  0.4032760000000 1.0
C      1  0.4262580000000  0.5210120000000  0.4314120000000 1.0
C      1  0.4048950000000  0.5241730000000  0.5286010000000 1.0
C      1  0.4775150000000  0.5260820000000  0.5950560000000 1.0
C      1  0.5728620000000  0.5239410000000  0.5687170000000 1.0
C      1  0.5924090000000  0.5233600000000  0.4717010000000 1.0
C      1  0.5531200000000  0.4338750000000  0.4838940000000 1.0
C      1  0.5117990000000  0.4382340000000  0.4437400000000 1.0
C      1  0.4567920000000  0.4370320000000  0.4603310000000 1.0
C      1  0.4443070000000  0.4373670000000  0.5173250000000 1.0
C      1  0.4862640000000  0.4399390000000  0.5570350000000 1.0
C      1  0.5407520000000  0.4391750000000  0.5402820000000 1.0
C      1  0.5518200000000  0.5673550000000  0.4854510000000 1.0
C      1  0.5109340000000  0.5641290000000  0.4430130000000 1.0
C      1  0.4561020000000  0.5618430000000  0.4589200000000 1.0
C      1  0.4439550000000  0.5649800000000  0.5145920000000 1.0
C      1  0.4891090000000  0.5685000000000  0.5525910000000 1.0
C      1  0.5457770000000  0.5695000000000  0.5425530000000 1.0
C      1  0.4851790000000  0.5972380000000  0.5131360000000 1.0
C      1  0.5006470000000  0.5932580000000  0.5368560000000 1.0
C      1  0.5284270000000  0.5860510000000  0.5261790000000 1.0
C      1  0.5373980000000  0.5927240000000  0.4976430000000 1.0
C      1  0.5126650000000  0.5969250000000  0.4837650000000 1.0
C      1  0.4956230000000  0.6148130000000  0.4951690000000 1.0
C      1  0.4788290000000  0.3992360000000  0.5063680000000 1.0
C      1  0.5035860000000  0.3864660000000  0.5136050000000 1.0
C      1  0.5262410000000  0.4041100000000  0.5128970000000 1.0
C      1  0.5396590000000  0.4054830000000  0.4880030000000 1.0
C      1  0.5148880000000  0.4039050000000  0.4742290000000 1.0
C      1  0.4949240000000  0.3872320000000  0.4859460000000 1.0
C      1  0.5854780000000  0.5015920000000  0.5802190000000 1.0
C      1  0.3890210000000  0.5018920000000  0.5337360000000 1.0
C      1  0.6087150000000  0.5010510000000  0.4666280000000 1.0
C      1  0.4729640000000  0.5044620000000  0.6125650000000 1.0
C      1  0.4132400000000  0.4990250000000  0.4196540000000 1.0
C      1  0.5260780000000  0.5006990000000  0.3865360000000 1.0
END
