TITL C-95207-3126-2 28.1707579401178 125000 -64.732600928189 0 0 11 (D2) n - 1
REM
REM in /rds/project/t2_vol4/rds-t2-cs072/BORA/CARBON/from-Arr/AIRSS/Generating-Clusters/GAP-ML-2020/Higher-Symm/SD-CG/HFTN-CG
REM
REM
REM
REM
REM
REM ./C.cell (b20cbc046b6831c77cfcea5457e17084)
REM AIRSS Version 0.9.1 bugfix July 2018 build 013d7b7c2542+ Fri, 06 Jul 2018 19:26:36 +0100
REM compiler GCC version 9.3.0
REM options -cpp -mtune=generic -march=x86-64 -g -O0
REM seed -628090926 1091597633 292617086 15879295 1012086286 2037074367 -1743029988 1273044768 1389796326 -2061604133 1693930834 578496422 -617975704 1627867700 -2114036608 2110813111 -867282747 -938633295 -1237294736 1884233028 296642587 1501967890 -1964433586 -1020375938 1258085640 524533527 -156595471 -176802567 -115603767 -2041645008 1155792156 205814007 -1733572658
REM
CELL 1.54180   50.00000   50.00000   50.00000   90.00000   90.00000   90.00000
LATT -1
SFAC C  
C      1  0.5258780000000  0.5081480000000  0.5112840000000 1.0
C      1  0.5258760000000  0.4914130000000  0.4869530000000 1.0
C      1  0.4765110000000  0.4914020000000  0.5112740000000 1.0
C      1  0.4765120000000  0.5081680000000  0.4869640000000 1.0
C      1  0.4779320000000  0.4956000000000  0.5385130000000 1.0
C      1  0.4779310000000  0.5039710000000  0.4597250000000 1.0
C      1  0.5244580000000  0.5039170000000  0.5385180000000 1.0
C      1  0.5244560000000  0.4956460000000  0.4597190000000 1.0
C      1  0.5011950000000  0.4997520000000  0.5495070000000 1.0
C      1  0.5011940000000  0.4998160000000  0.4487310000000 1.0
C      1  0.5011940000000  0.4997830000000  0.4991190000000 1.0
END
