TITL C-95211-3371-2 0.0767914500804832 125000 -136.960064337249 0 0 21 (C1) n - 1
REM
REM in /rds/project/t2_vol4/rds-t2-cs072/BORA/CARBON/from-Arr/AIRSS/Generating-Clusters/GAP-ML-2020/Higher-Symm/SD-CG/HFTN-CG
REM
REM
REM
REM
REM
REM ./C.cell (b20cbc046b6831c77cfcea5457e17084)
REM AIRSS Version 0.9.1 bugfix July 2018 build 013d7b7c2542+ Fri, 06 Jul 2018 19:26:36 +0100
REM compiler GCC version 9.3.0
REM options -cpp -mtune=generic -march=x86-64 -g -O0
REM seed -1026422321 46431865 702464468 897971957 336577421 -1080764869 185506300 -2106510613 1178791397 33156924 -35004175 -633623124 1363130569 -775904624 -1208047345 -1484791184 1580156004 1156550502 -1173731991 -1934942771 390555317 -594774934 -1563465832 -1600637148 81117873 806854422 -575286534 -455530443 -1850300323 455023839 918994375 -928387143 565614775
REM
CELL 1.54180   50.00000   50.00000   50.00000   90.00000   90.00000   90.00000
LATT -1
SFAC C  
C      1  0.5131650000000  0.4915450000000  0.4634100000000 1.0
C      1  0.4620260000000  0.5306410000000  0.5113220000000 1.0
C      1  0.4971550000000  0.5410470000000  0.5465090000000 1.0
C      1  0.5192010000000  0.5266330000000  0.4911270000000 1.0
C      1  0.5068370000000  0.4509650000000  0.5262910000000 1.0
C      1  0.5159750000000  0.4607080000000  0.5483360000000 1.0
C      1  0.4642220000000  0.4629370000000  0.4693850000000 1.0
C      1  0.4766310000000  0.5320800000000  0.5325200000000 1.0
C      1  0.5274160000000  0.5025300000000  0.5047450000000 1.0
C      1  0.4811720000000  0.4520000000000  0.4853270000000 1.0
C      1  0.5230140000000  0.5510400000000  0.5044610000000 1.0
C      1  0.5211590000000  0.4793810000000  0.4886570000000 1.0
C      1  0.4744320000000  0.5147810000000  0.4660520000000 1.0
C      1  0.5154700000000  0.5483030000000  0.5287730000000 1.0
C      1  0.5048070000000  0.4572920000000  0.4994810000000 1.0
C      1  0.4981240000000  0.4821090000000  0.4426800000000 1.0
C      1  0.5345130000000  0.5024080000000  0.5314090000000 1.0
C      1  0.4593990000000  0.5255130000000  0.4861490000000 1.0
C      1  0.4735260000000  0.4858910000000  0.4558430000000 1.0
C      1  0.5285440000000  0.4841170000000  0.5482990000000 1.0
C      1  0.5032140000000  0.5180780000000  0.4692260000000 1.0
END
