TITL C-95000-4854-3 -0.0252731667048593 125000 -520.027129499052 0 0 75 (C2) n - 1
REM
REM in /rds/project/t2_vol4/rds-t2-cs072/BORA/CARBON/from-Arr/AIRSS/Generating-Clusters/GAP-ML-2020/Higher-Symm/SD-CG/HFTN-CG
REM
REM
REM
REM
REM
REM ./C.cell (b20cbc046b6831c77cfcea5457e17084)
REM AIRSS Version 0.9.1 bugfix July 2018 build 013d7b7c2542+ Fri, 06 Jul 2018 19:26:36 +0100
REM compiler GCC version 9.3.0
REM options -cpp -mtune=generic -march=x86-64 -g -O0
REM seed 531024178 2104145825 -328323664 -599113173 -2078302005 -1947637605 1167041951 2102119520 1813345426 -1455768742 -185183024 -1240345795 1368797713 -1118110165 -2111527393 56398688 -1894188410 294831807 250724588 -1419496978 -2053911164 719927352 -1486211573 -390084556 1318451552 -381923454 -1551960331 77195291 2090457657 884892022 -2106933294 -567879098 -84107097
REM
CELL 1.54180   50.00000   50.00000   50.00000   90.00000   90.00000   90.00000
LATT -1
SFAC C  
C      1  0.4845430000000  0.5551460000000  0.5388980000000 1.0
C      1  0.5149120000000  0.4416840000000  0.5318410000000 1.0
C      1  0.4939110000000  0.4741060000000  0.5081860000000 1.0
C      1  0.5053440000000  0.5258570000000  0.5113060000000 1.0
C      1  0.5122140000000  0.5377390000000  0.4318730000000 1.0
C      1  0.4864160000000  0.4719880000000  0.4279530000000 1.0
C      1  0.4237680000000  0.4959440000000  0.5222580000000 1.0
C      1  0.5755840000000  0.5025010000000  0.5220650000000 1.0
C      1  0.5315790000000  0.4619920000000  0.4599290000000 1.0
C      1  0.4673060000000  0.5437430000000  0.4651800000000 1.0
C      1  0.4511940000000  0.5042320000000  0.5281130000000 1.0
C      1  0.5482010000000  0.4935480000000  0.5270810000000 1.0
C      1  0.4725100000000  0.4891070000000  0.5420730000000 1.0
C      1  0.5270010000000  0.5068500000000  0.5429450000000 1.0
C      1  0.5111080000000  0.4418870000000  0.4578090000000 1.0
C      1  0.4877700000000  0.5639660000000  0.4653660000000 1.0
C      1  0.4775810000000  0.5213140000000  0.5746310000000 1.0
C      1  0.5221690000000  0.4709140000000  0.5713750000000 1.0
C      1  0.5394980000000  0.5556660000000  0.4571860000000 1.0
C      1  0.4593220000000  0.4510980000000  0.4511050000000 1.0
C      1  0.5739160000000  0.5292110000000  0.5140060000000 1.0
C      1  0.4253610000000  0.4704160000000  0.5109910000000 1.0
C      1  0.4958940000000  0.4067220000000  0.4949110000000 1.0
C      1  0.5032900000000  0.5943560000000  0.5063560000000 1.0
C      1  0.4932560000000  0.5179610000000  0.4313590000000 1.0
C      1  0.5053800000000  0.4916910000000  0.4297050000000 1.0
C      1  0.5080500000000  0.4294510000000  0.4842820000000 1.0
C      1  0.4910410000000  0.5730860000000  0.4931310000000 1.0
C      1  0.4594060000000  0.5377750000000  0.4937520000000 1.0
C      1  0.5397050000000  0.4644380000000  0.4889530000000 1.0
C      1  0.4587850000000  0.4763790000000  0.4365490000000 1.0
C      1  0.5399100000000  0.5323470000000  0.4396540000000 1.0
C      1  0.4865320000000  0.4364430000000  0.5331860000000 1.0
C      1  0.5129360000000  0.5601970000000  0.5406500000000 1.0
C      1  0.4868960000000  0.4932220000000  0.4881090000000 1.0
C      1  0.5121930000000  0.5093330000000  0.4889950000000 1.0
C      1  0.4155500000000  0.5193400000000  0.5068540000000 1.0
C      1  0.5836710000000  0.4811600000000  0.5038620000000 1.0
C      1  0.4346490000000  0.5404990000000  0.5128520000000 1.0
C      1  0.5646080000000  0.4594190000000  0.5073860000000 1.0
C      1  0.4671750000000  0.5402660000000  0.5547460000000 1.0
C      1  0.5324100000000  0.4545300000000  0.5492480000000 1.0
C      1  0.4778000000000  0.4215920000000  0.5098270000000 1.0
C      1  0.5214920000000  0.5777880000000  0.5192070000000 1.0
C      1  0.4527120000000  0.4336320000000  0.5000350000000 1.0
C      1  0.5464970000000  0.5670430000000  0.5078270000000 1.0
C      1  0.4289240000000  0.4702710000000  0.4826350000000 1.0
C      1  0.5701320000000  0.5328080000000  0.4859070000000 1.0
C      1  0.5475440000000  0.5071510000000  0.4484440000000 1.0
C      1  0.4512310000000  0.5003120000000  0.4484020000000 1.0
C      1  0.4683590000000  0.5224400000000  0.4458310000000 1.0
C      1  0.5303860000000  0.4854930000000  0.4433290000000 1.0
C      1  0.4368930000000  0.4980560000000  0.4738680000000 1.0
C      1  0.5620820000000  0.5062950000000  0.4738820000000 1.0
C      1  0.5535500000000  0.4649880000000  0.5334540000000 1.0
C      1  0.4459070000000  0.5318010000000  0.5379600000000 1.0
C      1  0.4136420000000  0.5148590000000  0.4807070000000 1.0
C      1  0.5853770000000  0.4887940000000  0.4784420000000 1.0
C      1  0.4599090000000  0.5070370000000  0.4960230000000 1.0
C      1  0.5392340000000  0.4946700000000  0.4949560000000 1.0
C      1  0.4450790000000  0.4521430000000  0.5201790000000 1.0
C      1  0.5542790000000  0.5462180000000  0.5255050000000 1.0
C      1  0.4756480000000  0.4923310000000  0.5706260000000 1.0
C      1  0.5240840000000  0.5001700000000  0.5709160000000 1.0
C      1  0.4960430000000  0.4737360000000  0.5767900000000 1.0
C      1  0.5037470000000  0.5178650000000  0.5794580000000 1.0
C      1  0.5541930000000  0.5563310000000  0.4814090000000 1.0
C      1  0.4448160000000  0.4474790000000  0.4751810000000 1.0
C      1  0.4876820000000  0.4475440000000  0.4428460000000 1.0
C      1  0.5110760000000  0.5601850000000  0.4496420000000 1.0
C      1  0.4828910000000  0.5492560000000  0.5087610000000 1.0
C      1  0.5163320000000  0.4512030000000  0.5026340000000 1.0
C      1  0.4715640000000  0.4614460000000  0.5294320000000 1.0
C      1  0.5278610000000  0.5358460000000  0.5337620000000 1.0
C      1  0.4996990000000  0.4988590000000  0.5281060000000 1.0
END
