TITL C-96507-2282-7 0.0228605974438173 125000 -200.743242368965 0 0 32 (Ci) n - 1
REM
REM in /rds/project/t2_vol4/rds-t2-cs072/BORA/CARBON/from-Arr/AIRSS/Generating-Clusters/GAP-ML-2020/Higher-Symm/SD-CG/HFTN-CG
REM
REM
REM
REM
REM
REM ./C.cell (b20cbc046b6831c77cfcea5457e17084)
REM AIRSS Version 0.9.1 bugfix July 2018 build 013d7b7c2542+ Fri, 06 Jul 2018 19:26:36 +0100
REM compiler GCC version 9.3.0
REM options -cpp -mtune=generic -march=x86-64 -g -O0
REM seed -756017746 -808869598 1868478978 1043579074 -879543792 920983772 -2120789498 189485131 -23993425 176399880 -675899786 -1692468548 20075589 -191221251 513043291 -1942631289 -6329882 642773274 1007614708 -1968593068 1549452596 -1292241635 -1637680640 540171115 1316440442 -1614150435 -73081567 -324139770 -744620252 149842456 -667229396 1839198687 -2052117513
REM
CELL 1.54180   50.00000   50.00000   50.00000   90.00000   90.00000   90.00000
LATT -1
SFAC C  
C      1  0.4867330000000  0.4470570000000  0.4952360000000 1.0
C      1  0.4878180000000  0.5498120000000  0.5044600000000 1.0
C      1  0.5165170000000  0.4501880000000  0.4955400000000 1.0
C      1  0.5176020000000  0.5529430000000  0.5047640000000 1.0
C      1  0.5291960000000  0.4965470000000  0.5274470000000 1.0
C      1  0.5226030000000  0.5129140000000  0.4712390000000 1.0
C      1  0.4817320000000  0.4870860000000  0.5287610000000 1.0
C      1  0.4751380000000  0.5034530000000  0.4725530000000 1.0
C      1  0.5145290000000  0.4633630000000  0.4696810000000 1.0
C      1  0.5190440000000  0.5433100000000  0.5315300000000 1.0
C      1  0.4852900000000  0.4566900000000  0.4684700000000 1.0
C      1  0.4898050000000  0.5366370000000  0.5303190000000 1.0
C      1  0.5372930000000  0.4709200000000  0.5360030000000 1.0
C      1  0.5410850000000  0.5286660000000  0.4873310000000 1.0
C      1  0.4632490000000  0.4713340000000  0.5126690000000 1.0
C      1  0.4670410000000  0.5290800000000  0.4639970000000 1.0
C      1  0.4732070000000  0.4466350000000  0.5195610000000 1.0
C      1  0.4738100000000  0.5505070000000  0.4812640000000 1.0
C      1  0.5305240000000  0.4494930000000  0.5187360000000 1.0
C      1  0.5311270000000  0.5533650000000  0.4804390000000 1.0
C      1  0.5159700000000  0.5396160000000  0.4586310000000 1.0
C      1  0.5150550000000  0.4546750000000  0.5423930000000 1.0
C      1  0.4892800000000  0.5453250000000  0.4576070000000 1.0
C      1  0.4883640000000  0.4603840000000  0.5413690000000 1.0
C      1  0.4852720000000  0.5118200000000  0.5432960000000 1.0
C      1  0.4735200000000  0.4802530000000  0.4568230000000 1.0
C      1  0.5308140000000  0.5197470000000  0.5431770000000 1.0
C      1  0.5190620000000  0.4881800000000  0.4567040000000 1.0
C      1  0.4996840000000  0.5078110000000  0.4886550000000 1.0
C      1  0.5046500000000  0.4921890000000  0.5113450000000 1.0
C      1  0.4946010000000  0.4921000000000  0.4420780000000 1.0
C      1  0.5097330000000  0.5079000000000  0.5579220000000 1.0
END
