TITL C-96511-2377-3 -0.0597213155560207 125000 -453.674443259566 0 0 63 (C1) n - 1
REM
REM in /rds/project/t2_vol4/rds-t2-cs072/BORA/CARBON/from-Arr/AIRSS/Generating-Clusters/GAP-ML-2020/Higher-Symm/SD-CG/HFTN-CG
REM
REM
REM
REM
REM
REM ./C.cell (b20cbc046b6831c77cfcea5457e17084)
REM AIRSS Version 0.9.1 bugfix July 2018 build 013d7b7c2542+ Fri, 06 Jul 2018 19:26:36 +0100
REM compiler GCC version 9.3.0
REM options -cpp -mtune=generic -march=x86-64 -g -O0
REM seed 1145385615 1723007544 582078753 -1176208122 1425703864 745558046 -1283859371 587272310 554586366 -210142061 2088172239 2055334654 700406318 1218796042 -2006277517 1782997948 -989607086 -1873683732 -1498883253 1546713928 944968141 639197877 2110411970 1211372305 -190753617 138077567 -769588369 -1175041418 26447488 373843312 -1053547696 1760143128 2033845857
REM
CELL 1.54180   50.00000   50.00000   50.00000   90.00000   90.00000   90.00000
LATT -1
SFAC C  
C      1  0.4989000000000  0.4309320000000  0.5014620000000 1.0
C      1  0.4988340000000  0.4383210000000  0.5302180000000 1.0
C      1  0.4980390000000  0.4898290000000  0.5691790000000 1.0
C      1  0.4972930000000  0.5195250000000  0.5692190000000 1.0
C      1  0.4956160000000  0.5725720000000  0.5398760000000 1.0
C      1  0.5022570000000  0.5627300000000  0.4759610000000 1.0
C      1  0.5013560000000  0.5465030000000  0.4504600000000 1.0
C      1  0.4994210000000  0.4856210000000  0.4319560000000 1.0
C      1  0.4990210000000  0.4584770000000  0.4439620000000 1.0
C      1  0.4399470000000  0.5295820000000  0.5314970000000 1.0
C      1  0.4416100000000  0.5417960000000  0.5058810000000 1.0
C      1  0.4407360000000  0.5345130000000  0.4777190000000 1.0
C      1  0.4412130000000  0.5115550000000  0.4605710000000 1.0
C      1  0.4389720000000  0.4827680000000  0.4611790000000 1.0
C      1  0.4397150000000  0.4618950000000  0.4809440000000 1.0
C      1  0.4386300000000  0.4590590000000  0.5095450000000 1.0
C      1  0.4400230000000  0.4756470000000  0.5331470000000 1.0
C      1  0.4382970000000  0.5028260000000  0.5425320000000 1.0
C      1  0.5646400000000  0.4906140000000  0.5373830000000 1.0
C      1  0.5618140000000  0.5203360000000  0.5356690000000 1.0
C      1  0.5585630000000  0.5392230000000  0.5154240000000 1.0
C      1  0.5675710000000  0.5395680000000  0.4883270000000 1.0
C      1  0.5682680000000  0.5219440000000  0.4648380000000 1.0
C      1  0.5678250000000  0.4958750000000  0.4563040000000 1.0
C      1  0.5669760000000  0.4690830000000  0.4690760000000 1.0
C      1  0.5665830000000  0.4583430000000  0.4940940000000 1.0
C      1  0.5656580000000  0.4676450000000  0.5225320000000 1.0
C      1  0.4584270000000  0.5535460000000  0.4651060000000 1.0
C      1  0.4609280000000  0.5176750000000  0.4388180000000 1.0
C      1  0.4553670000000  0.4731920000000  0.4393610000000 1.0
C      1  0.4595110000000  0.4417970000000  0.4711630000000 1.0
C      1  0.4551780000000  0.4360690000000  0.5153100000000 1.0
C      1  0.4594730000000  0.4621020000000  0.5513950000000 1.0
C      1  0.4540000000000  0.5038620000000  0.5667640000000 1.0
C      1  0.4572680000000  0.5450760000000  0.5496080000000 1.0
C      1  0.4606980000000  0.5638890000000  0.5083230000000 1.0
C      1  0.4705550000000  0.5651320000000  0.5348190000000 1.0
C      1  0.4747560000000  0.5668410000000  0.4840830000000 1.0
C      1  0.4739210000000  0.5416910000000  0.4447560000000 1.0
C      1  0.4720600000000  0.4938900000000  0.4294770000000 1.0
C      1  0.4714910000000  0.4514420000000  0.4478340000000 1.0
C      1  0.4715030000000  0.4293800000000  0.4931450000000 1.0
C      1  0.4713750000000  0.4407740000000  0.5380190000000 1.0
C      1  0.4708060000000  0.4810500000000  0.5684850000000 1.0
C      1  0.4694920000000  0.5275580000000  0.5679810000000 1.0
C      1  0.5428950000000  0.5195990000000  0.5574910000000 1.0
C      1  0.5344560000000  0.5560390000000  0.5171450000000 1.0
C      1  0.5492630000000  0.5572050000000  0.4741070000000 1.0
C      1  0.5483300000000  0.5399050000000  0.4516100000000 1.0
C      1  0.5457830000000  0.4875230000000  0.4386880000000 1.0
C      1  0.5452420000000  0.4615110000000  0.4508560000000 1.0
C      1  0.5450410000000  0.4393590000000  0.5001120000000 1.0
C      1  0.5446430000000  0.4475890000000  0.5276360000000 1.0
C      1  0.5440560000000  0.4909730000000  0.5587060000000 1.0
C      1  0.5269580000000  0.5640410000000  0.4900740000000 1.0
C      1  0.5235360000000  0.5307830000000  0.4413640000000 1.0
C      1  0.5225000000000  0.5024440000000  0.4334660000000 1.0
C      1  0.5216750000000  0.4482050000000  0.4581490000000 1.0
C      1  0.5216840000000  0.4357540000000  0.4849060000000 1.0
C      1  0.5211680000000  0.4512880000000  0.5425140000000 1.0
C      1  0.5209340000000  0.4750320000000  0.5600580000000 1.0
C      1  0.5195470000000  0.5343650000000  0.5594740000000 1.0
C      1  0.5177030000000  0.5566380000000  0.5402430000000 1.0
END
