TITL C-96402-7611-3 43.2453046294983 125000 -1143.71426222286 0 0 167 (C3) n - 1
REM
REM in /rds/project/t2_vol4/rds-t2-cs072/BORA/CARBON/from-Arr/AIRSS/Generating-Clusters/GAP-ML-2020/Higher-Symm/SD-CG/HFTN-CG/C160-200
REM
REM
REM
REM
REM
REM ./C.cell (6b4489405718ea1b717e0baf1da4c2d9)
REM AIRSS Version 0.9.1 bugfix July 2018 build 013d7b7c2542+ Fri, 06 Jul 2018 19:26:36 +0100
REM compiler GCC version 9.3.0
REM options -cpp -mtune=generic -march=x86-64 -g -O0
REM seed -1639550684 540208512 -1345155298 -913978074 -982759812 600386450 1595762557 1944182777 -1207918693 727023413 1839604678 585982153 551802034 810670237 -1715421286 -1516231904 -495374029 -2078400066 -1650157263 -1640047758 954524740 1383233207 -1732309098 -1237358044 1997657514 1097840779 215615279 1222105536 1118954188 -1783129415 -241315846 817080737 1118153631
REM
CELL 1.54180   50.00000   50.00000   50.00000   90.00000   90.00000   90.00000
LATT -1
SFAC C  
C      1  0.5256030000000  0.4977840000000  0.6052450000000 1.0
C      1  0.6056340000000  0.5266200000000  0.4974580000000 1.0
C      1  0.4983100000000  0.6077720000000  0.5273410000000 1.0
C      1  0.4734050000000  0.5030350000000  0.6061080000000 1.0
C      1  0.4744620000000  0.4961080000000  0.3928060000000 1.0
C      1  0.5268640000000  0.5017150000000  0.3927240000000 1.0
C      1  0.3922510000000  0.4731570000000  0.4987850000000 1.0
C      1  0.3923320000000  0.5255590000000  0.5043920000000 1.0
C      1  0.6047720000000  0.4744230000000  0.5027090000000 1.0
C      1  0.5022390000000  0.3952510000000  0.5260730000000 1.0
C      1  0.5039150000000  0.6076920000000  0.4749390000000 1.0
C      1  0.4969860000000  0.3943900000000  0.4738750000000 1.0
C      1  0.5636350000000  0.5115080000000  0.5587560000000 1.0
C      1  0.5612200000000  0.5680020000000  0.5117780000000 1.0
C      1  0.5099900000000  0.5623020000000  0.5673950000000 1.0
C      1  0.4320220000000  0.4887180000000  0.5616950000000 1.0
C      1  0.4364280000000  0.5074670000000  0.4444960000000 1.0
C      1  0.5669200000000  0.4900350000000  0.4381920000000 1.0
C      1  0.4377210000000  0.4331010000000  0.5104630000000 1.0
C      1  0.4440210000000  0.5635940000000  0.4930320000000 1.0
C      1  0.5582840000000  0.4363890000000  0.4889860000000 1.0
C      1  0.4885160000000  0.4417380000000  0.5641070000000 1.0
C      1  0.4925550000000  0.5560030000000  0.4369030000000 1.0
C      1  0.5113030000000  0.4388040000000  0.4324940000000 1.0
C      1  0.4022450000000  0.5427670000000  0.5292730000000 1.0
C      1  0.5269030000000  0.4037510000000  0.5426840000000 1.0
C      1  0.5435670000000  0.5270910000000  0.4021030000000 1.0
C      1  0.5962720000000  0.4578110000000  0.5273730000000 1.0
C      1  0.5979940000000  0.5428230000000  0.4722100000000 1.0
C      1  0.4016300000000  0.4564540000000  0.4734080000000 1.0
C      1  0.4729340000000  0.5983920000000  0.5440440000000 1.0
C      1  0.4717370000000  0.4020290000000  0.4576730000000 1.0
C      1  0.5287960000000  0.5977800000000  0.4577300000000 1.0
C      1  0.4572530000000  0.4712270000000  0.4027180000000 1.0
C      1  0.4572020000000  0.5282840000000  0.5984690000000 1.0
C      1  0.5422140000000  0.4731200000000  0.5967440000000 1.0
C      1  0.4323930000000  0.5772570000000  0.5173130000000 1.0
C      1  0.5142110000000  0.4323880000000  0.5772100000000 1.0
C      1  0.5799780000000  0.5157030000000  0.4299500000000 1.0
C      1  0.5676340000000  0.4232850000000  0.5146810000000 1.0
C      1  0.5702920000000  0.5784210000000  0.4849930000000 1.0
C      1  0.4294780000000  0.4200430000000  0.4847950000000 1.0
C      1  0.4843220000000  0.5705440000000  0.5804540000000 1.0
C      1  0.4845190000000  0.4297310000000  0.4220750000000 1.0
C      1  0.5168360000000  0.5676310000000  0.4232390000000 1.0
C      1  0.4227640000000  0.4831860000000  0.4328680000000 1.0
C      1  0.4216040000000  0.5155020000000  0.5707680000000 1.0
C      1  0.5767390000000  0.4858130000000  0.5681050000000 1.0
C      1  0.5332610000000  0.4913590000000  0.5259840000000 1.0
C      1  0.5255890000000  0.5392080000000  0.5007240000000 1.0
C      1  0.4916110000000  0.5314080000000  0.5368160000000 1.0
C      1  0.4608160000000  0.4997720000000  0.5260630000000 1.0
C      1  0.4786790000000  0.4866140000000  0.4759870000000 1.0
C      1  0.5363420000000  0.5084130000000  0.4690870000000 1.0
C      1  0.4686140000000  0.4636810000000  0.4920840000000 1.0
C      1  0.4755140000000  0.5213430000000  0.5138830000000 1.0
C      1  0.5255110000000  0.4667630000000  0.5091360000000 1.0
C      1  0.5086650000000  0.4745120000000  0.5337330000000 1.0
C      1  0.5134080000000  0.5245100000000  0.4791530000000 1.0
C      1  0.5002490000000  0.4744340000000  0.4612880000000 1.0
C      1  0.4236220000000  0.5657140000000  0.4472880000000 1.0
C      1  0.4438720000000  0.4211830000000  0.5677380000000 1.0
C      1  0.5681500000000  0.4440240000000  0.4209150000000 1.0
C      1  0.5788380000000  0.4327600000000  0.4443420000000 1.0
C      1  0.5789130000000  0.5681380000000  0.5564230000000 1.0
C      1  0.4204450000000  0.4318700000000  0.5564740000000 1.0
C      1  0.5560010000000  0.5795790000000  0.5686250000000 1.0
C      1  0.5559490000000  0.4211120000000  0.4323560000000 1.0
C      1  0.4468100000000  0.5764000000000  0.4347850000000 1.0
C      1  0.4343080000000  0.5532120000000  0.4240990000000 1.0
C      1  0.4318860000000  0.4440710000000  0.5793860000000 1.0
C      1  0.5672650000000  0.5561520000000  0.5793120000000 1.0
C      1  0.4308520000000  0.5208670000000  0.5957780000000 1.0
C      1  0.5930370000000  0.4315660000000  0.5199670000000 1.0
C      1  0.5212430000000  0.5934940000000  0.4316530000000 1.0
C      1  0.5684590000000  0.4805260000000  0.5935090000000 1.0
C      1  0.5700970000000  0.5205120000000  0.4049520000000 1.0
C      1  0.4311770000000  0.4787800000000  0.4070050000000 1.0
C      1  0.4065300000000  0.5688440000000  0.5217210000000 1.0
C      1  0.4044790000000  0.4299240000000  0.4799870000000 1.0
C      1  0.5953020000000  0.5691730000000  0.4796270000000 1.0
C      1  0.4791530000000  0.4047210000000  0.4313230000000 1.0
C      1  0.4795140000000  0.5955420000000  0.5705750000000 1.0
C      1  0.5194980000000  0.4069860000000  0.5689290000000 1.0
C      1  0.4879700000000  0.5072650000000  0.4356580000000 1.0
C      1  0.4369480000000  0.4895320000000  0.5134010000000 1.0
C      1  0.5114810000000  0.4430330000000  0.4924020000000 1.0
C      1  0.5104900000000  0.4870980000000  0.4374210000000 1.0
C      1  0.5066100000000  0.5157940000000  0.5575330000000 1.0
C      1  0.4919300000000  0.4885410000000  0.5574640000000 1.0
C      1  0.5569910000000  0.5080940000000  0.5119530000000 1.0
C      1  0.5570590000000  0.4934140000000  0.4847000000000 1.0
C      1  0.4351840000000  0.5120520000000  0.4932340000000 1.0
C      1  0.4927590000000  0.5648390000000  0.4884460000000 1.0
C      1  0.4842280000000  0.4429630000000  0.5070820000000 1.0
C      1  0.5129260000000  0.5630750000000  0.5109650000000 1.0
C      1  0.4144310000000  0.4374950000000  0.5294960000000 1.0
C      1  0.5291170000000  0.4151410000000  0.4383520000000 1.0
C      1  0.4409720000000  0.5262610000000  0.4199860000000 1.0
C      1  0.5848830000000  0.5621430000000  0.5295910000000 1.0
C      1  0.5827140000000  0.4401930000000  0.4711320000000 1.0
C      1  0.4195100000000  0.5590500000000  0.4742390000000 1.0
C      1  0.4737620000000  0.5805130000000  0.4414480000000 1.0
C      1  0.4706630000000  0.4173070000000  0.5603040000000 1.0
C      1  0.5290230000000  0.5855920000000  0.5630010000000 1.0
C      1  0.5625260000000  0.4710020000000  0.4149030000000 1.0
C      1  0.5598320000000  0.5293610000000  0.5831880000000 1.0
C      1  0.4378820000000  0.4709030000000  0.5853570000000 1.0
C      1  0.5177290000000  0.4646220000000  0.4188910000000 1.0
C      1  0.4212880000000  0.5139480000000  0.4689600000000 1.0
C      1  0.4648920000000  0.4216010000000  0.5149940000000 1.0
C      1  0.4860730000000  0.5315400000000  0.4217630000000 1.0
C      1  0.4833950000000  0.4681830000000  0.5766850000000 1.0
C      1  0.5145230000000  0.5351300000000  0.5788950000000 1.0
C      1  0.5784210000000  0.4855020000000  0.4653630000000 1.0
C      1  0.5762120000000  0.5166300000000  0.5323120000000 1.0
C      1  0.4184190000000  0.4822920000000  0.5358770000000 1.0
C      1  0.5354020000000  0.5816050000000  0.5182050000000 1.0
C      1  0.5318390000000  0.4238110000000  0.4838650000000 1.0
C      1  0.4684840000000  0.5787350000000  0.4865500000000 1.0
C      1  0.4793510000000  0.5945860000000  0.4653800000000 1.0
C      1  0.4636600000000  0.4779710000000  0.5956210000000 1.0
C      1  0.5949360000000  0.4650430000000  0.4771810000000 1.0
C      1  0.5220500000000  0.4048770000000  0.4641300000000 1.0
C      1  0.5238590000000  0.5984140000000  0.5383270000000 1.0
C      1  0.4767110000000  0.4050860000000  0.5354540000000 1.0
C      1  0.5349830000000  0.5233120000000  0.5954090000000 1.0
C      1  0.5378500000000  0.4761660000000  0.4020810000000 1.0
C      1  0.4649030000000  0.5206720000000  0.4059120000000 1.0
C      1  0.4054370000000  0.5351180000000  0.4798280000000 1.0
C      1  0.4016090000000  0.4621700000000  0.5243330000000 1.0
C      1  0.5951470000000  0.5363650000000  0.5225230000000 1.0
C      1  0.4660130000000  0.5001260000000  0.4523160000000 1.0
C      1  0.4429430000000  0.4634370000000  0.5007820000000 1.0
C      1  0.5054580000000  0.4482880000000  0.4634610000000 1.0
C      1  0.5365850000000  0.4997160000000  0.4434160000000 1.0
C      1  0.5337910000000  0.5047220000000  0.5505420000000 1.0
C      1  0.4629890000000  0.4945640000000  0.5522100000000 1.0
C      1  0.5517360000000  0.5370350000000  0.5059310000000 1.0
C      1  0.5500690000000  0.4662330000000  0.4957720000000 1.0
C      1  0.4518420000000  0.5340090000000  0.5003720000000 1.0
C      1  0.4998970000000  0.5481820000000  0.4664890000000 1.0
C      1  0.4953010000000  0.4499530000000  0.5342630000000 1.0
C      1  0.5003090000000  0.5570790000000  0.5370600000000 1.0
C      1  0.4611280000000  0.4470200000000  0.4209860000000 1.0
C      1  0.4197440000000  0.4596950000000  0.4490980000000 1.0
C      1  0.4472130000000  0.4189970000000  0.4621360000000 1.0
C      1  0.5403270000000  0.5514000000000  0.4202180000000 1.0
C      1  0.5377550000000  0.4490560000000  0.5790480000000 1.0
C      1  0.4616640000000  0.5528080000000  0.5815010000000 1.0
C      1  0.5810250000000  0.5383620000000  0.4476860000000 1.0
C      1  0.5785770000000  0.4622690000000  0.5514380000000 1.0
C      1  0.4205130000000  0.5388920000000  0.5534800000000 1.0
C      1  0.5530030000000  0.5795110000000  0.4616030000000 1.0
C      1  0.5509670000000  0.4214470000000  0.5382250000000 1.0
C      1  0.4486240000000  0.5802770000000  0.5408040000000 1.0
C      1  0.5006970000000  0.4988390000000  0.3845910000000 1.0
C      1  0.4996360000000  0.5002160000000  0.6131100000000 1.0
C      1  0.3841180000000  0.4993230000000  0.5016610000000 1.0
C      1  0.4998060000000  0.3873860000000  0.5001050000000 1.0
C      1  0.6126370000000  0.5003900000000  0.5002770000000 1.0
C      1  0.5011850000000  0.6159060000000  0.5011740000000 1.0
C      1  0.5590140000000  0.5573340000000  0.4421570000000 1.0
C      1  0.4426910000000  0.5583380000000  0.5594910000000 1.0
C      1  0.5567120000000  0.4433110000000  0.5571830000000 1.0
C      1  0.4416830000000  0.4410080000000  0.4431640000000 1.0
C      1  0.4906020000000  0.5094210000000  0.4910760000000 1.0
END
