TITL C-96393-7642-2 0.268059516003354 125000 -1276.42344320923 0 0 180 (C1) n - 1
REM
REM in /rds/project/t2_vol4/rds-t2-cs072/BORA/CARBON/from-Arr/AIRSS/Generating-Clusters/GAP-ML-2020/Higher-Symm/SD-CG/HFTN-CG/C160-200
REM
REM
REM
REM
REM
REM ./C.cell (6b4489405718ea1b717e0baf1da4c2d9)
REM AIRSS Version 0.9.1 bugfix July 2018 build 013d7b7c2542+ Fri, 06 Jul 2018 19:26:36 +0100
REM compiler GCC version 9.3.0
REM options -cpp -mtune=generic -march=x86-64 -g -O0
REM seed -1866078176 820554343 -2132216034 -917200027 -88126867 -415340923 477156859 454440833 -1623343212 1468830961 -1889432697 1117767484 1024220927 -1069890463 -1673704562 17332799 524669563 -761911813 1894285924 476177794 -1299534971 1292560744 -744891764 948677024 39478722 -1174777473 785685564 1049145625 -479600218 571059409 -1888662822 1397997300 -979775214
REM
CELL 1.54180   50.00000   50.00000   50.00000   90.00000   90.00000   90.00000
LATT -1
SFAC C  
C      1  0.5677820000000  0.4288120000000  0.4588210000000 1.0
C      1  0.5680060000000  0.4418300000000  0.5087560000000 1.0
C      1  0.5434040000000  0.4426460000000  0.5533210000000 1.0
C      1  0.4998810000000  0.4311950000000  0.5790320000000 1.0
C      1  0.4487450000000  0.4310620000000  0.5624410000000 1.0
C      1  0.4206390000000  0.4307510000000  0.5163830000000 1.0
C      1  0.4375590000000  0.4409190000000  0.4679800000000 1.0
C      1  0.4754280000000  0.4433170000000  0.4361950000000 1.0
C      1  0.5264290000000  0.4316780000000  0.4260930000000 1.0
C      1  0.5727910000000  0.5926560000000  0.4964520000000 1.0
C      1  0.5628860000000  0.5972710000000  0.5236820000000 1.0
C      1  0.5242230000000  0.5975250000000  0.5605130000000 1.0
C      1  0.4965480000000  0.5942210000000  0.5691840000000 1.0
C      1  0.4393690000000  0.5977320000000  0.5375450000000 1.0
C      1  0.4359210000000  0.5955690000000  0.4794820000000 1.0
C      1  0.4527090000000  0.5978720000000  0.4554350000000 1.0
C      1  0.5009410000000  0.5942150000000  0.4329410000000 1.0
C      1  0.5301460000000  0.5941240000000  0.4354140000000 1.0
C      1  0.4609350000000  0.5206960000000  0.5590850000000 1.0
C      1  0.4318670000000  0.5164120000000  0.5205460000000 1.0
C      1  0.4345560000000  0.5170930000000  0.4718180000000 1.0
C      1  0.4688980000000  0.5178370000000  0.4376480000000 1.0
C      1  0.5163930000000  0.5176430000000  0.4323680000000 1.0
C      1  0.5577420000000  0.5185010000000  0.4584860000000 1.0
C      1  0.5715890000000  0.5179000000000  0.5038460000000 1.0
C      1  0.5514620000000  0.5167050000000  0.5481730000000 1.0
C      1  0.5070240000000  0.5181320000000  0.5689550000000 1.0
C      1  0.4839470000000  0.4730480000000  0.3969810000000 1.0
C      1  0.5542440000000  0.4710600000000  0.4113840000000 1.0
C      1  0.5991760000000  0.4700160000000  0.4668690000000 1.0
C      1  0.5975390000000  0.4723080000000  0.5382280000000 1.0
C      1  0.5503030000000  0.4729760000000  0.5921270000000 1.0
C      1  0.4795780000000  0.4721610000000  0.6012060000000 1.0
C      1  0.4183600000000  0.4719510000000  0.5643560000000 1.0
C      1  0.3943860000000  0.4715840000000  0.4971650000000 1.0
C      1  0.4207790000000  0.4732270000000  0.4306460000000 1.0
C      1  0.4398820000000  0.4556620000000  0.5738290000000 1.0
C      1  0.4043650000000  0.4544860000000  0.5183860000000 1.0
C      1  0.4167690000000  0.4570120000000  0.4542880000000 1.0
C      1  0.4654520000000  0.4578500000000  0.4124310000000 1.0
C      1  0.5309240000000  0.4545970000000  0.4094230000000 1.0
C      1  0.5819440000000  0.4530290000000  0.4508570000000 1.0
C      1  0.5930660000000  0.4564510000000  0.5146190000000 1.0
C      1  0.5617830000000  0.4570390000000  0.5714750000000 1.0
C      1  0.5018460000000  0.4551620000000  0.5952260000000 1.0
C      1  0.4666560000000  0.5416910000000  0.6122130000000 1.0
C      1  0.4011930000000  0.5406690000000  0.5649200000000 1.0
C      1  0.3829540000000  0.5421510000000  0.4864140000000 1.0
C      1  0.4216280000000  0.5444310000000  0.4162630000000 1.0
C      1  0.4943330000000  0.5430770000000  0.3851000000000 1.0
C      1  0.5710260000000  0.5397420000000  0.4056070000000 1.0
C      1  0.6167190000000  0.5393880000000  0.4718220000000 1.0
C      1  0.6038120000000  0.5431500000000  0.5515430000000 1.0
C      1  0.5454350000000  0.5435610000000  0.6046220000000 1.0
C      1  0.5812300000000  0.4744030000000  0.5608160000000 1.0
C      1  0.5229020000000  0.4740900000000  0.5970140000000 1.0
C      1  0.4554040000000  0.4744700000000  0.5878770000000 1.0
C      1  0.4067850000000  0.4732900000000  0.5392050000000 1.0
C      1  0.4020210000000  0.4742790000000  0.4704980000000 1.0
C      1  0.4439140000000  0.4756300000000  0.4152110000000 1.0
C      1  0.5115700000000  0.4736230000000  0.4009170000000 1.0
C      1  0.5728230000000  0.4722350000000  0.4321550000000 1.0
C      1  0.6016810000000  0.4734850000000  0.4943790000000 1.0
C      1  0.5783730000000  0.5014820000000  0.4388060000000 1.0
C      1  0.6011210000000  0.5024050000000  0.5023520000000 1.0
C      1  0.5755460000000  0.5031950000000  0.5665980000000 1.0
C      1  0.5143430000000  0.5031190000000  0.5979510000000 1.0
C      1  0.4481670000000  0.5035600000000  0.5836010000000 1.0
C      1  0.4044860000000  0.5021500000000  0.5310700000000 1.0
C      1  0.4056000000000  0.5030520000000  0.4631050000000 1.0
C      1  0.4519020000000  0.5042980000000  0.4118930000000 1.0
C      1  0.5201440000000  0.5024310000000  0.4033240000000 1.0
C      1  0.5319430000000  0.4152590000000  0.5178850000000 1.0
C      1  0.5141160000000  0.4058480000000  0.5385170000000 1.0
C      1  0.4835130000000  0.4052320000000  0.5427700000000 1.0
C      1  0.4600130000000  0.4056080000000  0.5245000000000 1.0
C      1  0.4562610000000  0.4064710000000  0.4949860000000 1.0
C      1  0.4742140000000  0.4075580000000  0.4698260000000 1.0
C      1  0.5007920000000  0.4151230000000  0.4612440000000 1.0
C      1  0.5265100000000  0.4031040000000  0.4653330000000 1.0
C      1  0.5416610000000  0.4041180000000  0.4930130000000 1.0
C      1  0.4308850000000  0.5345760000000  0.4958250000000 1.0
C      1  0.4505360000000  0.5359380000000  0.4530200000000 1.0
C      1  0.4925610000000  0.5365970000000  0.4322160000000 1.0
C      1  0.5387490000000  0.5354560000000  0.4426390000000 1.0
C      1  0.5677850000000  0.5371110000000  0.4805130000000 1.0
C      1  0.5636240000000  0.5354280000000  0.5276770000000 1.0
C      1  0.5305050000000  0.5352710000000  0.5605690000000 1.0
C      1  0.4838750000000  0.5386390000000  0.5671380000000 1.0
C      1  0.4431380000000  0.5363690000000  0.5407220000000 1.0
C      1  0.5610590000000  0.4994120000000  0.5936240000000 1.0
C      1  0.4869830000000  0.4983110000000  0.6096290000000 1.0
C      1  0.4193690000000  0.4982320000000  0.5750660000000 1.0
C      1  0.3881300000000  0.4979120000000  0.5060980000000 1.0
C      1  0.4098830000000  0.4995660000000  0.4330190000000 1.0
C      1  0.4748320000000  0.4995620000000  0.3916800000000 1.0
C      1  0.5499880000000  0.4973590000000  0.4018350000000 1.0
C      1  0.6023550000000  0.4961130000000  0.4561390000000 1.0
C      1  0.6073040000000  0.4985300000000  0.5321570000000 1.0
C      1  0.4643590000000  0.5155370000000  0.6078740000000 1.0
C      1  0.4018600000000  0.5144490000000  0.5600200000000 1.0
C      1  0.3858370000000  0.5155590000000  0.4838070000000 1.0
C      1  0.4229060000000  0.5174420000000  0.4149720000000 1.0
C      1  0.4971310000000  0.5161980000000  0.3861070000000 1.0
C      1  0.5713620000000  0.5136260000000  0.4107320000000 1.0
C      1  0.6130720000000  0.5133300000000  0.4761040000000 1.0
C      1  0.6019130000000  0.5161960000000  0.5537040000000 1.0
C      1  0.5421910000000  0.5166820000000  0.6059970000000 1.0
C      1  0.5948470000000  0.5548090000000  0.4769690000000 1.0
C      1  0.5821940000000  0.5562310000000  0.5417300000000 1.0
C      1  0.5410880000000  0.5561730000000  0.5808660000000 1.0
C      1  0.4774320000000  0.5576040000000  0.5931150000000 1.0
C      1  0.4203170000000  0.5554730000000  0.5529040000000 1.0
C      1  0.4065370000000  0.5555530000000  0.4888460000000 1.0
C      1  0.4387410000000  0.5571600000000  0.4331180000000 1.0
C      1  0.4897630000000  0.5557660000000  0.4087560000000 1.0
C      1  0.5549010000000  0.5549890000000  0.4212900000000 1.0
C      1  0.4658140000000  0.5478210000000  0.5242850000000 1.0
C      1  0.4584700000000  0.5469130000000  0.4977310000000 1.0
C      1  0.4704580000000  0.5461800000000  0.4728220000000 1.0
C      1  0.4957140000000  0.5538640000000  0.4603980000000 1.0
C      1  0.5238650000000  0.5474320000000  0.4656060000000 1.0
C      1  0.5417920000000  0.5542370000000  0.4880000000000 1.0
C      1  0.5383070000000  0.5465440000000  0.5162460000000 1.0
C      1  0.5186860000000  0.5469790000000  0.5355400000000 1.0
C      1  0.4901080000000  0.5554410000000  0.5393990000000 1.0
C      1  0.4758370000000  0.4209530000000  0.5658870000000 1.0
C      1  0.4389190000000  0.4206020000000  0.5369130000000 1.0
C      1  0.4328280000000  0.4233110000000  0.4913140000000 1.0
C      1  0.4583860000000  0.4263400000000  0.4532350000000 1.0
C      1  0.5001950000000  0.4277760000000  0.4365910000000 1.0
C      1  0.5437570000000  0.4189510000000  0.4456740000000 1.0
C      1  0.5652820000000  0.4216790000000  0.4868150000000 1.0
C      1  0.5527240000000  0.4290490000000  0.5296230000000 1.0
C      1  0.5216980000000  0.4239230000000  0.5615450000000 1.0
C      1  0.5493460000000  0.5815200000000  0.4210610000000 1.0
C      1  0.5932440000000  0.5809280000000  0.4845320000000 1.0
C      1  0.5678560000000  0.5818220000000  0.5470750000000 1.0
C      1  0.5472700000000  0.5820400000000  0.5669930000000 1.0
C      1  0.4849200000000  0.5838490000000  0.5910930000000 1.0
C      1  0.4222040000000  0.5825550000000  0.5482400000000 1.0
C      1  0.4139450000000  0.5810040000000  0.4826010000000 1.0
C      1  0.4546630000000  0.5820310000000  0.4321580000000 1.0
C      1  0.4803610000000  0.5820060000000  0.4184850000000 1.0
C      1  0.5163450000000  0.6014270000000  0.5328350000000 1.0
C      1  0.4890590000000  0.5889770000000  0.5383530000000 1.0
C      1  0.4636670000000  0.6009220000000  0.5245020000000 1.0
C      1  0.4598160000000  0.6039370000000  0.4963540000000 1.0
C      1  0.4756800000000  0.6044270000000  0.4722700000000 1.0
C      1  0.4989010000000  0.5897750000000  0.4633760000000 1.0
C      1  0.5278950000000  0.5960040000000  0.4645540000000 1.0
C      1  0.5432290000000  0.5876340000000  0.4875240000000 1.0
C      1  0.5357870000000  0.6013430000000  0.5140790000000 1.0
C      1  0.5015260000000  0.4711080000000  0.5374810000000 1.0
C      1  0.4829800000000  0.4568410000000  0.5236020000000 1.0
C      1  0.4625200000000  0.4679930000000  0.5099400000000 1.0
C      1  0.4589070000000  0.4665890000000  0.4809610000000 1.0
C      1  0.4813880000000  0.4670480000000  0.4604880000000 1.0
C      1  0.5101890000000  0.4704540000000  0.4632550000000 1.0
C      1  0.5333050000000  0.4702240000000  0.4786900000000 1.0
C      1  0.5440480000000  0.4657710000000  0.5050290000000 1.0
C      1  0.5303740000000  0.4678130000000  0.5323820000000 1.0
C      1  0.5217220000000  0.3730890000000  0.4704260000000 1.0
C      1  0.5362700000000  0.3735350000000  0.4951140000000 1.0
C      1  0.5300860000000  0.3608710000000  0.5188100000000 1.0
C      1  0.5134630000000  0.3742400000000  0.5361550000000 1.0
C      1  0.4852380000000  0.3743030000000  0.5399640000000 1.0
C      1  0.4631020000000  0.3736020000000  0.5221480000000 1.0
C      1  0.4585830000000  0.3753750000000  0.4942710000000 1.0
C      1  0.4749090000000  0.3752790000000  0.4710400000000 1.0
C      1  0.4975300000000  0.3609410000000  0.4649270000000 1.0
C      1  0.4791240000000  0.4989770000000  0.4591840000000 1.0
C      1  0.5107720000000  0.5002200000000  0.4573340000000 1.0
C      1  0.5378260000000  0.5005780000000  0.4744220000000 1.0
C      1  0.5471780000000  0.4992240000000  0.5035950000000 1.0
C      1  0.5336520000000  0.4988720000000  0.5314980000000 1.0
C      1  0.5026420000000  0.5002890000000  0.5437100000000 1.0
C      1  0.4746830000000  0.5054000000000  0.5370710000000 1.0
C      1  0.4568600000000  0.4981970000000  0.5137590000000 1.0
C      1  0.4570700000000  0.4984980000000  0.4811210000000 1.0
END
