TITL C-96509-2312-1 -0.00456956773597503 125000 -44.1933842003211 0 0 7 (D(inf)h) n - 1
REM
REM in /rds/project/t2_vol4/rds-t2-cs072/BORA/CARBON/from-Arr/AIRSS/Generating-Clusters/GAP-ML-2020/Higher-Symm/SD-CG/HFTN-CG
REM
REM
REM
REM
REM
REM ./C.cell (b20cbc046b6831c77cfcea5457e17084)
REM AIRSS Version 0.9.1 bugfix July 2018 build 013d7b7c2542+ Fri, 06 Jul 2018 19:26:36 +0100
REM compiler GCC version 9.3.0
REM options -cpp -mtune=generic -march=x86-64 -g -O0
REM seed 973112602 -1837355206 -2083183087 -952837688 1043342693 1536696442 -600210403 1091473276 166031193 234518220 1689821824 2090403555 -782932055 1618041865 1698192450 1933100792 -1945990251 482578176 1839709513 -735052655 1216634499 -399630536 -1027400191 -315259677 1369681236 1825546679 1020870509 867017968 1679840390 531933739 -1237399788 2105717853 -1953846723
REM
CELL 1.54180   50.00000   50.00000   50.00000   90.00000   90.00000   90.00000
LATT -1
SFAC C  
C      1  0.5001300000000  0.5767350000000  0.4992600000000 1.0
C      1  0.5001300000000  0.4746190000000  0.4992600000000 1.0
C      1  0.5001300000000  0.5510980000000  0.4992600000000 1.0
C      1  0.5001300000000  0.4489020000000  0.4992600000000 1.0
C      1  0.5001300000000  0.5000000000000  0.4992600000000 1.0
C      1  0.5001300000000  0.4232650000000  0.4992600000000 1.0
C      1  0.5001300000000  0.5253810000000  0.4992600000000 1.0
END
