TITL C-96390-7647-3 577.917012621556 125000 -1181.66207444864 0 0 169 (C1) n - 1
REM
REM in /rds/project/t2_vol4/rds-t2-cs072/BORA/CARBON/from-Arr/AIRSS/Generating-Clusters/GAP-ML-2020/Higher-Symm/SD-CG/HFTN-CG/C160-200
REM
REM
REM
REM
REM
REM ./C.cell (6b4489405718ea1b717e0baf1da4c2d9)
REM AIRSS Version 0.9.1 bugfix July 2018 build 013d7b7c2542+ Fri, 06 Jul 2018 19:26:36 +0100
REM compiler GCC version 9.3.0
REM options -cpp -mtune=generic -march=x86-64 -g -O0
REM seed 1657877108 2147083870 2121513145 -1823540419 -1479891225 2109633467 -1719668541 638326704 2094850286 -1741698020 918768206 -808120198 -759014787 106479633 -1871851346 1723451327 2059255131 -172558017 -2005614289 -2067261224 247808306 585177830 -691411086 225548317 1875080098 -2119287461 1875203382 152006385 826073160 -760005776 -398266848 -1106064298 -1972551213
REM
CELL 1.54180   50.00000   50.00000   50.00000   90.00000   90.00000   90.00000
LATT -1
SFAC C  
C      1  0.4812560000000  0.5134940000000  0.6167860000000 1.0
C      1  0.3839740000000  0.5153790000000  0.5220300000000 1.0
C      1  0.4427360000000  0.5163420000000  0.3922600000000 1.0
C      1  0.5849020000000  0.5135350000000  0.4175140000000 1.0
C      1  0.6046250000000  0.5126330000000  0.5565450000000 1.0
C      1  0.4955710000000  0.4909300000000  0.6136310000000 1.0
C      1  0.3930670000000  0.4934520000000  0.5343670000000 1.0
C      1  0.4386560000000  0.4922530000000  0.4050980000000 1.0
C      1  0.5710710000000  0.4908930000000  0.4130930000000 1.0
C      1  0.6033320000000  0.4895630000000  0.5425620000000 1.0
C      1  0.5282330000000  0.4337650000000  0.5782020000000 1.0
C      1  0.4464550000000  0.4395200000000  0.5435710000000 1.0
C      1  0.4415140000000  0.4405740000000  0.4704260000000 1.0
C      1  0.5211800000000  0.4354460000000  0.4268750000000 1.0
C      1  0.5638960000000  0.4405020000000  0.4979400000000 1.0
C      1  0.5263740000000  0.5646480000000  0.5806360000000 1.0
C      1  0.4448730000000  0.5598520000000  0.5410300000000 1.0
C      1  0.4417950000000  0.5583020000000  0.4559530000000 1.0
C      1  0.5255150000000  0.5600380000000  0.4272370000000 1.0
C      1  0.5706400000000  0.5558880000000  0.5007310000000 1.0
C      1  0.4411830000000  0.5148790000000  0.5813600000000 1.0
C      1  0.4044100000000  0.5142190000000  0.4658000000000 1.0
C      1  0.5059620000000  0.5140250000000  0.3960580000000 1.0
C      1  0.5948330000000  0.5139800000000  0.4753330000000 1.0
C      1  0.5586710000000  0.5142710000000  0.5899960000000 1.0
C      1  0.4433970000000  0.4852000000000  0.5823050000000 1.0
C      1  0.4032440000000  0.4847970000000  0.4693750000000 1.0
C      1  0.5049040000000  0.4841520000000  0.3941470000000 1.0
C      1  0.5925870000000  0.4850990000000  0.4730670000000 1.0
C      1  0.5601160000000  0.4842020000000  0.5883730000000 1.0
C      1  0.5546540000000  0.5605000000000  0.5753330000000 1.0
C      1  0.4541800000000  0.5599220000000  0.5693500000000 1.0
C      1  0.4184990000000  0.5588290000000  0.4745640000000 1.0
C      1  0.5005170000000  0.5585680000000  0.4131710000000 1.0
C      1  0.5891050000000  0.5598700000000  0.4729790000000 1.0
C      1  0.5550770000000  0.4399350000000  0.5687360000000 1.0
C      1  0.4591390000000  0.4410060000000  0.5708880000000 1.0
C      1  0.4152510000000  0.4398840000000  0.4843500000000 1.0
C      1  0.4950280000000  0.4406740000000  0.4148940000000 1.0
C      1  0.5795670000000  0.4407270000000  0.4693530000000 1.0
C      1  0.4950200000000  0.4818030000000  0.4523980000000 1.0
C      1  0.5390420000000  0.4899440000000  0.4930760000000 1.0
C      1  0.5277150000000  0.4786880000000  0.5379660000000 1.0
C      1  0.4836920000000  0.4922670000000  0.5420220000000 1.0
C      1  0.4505400000000  0.4902790000000  0.4914680000000 1.0
C      1  0.4957150000000  0.5143310000000  0.4529350000000 1.0
C      1  0.5366720000000  0.5119960000000  0.4768100000000 1.0
C      1  0.5306170000000  0.5304930000000  0.5364190000000 1.0
C      1  0.4691520000000  0.5140130000000  0.5348670000000 1.0
C      1  0.4572180000000  0.5122590000000  0.4771160000000 1.0
C      1  0.4469750000000  0.4093110000000  0.5364950000000 1.0
C      1  0.4473020000000  0.4111550000000  0.4631570000000 1.0
C      1  0.5203710000000  0.4106320000000  0.4434510000000 1.0
C      1  0.5618880000000  0.4103300000000  0.5020410000000 1.0
C      1  0.5189450000000  0.4111020000000  0.5625380000000 1.0
C      1  0.4473630000000  0.5887410000000  0.5308510000000 1.0
C      1  0.4495050000000  0.5886520000000  0.4528190000000 1.0
C      1  0.5256020000000  0.5849530000000  0.4437590000000 1.0
C      1  0.5637590000000  0.5845990000000  0.5045160000000 1.0
C      1  0.5172060000000  0.5869340000000  0.5644480000000 1.0
C      1  0.4213500000000  0.5835380000000  0.4885250000000 1.0
C      1  0.4866250000000  0.5830820000000  0.4187330000000 1.0
C      1  0.5886380000000  0.5857730000000  0.4648380000000 1.0
C      1  0.5588770000000  0.5768260000000  0.5539080000000 1.0
C      1  0.4676780000000  0.5846180000000  0.5715730000000 1.0
C      1  0.4159340000000  0.4149940000000  0.4975490000000 1.0
C      1  0.4791710000000  0.4188280000000  0.4234460000000 1.0
C      1  0.5809900000000  0.4152180000000  0.4601310000000 1.0
C      1  0.5589530000000  0.4233570000000  0.5474640000000 1.0
C      1  0.4721220000000  0.4166900000000  0.5738890000000 1.0
C      1  0.4640060000000  0.4435410000000  0.4921970000000 1.0
C      1  0.4896000000000  0.4377890000000  0.4787520000000 1.0
C      1  0.5347910000000  0.4431440000000  0.4896220000000 1.0
C      1  0.4992300000000  0.4348190000000  0.5206540000000 1.0
C      1  0.4698820000000  0.4422540000000  0.5219120000000 1.0
C      1  0.4621910000000  0.5572780000000  0.4783910000000 1.0
C      1  0.4888990000000  0.5652940000000  0.4718330000000 1.0
C      1  0.5473410000000  0.5481470000000  0.4833720000000 1.0
C      1  0.4978490000000  0.5665630000000  0.5186760000000 1.0
C      1  0.4728660000000  0.5566350000000  0.5286450000000 1.0
C      1  0.4897930000000  0.4660530000000  0.6002090000000 1.0
C      1  0.4105380000000  0.4734800000000  0.5198830000000 1.0
C      1  0.4610010000000  0.4755680000000  0.4122140000000 1.0
C      1  0.5667900000000  0.4685760000000  0.4304820000000 1.0
C      1  0.5858130000000  0.4671980000000  0.5459060000000 1.0
C      1  0.4847000000000  0.5335400000000  0.5989470000000 1.0
C      1  0.4015900000000  0.5343990000000  0.5140330000000 1.0
C      1  0.4574260000000  0.5340600000000  0.4065280000000 1.0
C      1  0.5732400000000  0.5324770000000  0.4328230000000 1.0
C      1  0.5883770000000  0.5337080000000  0.5529100000000 1.0
C      1  0.5135460000000  0.5382350000000  0.5871740000000 1.0
C      1  0.4249700000000  0.5369640000000  0.5357230000000 1.0
C      1  0.4441050000000  0.5344780000000  0.4359230000000 1.0
C      1  0.5410660000000  0.5343250000000  0.4280760000000 1.0
C      1  0.5795600000000  0.5344730000000  0.5209660000000 1.0
C      1  0.5167160000000  0.4543770000000  0.5945140000000 1.0
C      1  0.4230330000000  0.4581590000000  0.5433180000000 1.0
C      1  0.4420240000000  0.4620910000000  0.4502690000000 1.0
C      1  0.5374920000000  0.4605090000000  0.4255830000000 1.0
C      1  0.5746150000000  0.4632050000000  0.5171380000000 1.0
C      1  0.5403580000000  0.3979220000000  0.5147970000000 1.0
C      1  0.4923650000000  0.4012950000000  0.5628410000000 1.0
C      1  0.4353140000000  0.4013180000000  0.5125080000000 1.0
C      1  0.4664310000000  0.4043340000000  0.4442910000000 1.0
C      1  0.5338710000000  0.3992750000000  0.4663490000000 1.0
C      1  0.5403970000000  0.5951830000000  0.5158060000000 1.0
C      1  0.4905060000000  0.5970880000000  0.5628900000000 1.0
C      1  0.4385420000000  0.5978340000000  0.5057780000000 1.0
C      1  0.4717670000000  0.5971160000000  0.4382250000000 1.0
C      1  0.5379000000000  0.5945230000000  0.4678250000000 1.0
C      1  0.5549150000000  0.5168040000000  0.5274090000000 1.0
C      1  0.5171930000000  0.5222650000000  0.5595970000000 1.0
C      1  0.4416360000000  0.5129770000000  0.5303010000000 1.0
C      1  0.4635890000000  0.5107860000000  0.4494440000000 1.0
C      1  0.5276580000000  0.5099570000000  0.4486580000000 1.0
C      1  0.5503400000000  0.4893650000000  0.5196930000000 1.0
C      1  0.5103300000000  0.4961480000000  0.5520870000000 1.0
C      1  0.4334860000000  0.4925640000000  0.5137510000000 1.0
C      1  0.4645150000000  0.4802460000000  0.4411470000000 1.0
C      1  0.5218620000000  0.4821800000000  0.4407820000000 1.0
C      1  0.4636290000000  0.4637650000000  0.5875470000000 1.0
C      1  0.4032820000000  0.4646720000000  0.4915630000000 1.0
C      1  0.4849150000000  0.4646700000000  0.4013000000000 1.0
C      1  0.5820660000000  0.4654760000000  0.4545470000000 1.0
C      1  0.5704580000000  0.4641380000000  0.5698250000000 1.0
C      1  0.4591520000000  0.5374370000000  0.5861100000000 1.0
C      1  0.4046160000000  0.5366530000000  0.4850860000000 1.0
C      1  0.4869550000000  0.5357100000000  0.4020090000000 1.0
C      1  0.5883750000000  0.5357160000000  0.4577130000000 1.0
C      1  0.5700060000000  0.5366680000000  0.5755180000000 1.0
C      1  0.4985270000000  0.5369480000000  0.4723270000000 1.0
C      1  0.5233070000000  0.5354530000000  0.4888970000000 1.0
C      1  0.5127200000000  0.5400620000000  0.5164240000000 1.0
C      1  0.4817000000000  0.5318280000000  0.5168320000000 1.0
C      1  0.4730340000000  0.5323090000000  0.4890000000000 1.0
C      1  0.4962240000000  0.4669210000000  0.4769800000000 1.0
C      1  0.5213900000000  0.4676990000000  0.4922360000000 1.0
C      1  0.5111450000000  0.4617620000000  0.5209490000000 1.0
C      1  0.4825890000000  0.4706530000000  0.5228060000000 1.0
C      1  0.4726850000000  0.4728280000000  0.4952240000000 1.0
C      1  0.4366770000000  0.3974560000000  0.4847430000000 1.0
C      1  0.4940410000000  0.4003430000000  0.4387890000000 1.0
C      1  0.5606190000000  0.4029870000000  0.4734150000000 1.0
C      1  0.5388810000000  0.4056510000000  0.5419900000000 1.0
C      1  0.4663280000000  0.3978250000000  0.5525780000000 1.0
C      1  0.4405780000000  0.5999380000000  0.4769540000000 1.0
C      1  0.5007690000000  0.5986680000000  0.4371880000000 1.0
C      1  0.5651250000000  0.5931810000000  0.4762660000000 1.0
C      1  0.5383710000000  0.5916080000000  0.5441590000000 1.0
C      1  0.4651950000000  0.6009090000000  0.5490060000000 1.0
C      1  0.5339640000000  0.5200000000000  0.4014170000000 1.0
C      1  0.5989370000000  0.5186470000000  0.5039870000000 1.0
C      1  0.5335080000000  0.5205470000000  0.6026570000000 1.0
C      1  0.4200740000000  0.5209550000000  0.5621550000000 1.0
C      1  0.4173580000000  0.5190840000000  0.4394760000000 1.0
C      1  0.5314730000000  0.4747730000000  0.3986880000000 1.0
C      1  0.5961050000000  0.4756620000000  0.5000450000000 1.0
C      1  0.5362990000000  0.4746190000000  0.6020170000000 1.0
C      1  0.4217880000000  0.4761470000000  0.5654540000000 1.0
C      1  0.4172680000000  0.4753130000000  0.4459590000000 1.0
C      1  0.4046390000000  0.4976140000000  0.5591660000000 1.0
C      1  0.4193230000000  0.4947120000000  0.4257360000000 1.0
C      1  0.5486270000000  0.4963320000000  0.3971360000000 1.0
C      1  0.6080700000000  0.4950150000000  0.5156360000000 1.0
C      1  0.5229290000000  0.4967860000000  0.6124560000000 1.0
C      1  0.5202940000000  0.3975200000000  0.4930470000000 1.0
C      1  0.5224730000000  0.5961460000000  0.4926310000000 1.0
C      1  0.4988530000000  0.5809150000000  0.4940870000000 1.0
C      1  0.5086220000000  0.4239110000000  0.4953640000000 1.0
END
