TITL C-96397-7950-3 1029.65167100556 125000 -1367.70876804498 0 0 199 (C1) n - 1
REM
REM in /rds/project/t2_vol4/rds-t2-cs072/BORA/CARBON/from-Arr/AIRSS/Generating-Clusters/GAP-ML-2020/Higher-Symm/SD-CG/HFTN-CG/C160-200
REM
REM
REM
REM
REM
REM ./C.cell (6b4489405718ea1b717e0baf1da4c2d9)
REM AIRSS Version 0.9.1 bugfix July 2018 build 013d7b7c2542+ Fri, 06 Jul 2018 19:26:36 +0100
REM compiler GCC version 9.3.0
REM options -cpp -mtune=generic -march=x86-64 -g -O0
REM seed 935944208 -1420925736 1534362472 2123495666 -1172864449 -1985198458 1034639001 -1987249933 1173538390 591414443 1091817631 -1739210351 -1726577170 2117751776 1759481638 930350493 1825392307 -296740294 1453482891 1058843455 -1912085071 -1651271524 -984750694 -1691146865 137560949 -1015774832 491779743 -1043277722 -1546737904 809971042 1438878856 -292465375 341671037
REM
CELL 1.54180   50.00000   50.00000   50.00000   90.00000   90.00000   90.00000
LATT -1
SFAC C  
C      1  0.5787050000000  0.4249340000000  0.4835230000000 1.0
C      1  0.5264090000000  0.4530220000000  0.4242520000000 1.0
C      1  0.4511640000000  0.4406500000000  0.4449820000000 1.0
C      1  0.4072380000000  0.4366610000000  0.5121120000000 1.0
C      1  0.4758860000000  0.4333850000000  0.5716900000000 1.0
C      1  0.5522670000000  0.4430590000000  0.5597970000000 1.0
C      1  0.4242110000000  0.4383660000000  0.4878830000000 1.0
C      1  0.4781740000000  0.4433890000000  0.4301860000000 1.0
C      1  0.5473080000000  0.4431300000000  0.4427760000000 1.0
C      1  0.5722390000000  0.4327310000000  0.5131710000000 1.0
C      1  0.5252070000000  0.4430810000000  0.5756370000000 1.0
C      1  0.4483630000000  0.4268280000000  0.5624030000000 1.0
C      1  0.5531360000000  0.5840970000000  0.4348220000000 1.0
C      1  0.4690180000000  0.5855520000000  0.4174210000000 1.0
C      1  0.4176570000000  0.5819860000000  0.4857970000000 1.0
C      1  0.4405440000000  0.5792770000000  0.5657320000000 1.0
C      1  0.5297720000000  0.5870690000000  0.5803030000000 1.0
C      1  0.5899960000000  0.5845440000000  0.5116490000000 1.0
C      1  0.4465620000000  0.5853420000000  0.4344700000000 1.0
C      1  0.5292340000000  0.5838820000000  0.4200110000000 1.0
C      1  0.5898970000000  0.5838030000000  0.4834710000000 1.0
C      1  0.5548670000000  0.5874620000000  0.5668130000000 1.0
C      1  0.4646100000000  0.5810250000000  0.5797030000000 1.0
C      1  0.4161010000000  0.5854210000000  0.5148540000000 1.0
C      1  0.5697870000000  0.4868680000000  0.5236520000000 1.0
C      1  0.5576250000000  0.4911570000000  0.4525820000000 1.0
C      1  0.4856840000000  0.5006750000000  0.4329100000000 1.0
C      1  0.4368310000000  0.4937170000000  0.4873910000000 1.0
C      1  0.4479220000000  0.4986770000000  0.5387180000000 1.0
C      1  0.5115260000000  0.4918650000000  0.5686040000000 1.0
C      1  0.4400650000000  0.5139510000000  0.5136980000000 1.0
C      1  0.4478250000000  0.4933800000000  0.4604230000000 1.0
C      1  0.5133390000000  0.5016420000000  0.4329800000000 1.0
C      1  0.5648220000000  0.4979890000000  0.4784900000000 1.0
C      1  0.5528520000000  0.4920090000000  0.5442790000000 1.0
C      1  0.4849810000000  0.4870560000000  0.5719270000000 1.0
C      1  0.4491520000000  0.5833960000000  0.4856350000000 1.0
C      1  0.4595250000000  0.5799400000000  0.5386450000000 1.0
C      1  0.5075650000000  0.5861970000000  0.5614990000000 1.0
C      1  0.5641310000000  0.5965820000000  0.5148700000000 1.0
C      1  0.5427460000000  0.5950360000000  0.4600000000000 1.0
C      1  0.4847500000000  0.5846750000000  0.4436300000000 1.0
C      1  0.5570210000000  0.5853990000000  0.4849420000000 1.0
C      1  0.5516940000000  0.5875940000000  0.5381160000000 1.0
C      1  0.4806990000000  0.5929730000000  0.5593570000000 1.0
C      1  0.4443570000000  0.5912550000000  0.5160440000000 1.0
C      1  0.4601760000000  0.5937570000000  0.4592360000000 1.0
C      1  0.5154570000000  0.5853060000000  0.4482820000000 1.0
C      1  0.4264320000000  0.5565920000000  0.5758240000000 1.0
C      1  0.5321370000000  0.5671650000000  0.6035570000000 1.0
C      1  0.5886080000000  0.5541570000000  0.5191940000000 1.0
C      1  0.5582060000000  0.5536170000000  0.4382720000000 1.0
C      1  0.4677240000000  0.5622240000000  0.3997780000000 1.0
C      1  0.3997790000000  0.5612290000000  0.4789730000000 1.0
C      1  0.5736030000000  0.5675530000000  0.5810970000000 1.0
C      1  0.4726710000000  0.5510980000000  0.5815260000000 1.0
C      1  0.3979780000000  0.5644380000000  0.5248960000000 1.0
C      1  0.4399340000000  0.5557860000000  0.4365420000000 1.0
C      1  0.5287400000000  0.5609180000000  0.4021500000000 1.0
C      1  0.6052400000000  0.5605670000000  0.4763550000000 1.0
C      1  0.5545840000000  0.4609010000000  0.5134000000000 1.0
C      1  0.5397510000000  0.4684760000000  0.4611120000000 1.0
C      1  0.4845160000000  0.4714580000000  0.4441190000000 1.0
C      1  0.4451410000000  0.4644920000000  0.4901850000000 1.0
C      1  0.4636740000000  0.4744480000000  0.5355020000000 1.0
C      1  0.5147870000000  0.4637850000000  0.5556450000000 1.0
C      1  0.4590640000000  0.4573150000000  0.5141450000000 1.0
C      1  0.4596620000000  0.4663840000000  0.4616480000000 1.0
C      1  0.5157590000000  0.4733310000000  0.4433480000000 1.0
C      1  0.5488880000000  0.4754750000000  0.4894100000000 1.0
C      1  0.5398390000000  0.4639480000000  0.5409370000000 1.0
C      1  0.4828090000000  0.4623590000000  0.5551860000000 1.0
C      1  0.4834130000000  0.5188180000000  0.3760240000000 1.0
C      1  0.3839500000000  0.5217100000000  0.4488160000000 1.0
C      1  0.3960190000000  0.5173100000000  0.5736950000000 1.0
C      1  0.5136910000000  0.5218180000000  0.6235280000000 1.0
C      1  0.6146290000000  0.5200770000000  0.5484370000000 1.0
C      1  0.5985130000000  0.5196580000000  0.4234160000000 1.0
C      1  0.5134580000000  0.5189330000000  0.3751820000000 1.0
C      1  0.6163180000000  0.5199020000000  0.4479020000000 1.0
C      1  0.6000110000000  0.5219900000000  0.5749160000000 1.0
C      1  0.4835710000000  0.5194490000000  0.6214610000000 1.0
C      1  0.3841670000000  0.5198180000000  0.5466940000000 1.0
C      1  0.4010900000000  0.5216990000000  0.4242730000000 1.0
C      1  0.5136180000000  0.5587460000000  0.5484920000000 1.0
C      1  0.5551660000000  0.5463450000000  0.5153800000000 1.0
C      1  0.5397380000000  0.5458380000000  0.4649700000000 1.0
C      1  0.4865570000000  0.5534910000000  0.4466740000000 1.0
C      1  0.4641100000000  0.5536250000000  0.4866010000000 1.0
C      1  0.4691350000000  0.5517120000000  0.5324730000000 1.0
C      1  0.4886690000000  0.5442660000000  0.5520930000000 1.0
C      1  0.4573120000000  0.5373480000000  0.5109000000000 1.0
C      1  0.4609160000000  0.5449310000000  0.4578900000000 1.0
C      1  0.5111590000000  0.5565050000000  0.4631140000000 1.0
C      1  0.5498140000000  0.5566220000000  0.4889990000000 1.0
C      1  0.5383110000000  0.5594470000000  0.5348640000000 1.0
C      1  0.4410040000000  0.5051460000000  0.4353730000000 1.0
C      1  0.4089710000000  0.5206820000000  0.5071000000000 1.0
C      1  0.4644360000000  0.4998170000000  0.5839000000000 1.0
C      1  0.5544760000000  0.5079850000000  0.5668430000000 1.0
C      1  0.5912860000000  0.5131490000000  0.4881810000000 1.0
C      1  0.5358580000000  0.5133280000000  0.4156630000000 1.0
C      1  0.5583370000000  0.4994970000000  0.4267870000000 1.0
C      1  0.5914740000000  0.5005910000000  0.5139910000000 1.0
C      1  0.5304360000000  0.5078250000000  0.5809550000000 1.0
C      1  0.4426460000000  0.5099410000000  0.5678380000000 1.0
C      1  0.4124520000000  0.5079060000000  0.4809430000000 1.0
C      1  0.4628730000000  0.5146490000000  0.4183790000000 1.0
C      1  0.5936250000000  0.4400180000000  0.4621520000000 1.0
C      1  0.5137710000000  0.4464350000000  0.3989220000000 1.0
C      1  0.4210480000000  0.4401830000000  0.4376370000000 1.0
C      1  0.4071010000000  0.4403520000000  0.5397400000000 1.0
C      1  0.4845830000000  0.4427020000000  0.6020690000000 1.0
C      1  0.5820940000000  0.4456680000000  0.5637880000000 1.0
C      1  0.4064550000000  0.4400640000000  0.4633710000000 1.0
C      1  0.4850490000000  0.4446970000000  0.4003430000000 1.0
C      1  0.5783650000000  0.4438230000000  0.4365670000000 1.0
C      1  0.5949810000000  0.4427070000000  0.5367400000000 1.0
C      1  0.5143520000000  0.4456480000000  0.6040600000000 1.0
C      1  0.4223980000000  0.4396980000000  0.5643070000000 1.0
C      1  0.5126260000000  0.5500110000000  0.6145300000000 1.0
C      1  0.6031050000000  0.5468330000000  0.5435670000000 1.0
C      1  0.5868600000000  0.5455700000000  0.4335460000000 1.0
C      1  0.4842510000000  0.5482110000000  0.3824660000000 1.0
C      1  0.3937920000000  0.5489850000000  0.4550250000000 1.0
C      1  0.4008730000000  0.5468860000000  0.5726060000000 1.0
C      1  0.4852110000000  0.5455080000000  0.6076010000000 1.0
C      1  0.3894160000000  0.5495540000000  0.5469350000000 1.0
C      1  0.4118520000000  0.5476900000000  0.4334140000000 1.0
C      1  0.5125260000000  0.5482360000000  0.3830360000000 1.0
C      1  0.6081300000000  0.5480030000000  0.4521790000000 1.0
C      1  0.5935030000000  0.5505130000000  0.5703350000000 1.0
C      1  0.5126500000000  0.4072560000000  0.4523980000000 1.0
C      1  0.4628300000000  0.4174210000000  0.4621110000000 1.0
C      1  0.4592230000000  0.4289010000000  0.5154380000000 1.0
C      1  0.4941180000000  0.4094070000000  0.5625110000000 1.0
C      1  0.5449960000000  0.4160920000000  0.5500230000000 1.0
C      1  0.5587600000000  0.4071130000000  0.4721180000000 1.0
C      1  0.4893350000000  0.4229470000000  0.4493650000000 1.0
C      1  0.5399050000000  0.4175070000000  0.4538060000000 1.0
C      1  0.5561710000000  0.4092790000000  0.5258550000000 1.0
C      1  0.5205140000000  0.4160470000000  0.5643260000000 1.0
C      1  0.4512150000000  0.4132060000000  0.5377650000000 1.0
C      1  0.4477810000000  0.4188620000000  0.4902860000000 1.0
C      1  0.4669350000000  0.4567780000000  0.3843610000000 1.0
C      1  0.3849900000000  0.4547720000000  0.4706090000000 1.0
C      1  0.4153280000000  0.4564880000000  0.5843880000000 1.0
C      1  0.5318180000000  0.4598350000000  0.6189550000000 1.0
C      1  0.6172150000000  0.4547700000000  0.5276850000000 1.0
C      1  0.5834000000000  0.4549780000000  0.4127460000000 1.0
C      1  0.5327360000000  0.4570580000000  0.3831870000000 1.0
C      1  0.6149640000000  0.4562770000000  0.4682690000000 1.0
C      1  0.5865130000000  0.4597240000000  0.5865130000000 1.0
C      1  0.4649640000000  0.4548790000000  0.6159730000000 1.0
C      1  0.3911520000000  0.4560660000000  0.5236280000000 1.0
C      1  0.4160510000000  0.4544380000000  0.4151850000000 1.0
C      1  0.3886140000000  0.5056480000000  0.5232510000000 1.0
C      1  0.4639230000000  0.5018420000000  0.6125270000000 1.0
C      1  0.5784700000000  0.5064250000000  0.5844850000000 1.0
C      1  0.6149800000000  0.5041130000000  0.4714110000000 1.0
C      1  0.5346110000000  0.5043630000000  0.3863060000000 1.0
C      1  0.4183550000000  0.5014080000000  0.4171390000000 1.0
C      1  0.6165650000000  0.5016190000000  0.5275830000000 1.0
C      1  0.5336660000000  0.5065010000000  0.6104460000000 1.0
C      1  0.4167580000000  0.5015940000000  0.5829440000000 1.0
C      1  0.3875890000000  0.5023410000000  0.4685770000000 1.0
C      1  0.4634740000000  0.5040310000000  0.3894120000000 1.0
C      1  0.5821920000000  0.5015040000000  0.4113540000000 1.0
C      1  0.4864230000000  0.3855870000000  0.5486060000000 1.0
C      1  0.5283340000000  0.3693650000000  0.5264460000000 1.0
C      1  0.5487430000000  0.3836080000000  0.4850460000000 1.0
C      1  0.5089710000000  0.3792740000000  0.4599780000000 1.0
C      1  0.4611690000000  0.3872550000000  0.4656210000000 1.0
C      1  0.4520930000000  0.3736930000000  0.5126690000000 1.0
C      1  0.5071990000000  0.3695940000000  0.5389460000000 1.0
C      1  0.4612790000000  0.3867170000000  0.5352620000000 1.0
C      1  0.4467580000000  0.3886650000000  0.4907840000000 1.0
C      1  0.4820880000000  0.3704470000000  0.4620500000000 1.0
C      1  0.5313520000000  0.3675940000000  0.4707510000000 1.0
C      1  0.5472850000000  0.3854130000000  0.5131300000000 1.0
C      1  0.4239550000000  0.4772230000000  0.4023270000000 1.0
C      1  0.3822780000000  0.4804390000000  0.5123320000000 1.0
C      1  0.4489610000000  0.4774940000000  0.6146660000000 1.0
C      1  0.5745730000000  0.4814830000000  0.5989200000000 1.0
C      1  0.6229990000000  0.4784050000000  0.4820900000000 1.0
C      1  0.5486420000000  0.4791550000000  0.3833380000000 1.0
C      1  0.5754890000000  0.4773110000000  0.3981590000000 1.0
C      1  0.6249590000000  0.4774050000000  0.5137450000000 1.0
C      1  0.5483760000000  0.4816510000000  0.6145080000000 1.0
C      1  0.4225860000000  0.4781090000000  0.5985610000000 1.0
C      1  0.3793140000000  0.4783880000000  0.4826000000000 1.0
C      1  0.4506000000000  0.4785650000000  0.3872580000000 1.0
C      1  0.4546850000000  0.5432480000000  0.4149540000000 1.0
C      1  0.5579910000000  0.5574750000000  0.6015100000000 1.0
C      1  0.5419520000000  0.5420580000000  0.4169990000000 1.0
C      1  0.4466740000000  0.5381040000000  0.5774610000000 1.0
C      1  0.5991690000000  0.5415930000000  0.4954290000000 1.0
C      1  0.3977130000000  0.5471740000000  0.5030350000000 1.0
C      1  0.4947810000000  0.5580860000000  0.4888690000000 1.0
END
