TITL C-96414-8717-1 0.529326741517961 125000 -1184.03133877529 0 0 166 (C1) n - 1
REM
REM in /rds/project/t2_vol4/rds-t2-cs072/BORA/CARBON/from-Arr/AIRSS/Generating-Clusters/GAP-ML-2020/Higher-Symm/SD-CG/HFTN-CG/C160-200
REM
REM
REM
REM
REM
REM ./C.cell (6b4489405718ea1b717e0baf1da4c2d9)
REM AIRSS Version 0.9.1 bugfix July 2018 build 013d7b7c2542+ Fri, 06 Jul 2018 19:26:36 +0100
REM compiler GCC version 9.3.0
REM options -cpp -mtune=generic -march=x86-64 -g -O0
REM seed -1068258991 -586519278 1061050202 -307552650 47546242 928860947 -1457516121 -439579776 -468646350 -1735334381 -1198527286 -891835630 -584838452 -58500480 1036099337 1206718365 -1640064548 -369115053 1916657191 183540379 253855253 -1179064292 -1379331377 -1603426176 522204142 -91988460 697599287 4239897 -551656625 1508657318 -1368562689 -162780413 438089462
REM
CELL 1.54180   50.00000   50.00000   50.00000   90.00000   90.00000   90.00000
LATT -1
SFAC C  
C      1  0.4211210000000  0.4589890000000  0.5552730000000 1.0
C      1  0.4554420000000  0.5551870000000  0.4195170000000 1.0
C      1  0.5567450000000  0.4183380000000  0.4621190000000 1.0
C      1  0.5789860000000  0.4604550000000  0.4450010000000 1.0
C      1  0.5820700000000  0.5394300000000  0.5564880000000 1.0
C      1  0.4151800000000  0.5405050000000  0.4433060000000 1.0
C      1  0.5409210000000  0.5554150000000  0.5804060000000 1.0
C      1  0.5373160000000  0.4429490000000  0.4227030000000 1.0
C      1  0.4623990000000  0.4418960000000  0.5775700000000 1.0
C      1  0.4463210000000  0.4195830000000  0.5362520000000 1.0
C      1  0.4411460000000  0.5803390000000  0.4586320000000 1.0
C      1  0.5545920000000  0.5765840000000  0.5402990000000 1.0
C      1  0.4380230000000  0.5104370000000  0.4131160000000 1.0
C      1  0.5118640000000  0.4076880000000  0.4385250000000 1.0
C      1  0.4153700000000  0.4392490000000  0.5086490000000 1.0
C      1  0.5594800000000  0.5111860000000  0.5876010000000 1.0
C      1  0.5610010000000  0.4885760000000  0.4123040000000 1.0
C      1  0.4389730000000  0.4867140000000  0.5887550000000 1.0
C      1  0.4896770000000  0.4091760000000  0.5592660000000 1.0
C      1  0.4858240000000  0.5865750000000  0.4381580000000 1.0
C      1  0.5119570000000  0.5897470000000  0.5623520000000 1.0
C      1  0.5882170000000  0.4367930000000  0.4904020000000 1.0
C      1  0.5876820000000  0.5602690000000  0.5115050000000 1.0
C      1  0.4112410000000  0.5631930000000  0.4904750000000 1.0
C      1  0.5217070000000  0.5510540000000  0.4731690000000 1.0
C      1  0.5401770000000  0.4625870000000  0.5107200000000 1.0
C      1  0.4578180000000  0.5152020000000  0.5449490000000 1.0
C      1  0.4899920000000  0.5471280000000  0.5347400000000 1.0
C      1  0.4834410000000  0.4491400000000  0.4650710000000 1.0
C      1  0.5189280000000  0.4600000000000  0.5287590000000 1.0
C      1  0.4596760000000  0.4764850000000  0.4926700000000 1.0
C      1  0.4645310000000  0.5346210000000  0.5233360000000 1.0
C      1  0.5396680000000  0.5310930000000  0.4809480000000 1.0
C      1  0.5423900000000  0.5170080000000  0.4576760000000 1.0
C      1  0.5243940000000  0.4799070000000  0.5477930000000 1.0
C      1  0.4670980000000  0.4733850000000  0.4643460000000 1.0
C      1  0.4747980000000  0.5579510000000  0.4806990000000 1.0
C      1  0.5376660000000  0.4789450000000  0.4754090000000 1.0
C      1  0.4660160000000  0.4762870000000  0.5394570000000 1.0
C      1  0.5356330000000  0.5630310000000  0.5214520000000 1.0
C      1  0.5289760000000  0.4545030000000  0.4851280000000 1.0
C      1  0.4747440000000  0.4678390000000  0.5142670000000 1.0
C      1  0.4420060000000  0.4929120000000  0.5327280000000 1.0
C      1  0.4639860000000  0.5328950000000  0.4731430000000 1.0
C      1  0.5364210000000  0.5332670000000  0.5274420000000 1.0
C      1  0.5270890000000  0.4950200000000  0.4563280000000 1.0
C      1  0.5131700000000  0.5293760000000  0.5456630000000 1.0
C      1  0.4737920000000  0.5210690000000  0.4498670000000 1.0
C      1  0.4821040000000  0.4948820000000  0.4512610000000 1.0
C      1  0.5024000000000  0.4412850000000  0.4859970000000 1.0
C      1  0.4404470000000  0.4960970000000  0.5026960000000 1.0
C      1  0.5070790000000  0.5018080000000  0.5464320000000 1.0
C      1  0.5065570000000  0.4897750000000  0.4388130000000 1.0
C      1  0.4803790000000  0.4964980000000  0.5554150000000 1.0
C      1  0.4960150000000  0.4508330000000  0.5148180000000 1.0
C      1  0.5005800000000  0.5555390000000  0.4901280000000 1.0
C      1  0.5064040000000  0.5659280000000  0.5165620000000 1.0
C      1  0.5537130000000  0.4892320000000  0.4994400000000 1.0
C      1  0.5426480000000  0.5174010000000  0.5051700000000 1.0
C      1  0.4561700000000  0.5209160000000  0.4972970000000 1.0
C      1  0.4665800000000  0.5301250000000  0.5989180000000 1.0
C      1  0.5280330000000  0.6002200000000  0.4649710000000 1.0
C      1  0.5975020000000  0.4640940000000  0.5312300000000 1.0
C      1  0.5334550000000  0.5292080000000  0.4036800000000 1.0
C      1  0.5310530000000  0.4703620000000  0.5970270000000 1.0
C      1  0.4679530000000  0.4694160000000  0.4025680000000 1.0
C      1  0.4690740000000  0.6006110000000  0.5349250000000 1.0
C      1  0.4711150000000  0.3961060000000  0.4652680000000 1.0
C      1  0.5277300000000  0.3992920000000  0.5309260000000 1.0
C      1  0.4020080000000  0.4640830000000  0.4682470000000 1.0
C      1  0.4006600000000  0.5331120000000  0.5291820000000 1.0
C      1  0.5979900000000  0.5302020000000  0.4733790000000 1.0
C      1  0.4264100000000  0.4969680000000  0.4349610000000 1.0
C      1  0.4950480000000  0.4218690000000  0.4201050000000 1.0
C      1  0.4311410000000  0.4213180000000  0.4923140000000 1.0
C      1  0.5707370000000  0.4972130000000  0.5658920000000 1.0
C      1  0.5799160000000  0.5046750000000  0.4270920000000 1.0
C      1  0.4224600000000  0.5029950000000  0.5732550000000 1.0
C      1  0.5061890000000  0.4244510000000  0.5767140000000 1.0
C      1  0.4974870000000  0.5617770000000  0.4311580000000 1.0
C      1  0.4979730000000  0.5689530000000  0.5748660000000 1.0
C      1  0.5737470000000  0.4175220000000  0.5065240000000 1.0
C      1  0.5731050000000  0.5761720000000  0.4927220000000 1.0
C      1  0.4342710000000  0.5721830000000  0.5039240000000 1.0
C      1  0.5781970000000  0.4379160000000  0.4632490000000 1.0
C      1  0.4398080000000  0.4598160000000  0.5777390000000 1.0
C      1  0.4571800000000  0.5793200000000  0.4355630000000 1.0
C      1  0.4248610000000  0.4387790000000  0.5354870000000 1.0
C      1  0.4183540000000  0.5631160000000  0.4615070000000 1.0
C      1  0.5793780000000  0.5615310000000  0.5389080000000 1.0
C      1  0.5590980000000  0.4618460000000  0.4238830000000 1.0
C      1  0.5633130000000  0.5387280000000  0.5792820000000 1.0
C      1  0.4328260000000  0.5387990000000  0.4200930000000 1.0
C      1  0.5394650000000  0.5798550000000  0.5642750000000 1.0
C      1  0.5376170000000  0.4206120000000  0.4409090000000 1.0
C      1  0.4630610000000  0.4204040000000  0.5587660000000 1.0
C      1  0.5387710000000  0.5013060000000  0.4013690000000 1.0
C      1  0.5023300000000  0.3953520000000  0.5399270000000 1.0
C      1  0.3947370000000  0.5495030000000  0.5076730000000 1.0
C      1  0.4605510000000  0.5014080000000  0.5999360000000 1.0
C      1  0.4572610000000  0.4951960000000  0.4011940000000 1.0
C      1  0.5411090000000  0.4955810000000  0.6000460000000 1.0
C      1  0.4992900000000  0.3966610000000  0.4604450000000 1.0
C      1  0.4983480000000  0.6028430000000  0.5402120000000 1.0
C      1  0.5027340000000  0.6015920000000  0.4536750000000 1.0
C      1  0.5994380000000  0.5394630000000  0.4989230000000 1.0
C      1  0.5969920000000  0.4595970000000  0.5031780000000 1.0
C      1  0.4033120000000  0.4613400000000  0.4966830000000 1.0
C      1  0.5535940000000  0.4066860000000  0.4893960000000 1.0
C      1  0.4154580000000  0.4884740000000  0.5483900000000 1.0
C      1  0.4819920000000  0.5390770000000  0.4227550000000 1.0
C      1  0.4519550000000  0.4099650000000  0.5085740000000 1.0
C      1  0.4563310000000  0.5817960000000  0.4876460000000 1.0
C      1  0.5487550000000  0.5840690000000  0.5050490000000 1.0
C      1  0.5898210000000  0.4879360000000  0.4483700000000 1.0
C      1  0.5885510000000  0.5115830000000  0.5491070000000 1.0
C      1  0.4087120000000  0.5123910000000  0.4504090000000 1.0
C      1  0.5131150000000  0.5436980000000  0.5798090000000 1.0
C      1  0.5103160000000  0.4441500000000  0.4102180000000 1.0
C      1  0.4898610000000  0.4456100000000  0.5873930000000 1.0
C      1  0.4950860000000  0.5252680000000  0.5949930000000 1.0
C      1  0.5284880000000  0.6009150000000  0.4938230000000 1.0
C      1  0.5966700000000  0.4936700000000  0.5279520000000 1.0
C      1  0.5037590000000  0.5239530000000  0.4057590000000 1.0
C      1  0.5021320000000  0.4697380000000  0.5959170000000 1.0
C      1  0.4968140000000  0.4677560000000  0.4010920000000 1.0
C      1  0.4728650000000  0.5998570000000  0.5059870000000 1.0
C      1  0.4738540000000  0.3992150000000  0.4941710000000 1.0
C      1  0.5292200000000  0.3996090000000  0.5022470000000 1.0
C      1  0.3995660000000  0.4940580000000  0.4710380000000 1.0
C      1  0.4003600000000  0.5040010000000  0.5275350000000 1.0
C      1  0.5966050000000  0.5013810000000  0.4725990000000 1.0
C      1  0.4737860000000  0.5608790000000  0.5620810000000 1.0
C      1  0.5739430000000  0.5724330000000  0.4642530000000 1.0
C      1  0.5526860000000  0.4806650000000  0.5528520000000 1.0
C      1  0.5207500000000  0.5554430000000  0.4444200000000 1.0
C      1  0.5344160000000  0.4259520000000  0.5724670000000 1.0
C      1  0.4666440000000  0.4233820000000  0.4247280000000 1.0
C      1  0.4435390000000  0.5580810000000  0.5277790000000 1.0
C      1  0.4320490000000  0.4234410000000  0.4638930000000 1.0
C      1  0.5700760000000  0.4219930000000  0.5349730000000 1.0
C      1  0.4411280000000  0.4752840000000  0.4454280000000 1.0
C      1  0.4366880000000  0.5274380000000  0.5637540000000 1.0
C      1  0.5770830000000  0.5336860000000  0.4291860000000 1.0
C      1  0.4174660000000  0.4450680000000  0.4520750000000 1.0
C      1  0.4533670000000  0.4459340000000  0.4141110000000 1.0
C      1  0.4542470000000  0.4118890000000  0.4493040000000 1.0
C      1  0.5823840000000  0.4454280000000  0.5470000000000 1.0
C      1  0.5859160000000  0.5475080000000  0.4532510000000 1.0
C      1  0.4220190000000  0.5464370000000  0.5465280000000 1.0
C      1  0.5466820000000  0.4488040000000  0.5836830000000 1.0
C      1  0.5539770000000  0.5460920000000  0.4161940000000 1.0
C      1  0.4523830000000  0.5475590000000  0.5792760000000 1.0
C      1  0.5460690000000  0.4133370000000  0.5482490000000 1.0
C      1  0.5521640000000  0.5852870000000  0.4508960000000 1.0
C      1  0.4547930000000  0.5789120000000  0.5480970000000 1.0
C      1  0.5098620000000  0.4940540000000  0.4083180000000 1.0
C      1  0.4878470000000  0.4950920000000  0.5894260000000 1.0
C      1  0.5870620000000  0.4884320000000  0.4982580000000 1.0
C      1  0.5032110000000  0.5974850000000  0.5108870000000 1.0
C      1  0.4069710000000  0.4913040000000  0.5005630000000 1.0
C      1  0.5042270000000  0.4073140000000  0.4884690000000 1.0
C      1  0.5661630000000  0.4592070000000  0.5658420000000 1.0
C      1  0.5429450000000  0.5674350000000  0.4310480000000 1.0
C      1  0.4310080000000  0.4545360000000  0.4287340000000 1.0
C      1  0.4321090000000  0.5691690000000  0.5654120000000 1.0
END
