TITL C-96506-2273-8 58.5115655661845 125000 -137.453305996651 0 0 21 (Cs) n - 1
REM
REM in /rds/project/t2_vol4/rds-t2-cs072/BORA/CARBON/from-Arr/AIRSS/Generating-Clusters/GAP-ML-2020/Higher-Symm/SD-CG/HFTN-CG
REM
REM
REM
REM
REM
REM ./C.cell (b20cbc046b6831c77cfcea5457e17084)
REM AIRSS Version 0.9.1 bugfix July 2018 build 013d7b7c2542+ Fri, 06 Jul 2018 19:26:36 +0100
REM compiler GCC version 9.3.0
REM options -cpp -mtune=generic -march=x86-64 -g -O0
REM seed 1243215440 -363844319 -190384590 461147924 -1860455069 292734283 -1739561872 -859085154 1901844457 995146024 -170474324 363202800 -841283321 -1200818321 -1048645420 510128728 -1092994333 1730083739 -1927374362 1903891640 588257465 1341429167 1050693820 1097653797 -1488335720 710079079 1288771092 -1275953584 -2067007909 -28555537 340078887 -276239249 -1554924963
REM
CELL 1.54180   50.00000   50.00000   50.00000   90.00000   90.00000   90.00000
LATT -1
SFAC C  
C      1  0.4526770000000  0.5011940000000  0.5051260000000 1.0
C      1  0.4706510000000  0.4643610000000  0.5044470000000 1.0
C      1  0.4949900000000  0.4511930000000  0.4998680000000 1.0
C      1  0.5226140000000  0.4569280000000  0.4998560000000 1.0
C      1  0.5398830000000  0.4790880000000  0.5016790000000 1.0
C      1  0.5433320000000  0.5069640000000  0.5037620000000 1.0
C      1  0.5309700000000  0.5322950000000  0.5042290000000 1.0
C      1  0.5068490000000  0.5467800000000  0.5029270000000 1.0
C      1  0.4787320000000  0.5468500000000  0.5015130000000 1.0
C      1  0.4572120000000  0.5286070000000  0.5012950000000 1.0
C      1  0.4809980000000  0.5443050000000  0.4715470000000 1.0
C      1  0.4615860000000  0.5241760000000  0.4717730000000 1.0
C      1  0.4572340000000  0.4967010000000  0.4765490000000 1.0
C      1  0.4695000000000  0.4715650000000  0.4760860000000 1.0
C      1  0.4937610000000  0.4582430000000  0.4705570000000 1.0
C      1  0.5215670000000  0.4611710000000  0.4700140000000 1.0
C      1  0.5412410000000  0.4813300000000  0.4720610000000 1.0
C      1  0.5458630000000  0.5088530000000  0.4741220000000 1.0
C      1  0.5335860000000  0.5340100000000  0.4745860000000 1.0
C      1  0.5090220000000  0.5473530000000  0.4732780000000 1.0
C      1  0.4597160000000  0.4814940000000  0.5228440000000 1.0
END
