TITL C-96392-7645-4 72.0148015137543 125000 -1239.08092788926 0 0 175 (C7) n - 1
REM
REM in /rds/project/t2_vol4/rds-t2-cs072/BORA/CARBON/from-Arr/AIRSS/Generating-Clusters/GAP-ML-2020/Higher-Symm/SD-CG/HFTN-CG/C160-200
REM
REM
REM
REM
REM
REM ./C.cell (6b4489405718ea1b717e0baf1da4c2d9)
REM AIRSS Version 0.9.1 bugfix July 2018 build 013d7b7c2542+ Fri, 06 Jul 2018 19:26:36 +0100
REM compiler GCC version 9.3.0
REM options -cpp -mtune=generic -march=x86-64 -g -O0
REM seed -849960059 -1237193891 -298448143 537120796 1901346522 -979595923 -1318998967 350372230 -1672653869 35101703 224915004 1648403836 -1312259773 -1156661642 -855911653 824535096 -1779280452 240587180 622457652 -218861966 1125426568 1399234923 1843963702 -184188424 574520556 549780624 1107460530 -1769686971 -1952807328 -25330190 -1865455385 -1655195398 -243478841
REM
CELL 1.54180   50.00000   50.00000   50.00000   90.00000   90.00000   90.00000
LATT -1
SFAC C  
C      1  0.4217830000000  0.5650510000000  0.5205150000000 1.0
C      1  0.5020940000000  0.6017040000000  0.5205480000000 1.0
C      1  0.5808230000000  0.5617680000000  0.5205590000000 1.0
C      1  0.5986870000000  0.4753150000000  0.5205400000000 1.0
C      1  0.5422330000000  0.4074460000000  0.5205040000000 1.0
C      1  0.4539720000000  0.4092680000000  0.5204790000000 1.0
C      1  0.4003670000000  0.4794080000000  0.5204840000000 1.0
C      1  0.4222090000000  0.4620740000000  0.4792640000000 1.0
C      1  0.4218440000000  0.5371800000000  0.4792850000000 1.0
C      1  0.4803360000000  0.5842930000000  0.4793160000000 1.0
C      1  0.5536400000000  0.5679360000000  0.4793320000000 1.0
C      1  0.5865570000000  0.5004270000000  0.4793220000000 1.0
C      1  0.5542990000000  0.4326000000000  0.4792930000000 1.0
C      1  0.4811570000000  0.4155320000000  0.4792670000000 1.0
C      1  0.5701640000000  0.5029100000000  0.4547730000000 1.0
C      1  0.5460160000000  0.4469720000000  0.4547500000000 1.0
C      1  0.4872270000000  0.4309760000000  0.4547290000000 1.0
C      1  0.4380660000000  0.4669660000000  0.4547250000000 1.0
C      1  0.4355520000000  0.5278410000000  0.4547420000000 1.0
C      1  0.4815790000000  0.5677610000000  0.4547670000000 1.0
C      1  0.5414870000000  0.5566660000000  0.4547810000000 1.0
C      1  0.5422420000000  0.4626420000000  0.5925490000000 1.0
C      1  0.4971400000000  0.4436510000000  0.5925300000000 1.0
C      1  0.4541720000000  0.4670720000000  0.5925250000000 1.0
C      1  0.4456930000000  0.5152680000000  0.5925360000000 1.0
C      1  0.4780880000000  0.5519470000000  0.5925560000000 1.0
C      1  0.5269630000000  0.5494890000000  0.5925690000000 1.0
C      1  0.5555140000000  0.5097440000000  0.5925660000000 1.0
C      1  0.5238400000000  0.5991860000000  0.5377610000000 1.0
C      1  0.5924150000000  0.5431900000000  0.5377650000000 1.0
C      1  0.5913910000000  0.4546630000000  0.5377390000000 1.0
C      1  0.5215400000000  0.4002680000000  0.5377030000000 1.0
C      1  0.4354610000000  0.4209650000000  0.5376840000000 1.0
C      1  0.3979720000000  0.5011690000000  0.5376970000000 1.0
C      1  0.4373050000000  0.5804850000000  0.5377310000000 1.0
C      1  0.5167970000000  0.5292710000000  0.5410590000000 1.0
C      1  0.5333620000000  0.5051050000000  0.5410570000000 1.0
C      1  0.5247970000000  0.4770850000000  0.5410460000000 1.0
C      1  0.4975500000000  0.4663120000000  0.5410350000000 1.0
C      1  0.4721390000000  0.4808980000000  0.5410320000000 1.0
C      1  0.4676990000000  0.5098590000000  0.5410390000000 1.0
C      1  0.4875740000000  0.5313870000000  0.5410510000000 1.0
C      1  0.4465870000000  0.4997480000000  0.4051360000000 1.0
C      1  0.4664890000000  0.5416350000000  0.4051540000000 1.0
C      1  0.5116460000000  0.5521900000000  0.4051700000000 1.0
C      1  0.5480540000000  0.5234660000000  0.4051720000000 1.0
C      1  0.5482970000000  0.4770920000000  0.4051590000000 1.0
C      1  0.5121910000000  0.4479890000000  0.4051400000000 1.0
C      1  0.4669260000000  0.4580710000000  0.4051300000000 1.0
C      1  0.5100280000000  0.4196670000000  0.4130570000000 1.0
C      1  0.4434350000000  0.4421020000000  0.4130440000000 1.0
C      1  0.4194550000000  0.5081540000000  0.4130570000000 1.0
C      1  0.4561460000000  0.5680850000000  0.4130840000000 1.0
C      1  0.5258790000000  0.5767660000000  0.4131070000000 1.0
C      1  0.5761430000000  0.5276590000000  0.4131070000000 1.0
C      1  0.5690890000000  0.4577430000000  0.4130850000000 1.0
C      1  0.5160350000000  0.5882500000000  0.5631170000000 1.0
C      1  0.5790020000000  0.5424660000000  0.5631220000000 1.0
C      1  0.5824650000000  0.4646900000000  0.5631000000000 1.0
C      1  0.5238170000000  0.4134900000000  0.5630690000000 1.0
C      1  0.4472200000000  0.4274200000000  0.5630510000000 1.0
C      1  0.4103540000000  0.4959910000000  0.5630600000000 1.0
C      1  0.4409800000000  0.5675670000000  0.5630890000000 1.0
C      1  0.4366070000000  0.5587860000000  0.4959920000000 1.0
C      1  0.5064360000000  0.5862160000000  0.4960200000000 1.0
C      1  0.5714190000000  0.5487250000000  0.4960280000000 1.0
C      1  0.5826230000000  0.4745430000000  0.4960100000000 1.0
C      1  0.5316110000000  0.4195320000000  0.4959800000000 1.0
C      1  0.4567960000000  0.4251160000000  0.4959600000000 1.0
C      1  0.4145160000000  0.4870900000000  0.4959650000000 1.0
C      1  0.4774740000000  0.5268160000000  0.4299990000000 1.0
C      1  0.5069130000000  0.5343540000000  0.4300100000000 1.0
C      1  0.5311610000000  0.5160380000000  0.4300120000000 1.0
C      1  0.5319600000000  0.4856600000000  0.4300030000000 1.0
C      1  0.5087070000000  0.4660960000000  0.4299910000000 1.0
C      1  0.4789130000000  0.4720770000000  0.4299840000000 1.0
C      1  0.4650130000000  0.4991000000000  0.4299880000000 1.0
C      1  0.5456980000000  0.5922930000000  0.5218450000000 1.0
C      1  0.6006530000000  0.5218080000000  0.5218410000000 1.0
C      1  0.5798090000000  0.4348960000000  0.5218100000000 1.0
C      1  0.4988620000000  0.3970040000000  0.5217760000000 1.0
C      1  0.4187680000000  0.4366650000000  0.5217640000000 1.0
C      1  0.3998380000000  0.5240140000000  0.5217840000000 1.0
C      1  0.4563270000000  0.5932750000000  0.5218200000000 1.0
C      1  0.5525350000000  0.4832440000000  0.5036910000000 1.0
C      1  0.5196560000000  0.4484780000000  0.5036720000000 1.0
C      1  0.4719740000000  0.4525080000000  0.5036590000000 1.0
C      1  0.4453960000000  0.4923000000000  0.5036630000000 1.0
C      1  0.4599350000000  0.5378890000000  0.5036800000000 1.0
C      1  0.5046430000000  0.5549460000000  0.5036980000000 1.0
C      1  0.5458540000000  0.5306270000000  0.5037030000000 1.0
C      1  0.5483160000000  0.4790680000000  0.4546140000000 1.0
C      1  0.5137540000000  0.4491890000000  0.4545950000000 1.0
C      1  0.4688450000000  0.4575820000000  0.4545850000000 1.0
C      1  0.4474060000000  0.4979260000000  0.4545900000000 1.0
C      1  0.4655810000000  0.5398420000000  0.4546080000000 1.0
C      1  0.5096850000000  0.5517660000000  0.4546240000000 1.0
C      1  0.5465050000000  0.5247190000000  0.4546270000000 1.0
C      1  0.4979270000000  0.4660450000000  0.5732340000000 1.0
C      1  0.4721690000000  0.4804260000000  0.5732310000000 1.0
C      1  0.4673530000000  0.5095310000000  0.5732380000000 1.0
C      1  0.4871050000000  0.5314430000000  0.5732500000000 1.0
C      1  0.5165510000000  0.5296620000000  0.5732580000000 1.0
C      1  0.5335190000000  0.5055290000000  0.5732560000000 1.0
C      1  0.5252300000000  0.4772170000000  0.5732450000000 1.0
C      1  0.5345960000000  0.5063850000000  0.6136180000000 1.0
C      1  0.5265750000000  0.4768950000000  0.6136070000000 1.0
C      1  0.4985180000000  0.4647790000000  0.6135960000000 1.0
C      1  0.4715520000000  0.4791600000000  0.6135920000000 1.0
C      1  0.4659830000000  0.5092100000000  0.6135990000000 1.0
C      1  0.4860050000000  0.5323000000000  0.6136120000000 1.0
C      1  0.5165400000000  0.5310420000000  0.6136200000000 1.0
C      1  0.5378610000000  0.5863100000000  0.4945780000000 1.0
C      1  0.5910850000000  0.5242140000000  0.4945750000000 1.0
C      1  0.5757220000000  0.4438860000000  0.4945480000000 1.0
C      1  0.5033390000000  0.4058140000000  0.4945160000000 1.0
C      1  0.4284430000000  0.4386670000000  0.4945040000000 1.0
C      1  0.4074320000000  0.5177060000000  0.4945210000000 1.0
C      1  0.4561280000000  0.5834140000000  0.4945540000000 1.0
C      1  0.5495390000000  0.5688130000000  0.4289350000000 1.0
C      1  0.5846780000000  0.5041970000000  0.4289270000000 1.0
C      1  0.5560690000000  0.4364360000000  0.4288990000000 1.0
C      1  0.4852540000000  0.4165560000000  0.4288730000000 1.0
C      1  0.4255590000000  0.4595260000000  0.4288680000000 1.0
C      1  0.4219340000000  0.5329890000000  0.4288880000000 1.0
C      1  0.4771110000000  0.5816260000000  0.4289180000000 1.0
C      1  0.5363360000000  0.5719630000000  0.5771590000000 1.0
C      1  0.5789270000000  0.5164340000000  0.5771550000000 1.0
C      1  0.5620670000000  0.4485130000000  0.5771300000000 1.0
C      1  0.4984530000000  0.4193470000000  0.5771040000000 1.0
C      1  0.4359870000000  0.4508970000000  0.5770950000000 1.0
C      1  0.4217070000000  0.5194060000000  0.5771100000000 1.0
C      1  0.4663670000000  0.5732850000000  0.5771390000000 1.0
C      1  0.5074460000000  0.5322460000000  0.3831750000000 1.0
C      1  0.5298400000000  0.5143230000000  0.3831760000000 1.0
C      1  0.5297890000000  0.4856390000000  0.3831680000000 1.0
C      1  0.5073320000000  0.4677950000000  0.3831560000000 1.0
C      1  0.4793780000000  0.4742270000000  0.3831500000000 1.0
C      1  0.4669790000000  0.5000920000000  0.3831540000000 1.0
C      1  0.4794700000000  0.5259130000000  0.3831650000000 1.0
C      1  0.4792630000000  0.5999020000000  0.5363450000000 1.0
C      1  0.5651810000000  0.5784880000000  0.5363630000000 1.0
C      1  0.6020090000000  0.4979640000000  0.5363510000000 1.0
C      1  0.5620130000000  0.4189650000000  0.5363170000000 1.0
C      1  0.4753130000000  0.4009790000000  0.5362860000000 1.0
C      1  0.4071950000000  0.4575500000000  0.5362830000000 1.0
C      1  0.4089530000000  0.5460790000000  0.5363090000000 1.0
C      1  0.4736130000000  0.4140510000000  0.5623120000000 1.0
C      1  0.4163580000000  0.4670220000000  0.5623100000000 1.0
C      1  0.4220740000000  0.5448120000000  0.5623340000000 1.0
C      1  0.4864560000000  0.5888440000000  0.5623660000000 1.0
C      1  0.5610240000000  0.5659620000000  0.5623800000000 1.0
C      1  0.5896260000000  0.4933950000000  0.5623680000000 1.0
C      1  0.5507240000000  0.4257890000000  0.5623370000000 1.0
C      1  0.5695570000000  0.5533120000000  0.4181500000000 1.0
C      1  0.5850400000000  0.4788850000000  0.4181330000000 1.0
C      1  0.5365040000000  0.4203750000000  0.4181030000000 1.0
C      1  0.4604970000000  0.4218420000000  0.4180810000000 1.0
C      1  0.4142550000000  0.4821820000000  0.4180850000000 1.0
C      1  0.4325980000000  0.5559560000000  0.4181120000000 1.0
C      1  0.5017140000000  0.5876120000000  0.4181410000000 1.0
C      1  0.4497020000000  0.5159120000000  0.5199250000000 1.0
C      1  0.4810820000000  0.5492390000000  0.5199440000000 1.0
C      1  0.5267040000000  0.5454840000000  0.5199560000000 1.0
C      1  0.5522130000000  0.5074740000000  0.5199520000000 1.0
C      1  0.5384000000000  0.4638320000000  0.5199360000000 1.0
C      1  0.4956670000000  0.4474210000000  0.5199190000000 1.0
C      1  0.4561930000000  0.4705980000000  0.5199140000000 1.0
C      1  0.4803160000000  0.4706200000000  0.4793970000000 1.0
C      1  0.4647550000000  0.4970780000000  0.4794010000000 1.0
C      1  0.4757390000000  0.5257410000000  0.4794120000000 1.0
C      1  0.5049960000000  0.5350250000000  0.4794230000000 1.0
C      1  0.5304960000000  0.5179380000000  0.4794250000000 1.0
C      1  0.5330360000000  0.4873490000000  0.4794170000000 1.0
C      1  0.5107040000000  0.4662900000000  0.4794050000000 1.0
END
