TITL C-96491-2380-8 0.272802426112064 125000 -66.9325023034004 0 0 11 (C1) n - 1
REM
REM in /rds/project/t2_vol4/rds-t2-cs072/BORA/CARBON/from-Arr/AIRSS/Generating-Clusters/GAP-ML-2020/Higher-Symm/SD-CG/HFTN-CG
REM
REM
REM
REM
REM
REM ./C.cell (b20cbc046b6831c77cfcea5457e17084)
REM AIRSS Version 0.9.1 bugfix July 2018 build 013d7b7c2542+ Fri, 06 Jul 2018 19:26:36 +0100
REM compiler GCC version 9.3.0
REM options -cpp -mtune=generic -march=x86-64 -g -O0
REM seed -97550202 -1322242987 1884771551 1482247596 2048761607 883560009 861039711 442618000 -343821981 1922195693 -529650580 -1457863286 1079740937 -413198805 -1337120821 1503672031 1557899842 -1338072384 -310558460 -1427991464 1937172594 544922715 1329693448 1611562466 1570575359 -1227885626 -503046659 -1684578462 -1156412573 -1990993005 -455015831 885162705 -714507617
REM
CELL 1.54180   50.00000   50.00000   50.00000   90.00000   90.00000   90.00000
LATT -1
SFAC C  
C      1  0.5409070000000  0.4898960000000  0.4894890000000 1.0
C      1  0.4976400000000  0.4868010000000  0.4713270000000 1.0
C      1  0.4822990000000  0.5312950000000  0.5196230000000 1.0
C      1  0.5197960000000  0.5022600000000  0.4778760000000 1.0
C      1  0.5006910000000  0.5419720000000  0.5028530000000 1.0
C      1  0.4799280000000  0.4705890000000  0.4791950000000 1.0
C      1  0.5598140000000  0.4786980000000  0.5010060000000 1.0
C      1  0.5125460000000  0.5276290000000  0.4861510000000 1.0
C      1  0.4737730000000  0.4732340000000  0.5056800000000 1.0
C      1  0.4643240000000  0.5243030000000  0.5362390000000 1.0
C      1  0.4682830000000  0.4733230000000  0.5305600000000 1.0
END
