TITL C-96511-2377-5 -52.9410927955289 125000 -629.749375728721 0 0 91 (C1) n - 1
REM
REM in /rds/project/t2_vol4/rds-t2-cs072/BORA/CARBON/from-Arr/AIRSS/Generating-Clusters/GAP-ML-2020/Higher-Symm/SD-CG/HFTN-CG
REM
REM
REM
REM
REM
REM ./C.cell (b20cbc046b6831c77cfcea5457e17084)
REM AIRSS Version 0.9.1 bugfix July 2018 build 013d7b7c2542+ Fri, 06 Jul 2018 19:26:36 +0100
REM compiler GCC version 9.3.0
REM options -cpp -mtune=generic -march=x86-64 -g -O0
REM seed 972586409 -2029676221 1837706145 801377122 -163822561 34106606 -1646640817 -446719683 2090978973 -2008564095 1978928377 -1586888643 1371727413 -500408944 1395194663 -1720113224 -974619575 604100128 749194900 999315174 760970809 -2112920572 -508470909 -1541446321 690574338 -1672765855 197689728 1163071874 460354834 16695471 1661735792 1863369750 1593621458
REM
CELL 1.54180   50.00000   50.00000   50.00000   90.00000   90.00000   90.00000
LATT -1
SFAC C  
C      1  0.5539660000000  0.4403140000000  0.5072940000000 1.0
C      1  0.5222050000000  0.5768140000000  0.5225000000000 1.0
C      1  0.4212040000000  0.4827870000000  0.5177410000000 1.0
C      1  0.4453760000000  0.4409030000000  0.4786080000000 1.0
C      1  0.4754940000000  0.5781920000000  0.4912700000000 1.0
C      1  0.5760750000000  0.4828090000000  0.4765870000000 1.0
C      1  0.5060210000000  0.4577790000000  0.5588950000000 1.0
C      1  0.5393880000000  0.5417120000000  0.5560430000000 1.0
C      1  0.4472020000000  0.5178710000000  0.5532660000000 1.0
C      1  0.4880830000000  0.4442190000000  0.4445940000000 1.0
C      1  0.4662700000000  0.5290570000000  0.4400860000000 1.0
C      1  0.5536730000000  0.5144450000000  0.4430300000000 1.0
C      1  0.4192320000000  0.5127290000000  0.4836090000000 1.0
C      1  0.5334900000000  0.4212680000000  0.4713530000000 1.0
C      1  0.5475740000000  0.5678660000000  0.4839510000000 1.0
C      1  0.5738120000000  0.5090540000000  0.5155250000000 1.0
C      1  0.4714720000000  0.4286060000000  0.5163520000000 1.0
C      1  0.4476000000000  0.5699550000000  0.5267030000000 1.0
C      1  0.4978380000000  0.5086330000000  0.4078670000000 1.0
C      1  0.4938790000000  0.4812440000000  0.4118380000000 1.0
C      1  0.5202180000000  0.4923210000000  0.4119990000000 1.0
C      1  0.5036990000000  0.5245810000000  0.5880790000000 1.0
C      1  0.5059640000000  0.4966850000000  0.5910610000000 1.0
C      1  0.4802840000000  0.5076370000000  0.5892300000000 1.0
C      1  0.5148020000000  0.4199520000000  0.4939810000000 1.0
C      1  0.5603170000000  0.5520950000000  0.5034990000000 1.0
C      1  0.4244600000000  0.5297430000000  0.5070210000000 1.0
C      1  0.4870500000000  0.4186780000000  0.4918930000000 1.0
C      1  0.4374010000000  0.5545030000000  0.5041630000000 1.0
C      1  0.5742230000000  0.5291940000000  0.4940550000000 1.0
C      1  0.4905130000000  0.5305520000000  0.4248750000000 1.0
C      1  0.4774840000000  0.4670550000000  0.4312810000000 1.0
C      1  0.5419450000000  0.4912310000000  0.4304050000000 1.0
C      1  0.5128720000000  0.5429690000000  0.5680370000000 1.0
C      1  0.5188140000000  0.4791840000000  0.5727090000000 1.0
C      1  0.4607850000000  0.4984850000000  0.5697310000000 1.0
C      1  0.5275350000000  0.4821820000000  0.4713080000000 1.0
C      1  0.5006390000000  0.5458990000000  0.4685420000000 1.0
C      1  0.4625380000000  0.4818550000000  0.4738520000000 1.0
C      1  0.4626910000000  0.4738690000000  0.5282100000000 1.0
C      1  0.5011330000000  0.5300080000000  0.5319250000000 1.0
C      1  0.5386560000000  0.4782940000000  0.5306940000000 1.0
C      1  0.4960750000000  0.5759350000000  0.5339840000000 1.0
C      1  0.4374670000000  0.4600840000000  0.5216820000000 1.0
C      1  0.5620280000000  0.4645440000000  0.5183560000000 1.0
C      1  0.5010350000000  0.5735700000000  0.4802110000000 1.0
C      1  0.5626880000000  0.4605650000000  0.4644150000000 1.0
C      1  0.4364200000000  0.4682050000000  0.4732150000000 1.0
C      1  0.4789650000000  0.4486900000000  0.5615090000000 1.0
C      1  0.5532290000000  0.5163130000000  0.5580420000000 1.0
C      1  0.4587830000000  0.5454260000000  0.5556420000000 1.0
C      1  0.5179990000000  0.4417640000000  0.4419360000000 1.0
C      1  0.4462680000000  0.5086510000000  0.4398190000000 1.0
C      1  0.5401360000000  0.5401730000000  0.4412360000000 1.0
C      1  0.5661430000000  0.5105050000000  0.4701750000000 1.0
C      1  0.4564030000000  0.5586590000000  0.4833410000000 1.0
C      1  0.4753200000000  0.4364910000000  0.4706890000000 1.0
C      1  0.4332900000000  0.5105080000000  0.5280010000000 1.0
C      1  0.5411670000000  0.5541580000000  0.5281420000000 1.0
C      1  0.5273860000000  0.4339020000000  0.5154040000000 1.0
C      1  0.4417010000000  0.5670310000000  0.5532800000000 1.0
C      1  0.4733770000000  0.4277210000000  0.5442450000000 1.0
C      1  0.5758530000000  0.5152110000000  0.5423310000000 1.0
C      1  0.5487790000000  0.5591860000000  0.4585720000000 1.0
C      1  0.5288110000000  0.4166030000000  0.4444620000000 1.0
C      1  0.4276310000000  0.5156560000000  0.4584270000000 1.0
C      1  0.5574820000000  0.4364820000000  0.4796310000000 1.0
C      1  0.5239920000000  0.5806250000000  0.4947450000000 1.0
C      1  0.4190270000000  0.4845330000000  0.4901150000000 1.0
C      1  0.4442390000000  0.4377610000000  0.5058610000000 1.0
C      1  0.4728550000000  0.5834390000000  0.5187850000000 1.0
C      1  0.5785940000000  0.4821070000000  0.5042000000000 1.0
C      1  0.5423730000000  0.5048460000000  0.5134390000000 1.0
C      1  0.4897060000000  0.5064840000000  0.5242910000000 1.0
C      1  0.4841640000000  0.4573190000000  0.5152650000000 1.0
C      1  0.4676170000000  0.5076940000000  0.4872250000000 1.0
C      1  0.5162820000000  0.5257430000000  0.4878240000000 1.0
C      1  0.5055920000000  0.4789250000000  0.4866190000000 1.0
C      1  0.4614020000000  0.5019760000000  0.5181590000000 1.0
C      1  0.5143910000000  0.4567020000000  0.5302820000000 1.0
C      1  0.5258080000000  0.5311330000000  0.5169510000000 1.0
C      1  0.5390330000000  0.5058860000000  0.4822580000000 1.0
C      1  0.4822980000000  0.4628350000000  0.4854690000000 1.0
C      1  0.4706170000000  0.5364110000000  0.4689260000000 1.0
C      1  0.5398510000000  0.4900680000000  0.5574200000000 1.0
C      1  0.4907360000000  0.5512850000000  0.5497770000000 1.0
C      1  0.4636840000000  0.4731570000000  0.5574260000000 1.0
C      1  0.4580390000000  0.4824780000000  0.4453030000000 1.0
C      1  0.5110010000000  0.5421760000000  0.4410590000000 1.0
C      1  0.5384460000000  0.4676160000000  0.4481020000000 1.0
C      1  0.4965350000000  0.5044940000000  0.4955560000000 1.0
END
