TITL C-96398-269-1 -111.343735391522 125000 -1232.24974923519 0 0 170 (C1) n - 1
REM
REM in /rds/project/t2_vol4/rds-t2-cs072/BORA/CARBON/from-Arr/AIRSS/Generating-Clusters/GAP-ML-2020/Higher-Symm/SD-CG/HFTN-CG/C160-200
REM
REM
REM
REM
REM
REM ./C.cell (6b4489405718ea1b717e0baf1da4c2d9)
REM AIRSS Version 0.9.1 bugfix July 2018 build 013d7b7c2542+ Fri, 06 Jul 2018 19:26:36 +0100
REM compiler GCC version 9.3.0
REM options -cpp -mtune=generic -march=x86-64 -g -O0
REM seed -665420726 1713364249 -1743520751 321749409 750745293 1755239336 -914623043 -870714244 -1058088668 -281349700 -1180854886 2067377396 -1794217221 -607341242 1646406556 -492569905 -320056214 -1273797268 -1535357999 783387276 -1351893122 566669091 -194885236 560437710 -70696129 -1874611237 435952350 -612673364 789667969 596988101 -1361418560 -1651807013 -1510858482
REM
CELL 1.54180   50.00000   50.00000   50.00000   90.00000   90.00000   90.00000
LATT -1
SFAC C  
C      1  0.4269830000000  0.5258590000000  0.4267570000000 1.0
C      1  0.5144810000000  0.4237560000000  0.4266550000000 1.0
C      1  0.5587160000000  0.5507280000000  0.4267330000000 1.0
C      1  0.4496960000000  0.5226530000000  0.4097310000000 1.0
C      1  0.5057960000000  0.4450890000000  0.4097110000000 1.0
C      1  0.5446060000000  0.5324510000000  0.4099790000000 1.0
C      1  0.4776960000000  0.5673480000000  0.5170810000000 1.0
C      1  0.4538180000000  0.4471960000000  0.5172110000000 1.0
C      1  0.5719450000000  0.4874610000000  0.5172360000000 1.0
C      1  0.4194030000000  0.4464000000000  0.4836180000000 1.0
C      1  0.5875000000000  0.4570120000000  0.4834290000000 1.0
C      1  0.4940530000000  0.5974770000000  0.4835200000000 1.0
C      1  0.4141080000000  0.5468910000000  0.5646280000000 1.0
C      1  0.5026020000000  0.4020720000000  0.5652430000000 1.0
C      1  0.5845860000000  0.5506510000000  0.5702210000000 1.0
C      1  0.5591810000000  0.5363460000000  0.5256560000000 1.0
C      1  0.4425220000000  0.5330600000000  0.5261320000000 1.0
C      1  0.5009760000000  0.4330410000000  0.5268000000000 1.0
C      1  0.5253890000000  0.3951060000000  0.4823960000000 1.0
C      1  0.5782060000000  0.5748730000000  0.4817800000000 1.0
C      1  0.3969850000000  0.5307820000000  0.4825570000000 1.0
C      1  0.5685280000000  0.5060610000000  0.5619470000000 1.0
C      1  0.4580080000000  0.5627680000000  0.5739230000000 1.0
C      1  0.4669130000000  0.4323620000000  0.5739140000000 1.0
C      1  0.5659460000000  0.4345150000000  0.5533100000000 1.0
C      1  0.5237990000000  0.5896300000000  0.5538220000000 1.0
C      1  0.4108430000000  0.4756890000000  0.5536700000000 1.0
C      1  0.5247560000000  0.4500570000000  0.5196030000000 1.0
C      1  0.5318270000000  0.5464700000000  0.5194800000000 1.0
C      1  0.4455090000000  0.5044020000000  0.5185250000000 1.0
C      1  0.4618470000000  0.6093050000000  0.5216820000000 1.0
C      1  0.4251950000000  0.4124880000000  0.5217690000000 1.0
C      1  0.6138220000000  0.4788120000000  0.5213630000000 1.0
C      1  0.5118950000000  0.5256850000000  0.5256600000000 1.0
C      1  0.4735230000000  0.4964190000000  0.5237540000000 1.0
C      1  0.5180650000000  0.4782580000000  0.5252050000000 1.0
C      1  0.5061930000000  0.5747460000000  0.5718240000000 1.0
C      1  0.4325620000000  0.4685080000000  0.5717070000000 1.0
C      1  0.5605920000000  0.4573330000000  0.5706720000000 1.0
C      1  0.4315860000000  0.4806980000000  0.4180520000000 1.0
C      1  0.5511990000000  0.4504850000000  0.4180800000000 1.0
C      1  0.5174430000000  0.5693380000000  0.4179050000000 1.0
C      1  0.4252060000000  0.4166220000000  0.4928100000000 1.0
C      1  0.6106700000000  0.4769680000000  0.4921560000000 1.0
C      1  0.4654240000000  0.6071810000000  0.4927110000000 1.0
C      1  0.4717020000000  0.5642020000000  0.4275950000000 1.0
C      1  0.4590090000000  0.4435590000000  0.4278780000000 1.0
C      1  0.5694680000000  0.4927230000000  0.4282240000000 1.0
C      1  0.5238500000000  0.4177010000000  0.5688450000000 1.0
C      1  0.5594460000000  0.5612060000000  0.5694540000000 1.0
C      1  0.4170470000000  0.5207390000000  0.5688070000000 1.0
C      1  0.4490990000000  0.4528400000000  0.4885510000000 1.0
C      1  0.5674410000000  0.4797450000000  0.4890970000000 1.0
C      1  0.4851180000000  0.5685070000000  0.4885180000000 1.0
C      1  0.5463050000000  0.5135770000000  0.5791980000000 1.0
C      1  0.4639560000000  0.5358770000000  0.5826120000000 1.0
C      1  0.4869960000000  0.4511430000000  0.5823620000000 1.0
C      1  0.3933190000000  0.5017180000000  0.4770840000000 1.0
C      1  0.5523840000000  0.4064310000000  0.4768370000000 1.0
C      1  0.5548000000000  0.5924960000000  0.4767220000000 1.0
C      1  0.5151120000000  0.4432490000000  0.5816730000000 1.0
C      1  0.5404110000000  0.5417660000000  0.5809580000000 1.0
C      1  0.4432510000000  0.5154440000000  0.5818230000000 1.0
C      1  0.4031580000000  0.4623170000000  0.5054740000000 1.0
C      1  0.5817630000000  0.4345660000000  0.5048920000000 1.0
C      1  0.5159770000000  0.6035960000000  0.5055750000000 1.0
C      1  0.6133070000000  0.5067330000000  0.4924810000000 1.0
C      1  0.4383240000000  0.5945870000000  0.4929830000000 1.0
C      1  0.4495410000000  0.3992680000000  0.4930770000000 1.0
C      1  0.4806510000000  0.5905780000000  0.5361050000000 1.0
C      1  0.4320460000000  0.4381900000000  0.5360660000000 1.0
C      1  0.5888990000000  0.4706100000000  0.5354280000000 1.0
C      1  0.4151250000000  0.4590860000000  0.4556770000000 1.0
C      1  0.5782930000000  0.4469400000000  0.4556540000000 1.0
C      1  0.5069750000000  0.5947280000000  0.4554470000000 1.0
C      1  0.4468390000000  0.5048090000000  0.4905160000000 1.0
C      1  0.5238220000000  0.4509470000000  0.4914910000000 1.0
C      1  0.5314350000000  0.5445750000000  0.4916590000000 1.0
C      1  0.4660680000000  0.5264420000000  0.4830380000000 1.0
C      1  0.4953570000000  0.4568670000000  0.4837220000000 1.0
C      1  0.5407840000000  0.5165890000000  0.4856460000000 1.0
C      1  0.4794310000000  0.5790110000000  0.5643790000000 1.0
C      1  0.4422840000000  0.4431200000000  0.5644170000000 1.0
C      1  0.5767010000000  0.4780950000000  0.5617030000000 1.0
C      1  0.5429730000000  0.4274250000000  0.4320660000000 1.0
C      1  0.5415040000000  0.5737930000000  0.4318640000000 1.0
C      1  0.4158230000000  0.4994000000000  0.4320980000000 1.0
C      1  0.4709930000000  0.4276300000000  0.4478010000000 1.0
C      1  0.5770680000000  0.5110580000000  0.4481330000000 1.0
C      1  0.4520600000000  0.5619000000000  0.4476370000000 1.0
C      1  0.4774390000000  0.4824010000000  0.4003720000000 1.0
C      1  0.5265750000000  0.4893300000000  0.4006740000000 1.0
C      1  0.4960220000000  0.5284970000000  0.4004530000000 1.0
C      1  0.4794900000000  0.5159850000000  0.4601100000000 1.0
C      1  0.4979490000000  0.4734290000000  0.4605010000000 1.0
C      1  0.5250010000000  0.5105390000000  0.4624330000000 1.0
C      1  0.5491890000000  0.5045530000000  0.4097410000000 1.0
C      1  0.4715150000000  0.5406410000000  0.4091810000000 1.0
C      1  0.4793110000000  0.4551120000000  0.4092670000000 1.0
C      1  0.5606600000000  0.4230440000000  0.4544610000000 1.0
C      1  0.5364240000000  0.5914110000000  0.4542410000000 1.0
C      1  0.4032950000000  0.4863100000000  0.4545580000000 1.0
C      1  0.5823710000000  0.4428920000000  0.5315750000000 1.0
C      1  0.5081690000000  0.5993900000000  0.5322680000000 1.0
C      1  0.4105180000000  0.4574140000000  0.5320800000000 1.0
C      1  0.5871440000000  0.5505790000000  0.4685180000000 1.0
C      1  0.4132050000000  0.5506050000000  0.4688310000000 1.0
C      1  0.5001140000000  0.3993530000000  0.4687850000000 1.0
C      1  0.4718610000000  0.3969570000000  0.5356300000000 1.0
C      1  0.6042730000000  0.5277090000000  0.5349310000000 1.0
C      1  0.4253940000000  0.5762630000000  0.5354560000000 1.0
C      1  0.5700530000000  0.5079900000000  0.4775060000000 1.0
C      1  0.4590570000000  0.5567910000000  0.4765780000000 1.0
C      1  0.4721770000000  0.4358870000000  0.4768210000000 1.0
C      1  0.5215830000000  0.3940300000000  0.5106470000000 1.0
C      1  0.5812730000000  0.5720890000000  0.5099300000000 1.0
C      1  0.3980940000000  0.5346680000000  0.5107850000000 1.0
C      1  0.5072700000000  0.5500460000000  0.4781980000000 1.0
C      1  0.4543340000000  0.4809220000000  0.4775400000000 1.0
C      1  0.5405410000000  0.4696630000000  0.4788050000000 1.0
C      1  0.4953730000000  0.5802600000000  0.4321200000000 1.0
C      1  0.4332960000000  0.4561310000000  0.4322980000000 1.0
C      1  0.5716550000000  0.4641670000000  0.4323440000000 1.0
C      1  0.5258310000000  0.4914220000000  0.5811960000000 1.0
C      1  0.4935510000000  0.5277760000000  0.5820530000000 1.0
C      1  0.4788100000000  0.4809720000000  0.5819000000000 1.0
C      1  0.4685430000000  0.5431050000000  0.5252050000000 1.0
C      1  0.4795560000000  0.4508600000000  0.5252950000000 1.0
C      1  0.5574100000000  0.5079590000000  0.5300130000000 1.0
C      1  0.5136240000000  0.5501350000000  0.5842060000000 1.0
C      1  0.4497480000000  0.4878540000000  0.5841030000000 1.0
C      1  0.5355040000000  0.4629370000000  0.5832900000000 1.0
C      1  0.5914110000000  0.5264920000000  0.5605730000000 1.0
C      1  0.4317390000000  0.5674740000000  0.5622200000000 1.0
C      1  0.4760100000000  0.4070870000000  0.5624140000000 1.0
C      1  0.4747030000000  0.4883530000000  0.4585390000000 1.0
C      1  0.5241700000000  0.4832460000000  0.4595890000000 1.0
C      1  0.5040190000000  0.5287200000000  0.4590320000000 1.0
C      1  0.3940390000000  0.5092010000000  0.5241170000000 1.0
C      1  0.5456790000000  0.4031830000000  0.5239330000000 1.0
C      1  0.5610450000000  0.5877950000000  0.5238390000000 1.0
C      1  0.5469680000000  0.4142240000000  0.5506530000000 1.0
C      1  0.5508350000000  0.5829050000000  0.5506740000000 1.0
C      1  0.4028190000000  0.5023500000000  0.5507730000000 1.0
C      1  0.5014640000000  0.5173580000000  0.5526910000000 1.0
C      1  0.4839510000000  0.4937510000000  0.5518730000000 1.0
C      1  0.5124930000000  0.4884260000000  0.5525780000000 1.0
C      1  0.4849170000000  0.5229010000000  0.5122610000000 1.0
C      1  0.4896830000000  0.4745030000000  0.5118460000000 1.0
C      1  0.5313230000000  0.5031200000000  0.5154160000000 1.0
C      1  0.4786650000000  0.4073890000000  0.4885100000000 1.0
C      1  0.5916120000000  0.5281340000000  0.4882530000000 1.0
C      1  0.4309990000000  0.5652500000000  0.4883840000000 1.0
C      1  0.4270260000000  0.5483940000000  0.4440970000000 1.0
C      1  0.4950350000000  0.4124710000000  0.4440530000000 1.0
C      1  0.5780410000000  0.5393860000000  0.4441140000000 1.0
C      1  0.6185780000000  0.5078780000000  0.5211280000000 1.0
C      1  0.4343320000000  0.5992040000000  0.5214070000000 1.0
C      1  0.4475350000000  0.3935050000000  0.5215040000000 1.0
C      1  0.5866550000000  0.5428260000000  0.5154390000000 1.0
C      1  0.4214610000000  0.5533730000000  0.5160580000000 1.0
C      1  0.4937630000000  0.4048480000000  0.5162290000000 1.0
C      1  0.5286910000000  0.4615700000000  0.4043230000000 1.0
C      1  0.5189680000000  0.5441050000000  0.4044490000000 1.0
C      1  0.4524480000000  0.4945860000000  0.4042540000000 1.0
C      1  0.5442400000000  0.5993780000000  0.5026570000000 1.0
C      1  0.3926630000000  0.4889470000000  0.5027560000000 1.0
C      1  0.5639130000000  0.4121220000000  0.5024640000000 1.0
C      1  0.4995340000000  0.5000170000000  0.5931340000000 1.0
C      1  0.5000090000000  0.5000900000000  0.3981880000000 1.0
END
