TITL C-96395-9162-1 -0.137173140043012 125000 -1430.05029991585 0 0 200 (C1) n - 1
REM
REM in /rds/project/t2_vol4/rds-t2-cs072/BORA/CARBON/from-Arr/AIRSS/Generating-Clusters/GAP-ML-2020/Higher-Symm/SD-CG/HFTN-CG/C160-200
REM
REM
REM
REM
REM
REM ./C.cell (6b4489405718ea1b717e0baf1da4c2d9)
REM AIRSS Version 0.9.1 bugfix July 2018 build 013d7b7c2542+ Fri, 06 Jul 2018 19:26:36 +0100
REM compiler GCC version 9.3.0
REM options -cpp -mtune=generic -march=x86-64 -g -O0
REM seed 1931257587 809827206 -148758156 -1894047602 535224839 -1560381942 -181111677 -1722114782 -1647192356 1295338020 -604830363 -1130877247 395109480 1272614254 1319083976 841963437 732169289 -373852344 1860765491 2036325371 -1800158617 -464061626 947543260 -1910311880 1479162689 -2112878036 1483438108 314031101 284352777 -1534858189 -1575593460 -760001885 -1946246955
REM
CELL 1.54180   50.00000   50.00000   50.00000   90.00000   90.00000   90.00000
LATT -1
SFAC C  
C      1  0.4578370000000  0.4637780000000  0.4632750000000 1.0
C      1  0.4589880000000  0.4490060000000  0.5034600000000 1.0
C      1  0.4580370000000  0.4803730000000  0.5431420000000 1.0
C      1  0.4551220000000  0.5122590000000  0.5479600000000 1.0
C      1  0.4604530000000  0.5458090000000  0.5066730000000 1.0
C      1  0.4540620000000  0.5357400000000  0.4650180000000 1.0
C      1  0.4563380000000  0.5085990000000  0.4511500000000 1.0
C      1  0.4592210000000  0.4229790000000  0.4172660000000 1.0
C      1  0.4641000000000  0.3887750000000  0.5059050000000 1.0
C      1  0.4584000000000  0.4342010000000  0.5929350000000 1.0
C      1  0.4586630000000  0.5314070000000  0.6031690000000 1.0
C      1  0.4637600000000  0.6048100000000  0.5449860000000 1.0
C      1  0.4580270000000  0.5992840000000  0.4458360000000 1.0
C      1  0.4620840000000  0.5195450000000  0.3946510000000 1.0
C      1  0.5360620000000  0.4316500000000  0.4193460000000 1.0
C      1  0.5437590000000  0.3951230000000  0.5020030000000 1.0
C      1  0.5326460000000  0.4332930000000  0.5863660000000 1.0
C      1  0.5355530000000  0.5239900000000  0.5969580000000 1.0
C      1  0.5423920000000  0.5928790000000  0.5459830000000 1.0
C      1  0.5345170000000  0.5920330000000  0.4524140000000 1.0
C      1  0.5416970000000  0.5207040000000  0.4036940000000 1.0
C      1  0.4225720000000  0.5908460000000  0.4815490000000 1.0
C      1  0.4208830000000  0.5376700000000  0.4207050000000 1.0
C      1  0.4217550000000  0.4574850000000  0.4153980000000 1.0
C      1  0.4232070000000  0.4101120000000  0.4812880000000 1.0
C      1  0.4229190000000  0.4262340000000  0.5584300000000 1.0
C      1  0.4214410000000  0.5018230000000  0.5853040000000 1.0
C      1  0.4225970000000  0.5756800000000  0.5563490000000 1.0
C      1  0.5573590000000  0.5278440000000  0.5736110000000 1.0
C      1  0.5546020000000  0.5814720000000  0.5218820000000 1.0
C      1  0.5597100000000  0.5748120000000  0.4524680000000 1.0
C      1  0.5602190000000  0.5000380000000  0.4110490000000 1.0
C      1  0.5583410000000  0.4365130000000  0.4408060000000 1.0
C      1  0.5606890000000  0.4097400000000  0.5209140000000 1.0
C      1  0.5488830000000  0.4553940000000  0.5791730000000 1.0
C      1  0.4833960000000  0.4677190000000  0.4999490000000 1.0
C      1  0.4830130000000  0.4800770000000  0.5255540000000 1.0
C      1  0.4803860000000  0.5087450000000  0.5339320000000 1.0
C      1  0.4834390000000  0.5301410000000  0.5153950000000 1.0
C      1  0.4770030000000  0.5342450000000  0.4852390000000 1.0
C      1  0.4807940000000  0.5083110000000  0.4674660000000 1.0
C      1  0.4816380000000  0.4796630000000  0.4729500000000 1.0
C      1  0.5037940000000  0.4438140000000  0.5005460000000 1.0
C      1  0.5040920000000  0.4634490000000  0.5417140000000 1.0
C      1  0.5014250000000  0.5071710000000  0.5544090000000 1.0
C      1  0.4919170000000  0.5557270000000  0.5292720000000 1.0
C      1  0.4985540000000  0.5551090000000  0.4767870000000 1.0
C      1  0.5014070000000  0.5208910000000  0.4494310000000 1.0
C      1  0.5012870000000  0.4734690000000  0.4519870000000 1.0
C      1  0.4652010000000  0.5527190000000  0.4449710000000 1.0
C      1  0.4672500000000  0.4960210000000  0.4258300000000 1.0
C      1  0.4636290000000  0.4389170000000  0.4769330000000 1.0
C      1  0.4679840000000  0.4324060000000  0.5267400000000 1.0
C      1  0.4695440000000  0.4741100000000  0.5691480000000 1.0
C      1  0.4641520000000  0.5356890000000  0.5648980000000 1.0
C      1  0.4731950000000  0.5728810000000  0.5116350000000 1.0
C      1  0.6089430000000  0.4619020000000  0.5060820000000 1.0
C      1  0.6019480000000  0.5047090000000  0.5304270000000 1.0
C      1  0.6007740000000  0.5328600000000  0.5245610000000 1.0
C      1  0.6014680000000  0.5418630000000  0.4958670000000 1.0
C      1  0.5996110000000  0.5250240000000  0.4721780000000 1.0
C      1  0.6036890000000  0.4754430000000  0.4633430000000 1.0
C      1  0.6043360000000  0.4520150000000  0.4799330000000 1.0
C      1  0.4617290000000  0.4639670000000  0.3941740000000 1.0
C      1  0.4613490000000  0.3946840000000  0.4594410000000 1.0
C      1  0.4612550000000  0.3993460000000  0.5614220000000 1.0
C      1  0.4603340000000  0.4866980000000  0.6108710000000 1.0
C      1  0.4603430000000  0.5783300000000  0.5824430000000 1.0
C      1  0.4618520000000  0.6137850000000  0.4900070000000 1.0
C      1  0.4586320000000  0.5635780000000  0.4071110000000 1.0
C      1  0.4324100000000  0.4644980000000  0.5024610000000 1.0
C      1  0.4307880000000  0.4816640000000  0.5272290000000 1.0
C      1  0.4300240000000  0.5115080000000  0.5296330000000 1.0
C      1  0.4348220000000  0.5312230000000  0.5082890000000 1.0
C      1  0.4273340000000  0.5272280000000  0.4802200000000 1.0
C      1  0.4289350000000  0.5018240000000  0.4654790000000 1.0
C      1  0.4310060000000  0.4736470000000  0.4745240000000 1.0
C      1  0.4483200000000  0.5747070000000  0.4322550000000 1.0
C      1  0.4518030000000  0.4913180000000  0.4006720000000 1.0
C      1  0.4467590000000  0.4090440000000  0.4396510000000 1.0
C      1  0.4557470000000  0.4038210000000  0.5315840000000 1.0
C      1  0.4527950000000  0.4643890000000  0.5921060000000 1.0
C      1  0.4480350000000  0.5524150000000  0.5865330000000 1.0
C      1  0.4550970000000  0.6000280000000  0.5160770000000 1.0
C      1  0.5714350000000  0.5541370000000  0.5645180000000 1.0
C      1  0.5551020000000  0.5939060000000  0.4942290000000 1.0
C      1  0.5669470000000  0.5509420000000  0.4376160000000 1.0
C      1  0.5589640000000  0.4709570000000  0.4079120000000 1.0
C      1  0.5701710000000  0.4172170000000  0.4628350000000 1.0
C      1  0.5522870000000  0.4209570000000  0.5460930000000 1.0
C      1  0.5539410000000  0.4819940000000  0.5880070000000 1.0
C      1  0.5089790000000  0.4574020000000  0.6193330000000 1.0
C      1  0.5115380000000  0.5672670000000  0.5930650000000 1.0
C      1  0.5141540000000  0.6220210000000  0.5193880000000 1.0
C      1  0.5083560000000  0.5770560000000  0.4107710000000 1.0
C      1  0.5133730000000  0.4912490000000  0.3794450000000 1.0
C      1  0.5118080000000  0.3973080000000  0.4458080000000 1.0
C      1  0.5124490000000  0.3819220000000  0.5372870000000 1.0
C      1  0.5905830000000  0.4787900000000  0.4389600000000 1.0
C      1  0.5885320000000  0.4277690000000  0.4819080000000 1.0
C      1  0.5948090000000  0.4465180000000  0.5247630000000 1.0
C      1  0.5874320000000  0.4895750000000  0.5513600000000 1.0
C      1  0.5900700000000  0.5541250000000  0.5414870000000 1.0
C      1  0.5915240000000  0.5681660000000  0.4959150000000 1.0
C      1  0.5845140000000  0.5290180000000  0.4466210000000 1.0
C      1  0.5091240000000  0.4355770000000  0.6032170000000 1.0
C      1  0.5115150000000  0.5395390000000  0.6024100000000 1.0
C      1  0.5166310000000  0.6080960000000  0.5430220000000 1.0
C      1  0.5099030000000  0.5937050000000  0.4359120000000 1.0
C      1  0.5146520000000  0.5164660000000  0.3902040000000 1.0
C      1  0.5116310000000  0.4166280000000  0.4236000000000 1.0
C      1  0.5166510000000  0.3856590000000  0.5106390000000 1.0
C      1  0.4090410000000  0.4625910000000  0.5364700000000 1.0
C      1  0.4069190000000  0.5266220000000  0.5400140000000 1.0
C      1  0.4090120000000  0.5484030000000  0.5182040000000 1.0
C      1  0.4063640000000  0.5471800000000  0.4867210000000 1.0
C      1  0.4069980000000  0.4954590000000  0.4460060000000 1.0
C      1  0.4076940000000  0.4684290000000  0.4549100000000 1.0
C      1  0.4095120000000  0.4470580000000  0.5129460000000 1.0
C      1  0.4448080000000  0.4447170000000  0.4043350000000 1.0
C      1  0.4463070000000  0.3922540000000  0.4831720000000 1.0
C      1  0.4439950000000  0.4171450000000  0.5752380000000 1.0
C      1  0.4427920000000  0.5079080000000  0.6047190000000 1.0
C      1  0.4457580000000  0.5921790000000  0.5633160000000 1.0
C      1  0.4440740000000  0.6066120000000  0.4699320000000 1.0
C      1  0.4435340000000  0.5402220000000  0.4020700000000 1.0
C      1  0.4911630000000  0.6011400000000  0.5559300000000 1.0
C      1  0.4867640000000  0.6045460000000  0.4497440000000 1.0
C      1  0.4890790000000  0.5321410000000  0.3919790000000 1.0
C      1  0.4874130000000  0.4283600000000  0.4128910000000 1.0
C      1  0.4914700000000  0.3870270000000  0.4951240000000 1.0
C      1  0.4850670000000  0.4222560000000  0.5936740000000 1.0
C      1  0.4868480000000  0.5254420000000  0.6101180000000 1.0
C      1  0.4238250000000  0.4728960000000  0.5819170000000 1.0
C      1  0.4215470000000  0.5526520000000  0.5745140000000 1.0
C      1  0.4265330000000  0.5919900000000  0.5103280000000 1.0
C      1  0.4209420000000  0.5615170000000  0.4383850000000 1.0
C      1  0.4234480000000  0.4869480000000  0.4087230000000 1.0
C      1  0.4230720000000  0.4203730000000  0.4528120000000 1.0
C      1  0.4264250000000  0.4128630000000  0.5324730000000 1.0
C      1  0.4135970000000  0.4194600000000  0.5076950000000 1.0
C      1  0.4127830000000  0.4534350000000  0.5629490000000 1.0
C      1  0.4103310000000  0.5267670000000  0.5687820000000 1.0
C      1  0.4136040000000  0.5750980000000  0.5288980000000 1.0
C      1  0.4112560000000  0.5679730000000  0.4669830000000 1.0
C      1  0.4098970000000  0.5093420000000  0.4214820000000 1.0
C      1  0.4117310000000  0.4448020000000  0.4399260000000 1.0
C      1  0.5806580000000  0.5047170000000  0.4311710000000 1.0
C      1  0.5750770000000  0.4580450000000  0.4267690000000 1.0
C      1  0.5832860000000  0.4239930000000  0.5106660000000 1.0
C      1  0.5825700000000  0.4618340000000  0.5449630000000 1.0
C      1  0.5697450000000  0.4999490000000  0.5720310000000 1.0
C      1  0.5839870000000  0.5745090000000  0.5226860000000 1.0
C      1  0.5727550000000  0.5799330000000  0.4777660000000 1.0
C      1  0.5136680000000  0.6183300000000  0.4922700000000 1.0
C      1  0.5327340000000  0.5663270000000  0.4081620000000 1.0
C      1  0.5139200000000  0.4657790000000  0.3890150000000 1.0
C      1  0.5350720000000  0.3868420000000  0.4543740000000 1.0
C      1  0.5120660000000  0.3944800000000  0.5613540000000 1.0
C      1  0.5122540000000  0.4842300000000  0.6171220000000 1.0
C      1  0.5364080000000  0.5772730000000  0.5893520000000 1.0
C      1  0.5382190000000  0.4990310000000  0.4717150000000 1.0
C      1  0.5437990000000  0.4540560000000  0.4608570000000 1.0
C      1  0.5501150000000  0.4566160000000  0.4871030000000 1.0
C      1  0.5559150000000  0.4510860000000  0.5507450000000 1.0
C      1  0.5433170000000  0.5339720000000  0.5480430000000 1.0
C      1  0.5445330000000  0.5495620000000  0.5232050000000 1.0
C      1  0.5495560000000  0.5339250000000  0.4989940000000 1.0
C      1  0.4905070000000  0.3996670000000  0.4679130000000 1.0
C      1  0.4868340000000  0.4009630000000  0.5746520000000 1.0
C      1  0.4870160000000  0.4981950000000  0.6165350000000 1.0
C      1  0.4890130000000  0.5774360000000  0.5744800000000 1.0
C      1  0.4890210000000  0.6084770000000  0.4790910000000 1.0
C      1  0.4864040000000  0.5597800000000  0.3997350000000 1.0
C      1  0.4891100000000  0.4573190000000  0.4037800000000 1.0
C      1  0.5491760000000  0.5461860000000  0.4149880000000 1.0
C      1  0.5370510000000  0.4539160000000  0.4013610000000 1.0
C      1  0.5514430000000  0.3976850000000  0.4737390000000 1.0
C      1  0.5341800000000  0.4128000000000  0.5661830000000 1.0
C      1  0.5356580000000  0.4970140000000  0.6046390000000 1.0
C      1  0.5530830000000  0.5775980000000  0.5683490000000 1.0
C      1  0.5351300000000  0.6053870000000  0.4781250000000 1.0
C      1  0.4933380000000  0.5491410000000  0.4480840000000 1.0
C      1  0.4882220000000  0.4773440000000  0.4277440000000 1.0
C      1  0.4907110000000  0.4292560000000  0.4769690000000 1.0
C      1  0.4955860000000  0.4375260000000  0.5294240000000 1.0
C      1  0.4977250000000  0.4795080000000  0.5655780000000 1.0
C      1  0.4858430000000  0.5521470000000  0.5568890000000 1.0
C      1  0.4895780000000  0.5786740000000  0.4897540000000 1.0
C      1  0.5234970000000  0.5155100000000  0.5376630000000 1.0
C      1  0.5135270000000  0.5387820000000  0.5169390000000 1.0
C      1  0.5235450000000  0.5413800000000  0.4861650000000 1.0
C      1  0.5251800000000  0.5218230000000  0.4646070000000 1.0
C      1  0.5284310000000  0.4769780000000  0.4571220000000 1.0
C      1  0.5306280000000  0.4532730000000  0.5048810000000 1.0
C      1  0.5326820000000  0.4665380000000  0.5308570000000 1.0
C      1  0.5366930000000  0.4948390000000  0.5223510000000 1.0
C      1  0.5485790000000  0.5040460000000  0.4984430000000 1.0
C      1  0.6092440000000  0.4899890000000  0.5070460000000 1.0
C      1  0.6070160000000  0.4987560000000  0.4795540000000 1.0
END
