TITL C-96405-7713-3 21.5957784915751 125000 -1359.44260717765 0 0 196 (C1) n - 1
REM
REM in /rds/project/t2_vol4/rds-t2-cs072/BORA/CARBON/from-Arr/AIRSS/Generating-Clusters/GAP-ML-2020/Higher-Symm/SD-CG/HFTN-CG/C160-200
REM
REM
REM
REM
REM
REM ./C.cell (6b4489405718ea1b717e0baf1da4c2d9)
REM AIRSS Version 0.9.1 bugfix July 2018 build 013d7b7c2542+ Fri, 06 Jul 2018 19:26:36 +0100
REM compiler GCC version 9.3.0
REM options -cpp -mtune=generic -march=x86-64 -g -O0
REM seed 1704264894 1157380951 -394212250 -2070990732 233289214 -739880058 57490855 2098833133 -327940884 -508334726 -244677910 -1991937711 -1487545699 -1082337025 144936108 1834842737 2043809038 1932197039 -1594356085 -435289407 -1726055206 -686687205 -1259224053 -688036207 -453328664 -1800543664 595847367 778234643 -720406320 -1084072973 -207549109 -1819841454 711096813
REM
CELL 1.54180   50.00000   50.00000   50.00000   90.00000   90.00000   90.00000
LATT -1
SFAC C  
C      1  0.4892830000000  0.5862540000000  0.5361150000000 1.0
C      1  0.4744940000000  0.5874950000000  0.4761910000000 1.0
C      1  0.5341740000000  0.5872650000000  0.4932740000000 1.0
C      1  0.4898590000000  0.4101670000000  0.5337540000000 1.0
C      1  0.4752770000000  0.4112540000000  0.4717340000000 1.0
C      1  0.5363780000000  0.4112610000000  0.4901860000000 1.0
C      1  0.4137990000000  0.5265530000000  0.5736340000000 1.0
C      1  0.4798700000000  0.5303520000000  0.3894780000000 1.0
C      1  0.6059550000000  0.5286090000000  0.5388810000000 1.0
C      1  0.4168420000000  0.4707050000000  0.5697930000000 1.0
C      1  0.4813080000000  0.4744230000000  0.3925070000000 1.0
C      1  0.6024010000000  0.4727100000000  0.5368820000000 1.0
C      1  0.4011340000000  0.5119820000000  0.5528550000000 1.0
C      1  0.5041590000000  0.5158210000000  0.3884170000000 1.0
C      1  0.5947200000000  0.5133940000000  0.5599880000000 1.0
C      1  0.4005530000000  0.4842050000000  0.5514190000000 1.0
C      1  0.5054310000000  0.4879870000000  0.3879520000000 1.0
C      1  0.5943720000000  0.4855330000000  0.5604900000000 1.0
C      1  0.4703280000000  0.4456890000000  0.5074910000000 1.0
C      1  0.5080920000000  0.4465780000000  0.4690720000000 1.0
C      1  0.5225220000000  0.4457170000000  0.5209940000000 1.0
C      1  0.4682500000000  0.5521210000000  0.5102960000000 1.0
C      1  0.5071800000000  0.5530870000000  0.4697140000000 1.0
C      1  0.5230120000000  0.5521600000000  0.5235100000000 1.0
C      1  0.5343150000000  0.5383280000000  0.6080370000000 1.0
C      1  0.3908010000000  0.5429930000000  0.4755540000000 1.0
C      1  0.5752240000000  0.5420340000000  0.4174140000000 1.0
C      1  0.5503030000000  0.4661630000000  0.5977140000000 1.0
C      1  0.3900540000000  0.4674660000000  0.4940370000000 1.0
C      1  0.5601260000000  0.4696820000000  0.4071770000000 1.0
C      1  0.3888310000000  0.4387760000000  0.4955240000000 1.0
C      1  0.5591180000000  0.4412020000000  0.4043330000000 1.0
C      1  0.5531200000000  0.4376660000000  0.5973000000000 1.0
C      1  0.3841420000000  0.5583190000000  0.4971050000000 1.0
C      1  0.5615150000000  0.5621540000000  0.4058190000000 1.0
C      1  0.5513320000000  0.5585260000000  0.6025780000000 1.0
C      1  0.5330790000000  0.5245850000000  0.5325660000000 1.0
C      1  0.4554240000000  0.5244090000000  0.5136020000000 1.0
C      1  0.5107550000000  0.5259060000000  0.4558240000000 1.0
C      1  0.5336940000000  0.4722870000000  0.5314110000000 1.0
C      1  0.4558540000000  0.4721180000000  0.5128870000000 1.0
C      1  0.5108190000000  0.4735330000000  0.4547780000000 1.0
C      1  0.4185790000000  0.5295860000000  0.4820570000000 1.0
C      1  0.5567360000000  0.5310790000000  0.4392970000000 1.0
C      1  0.5244920000000  0.5283000000000  0.5807720000000 1.0
C      1  0.4182680000000  0.4707000000000  0.4824160000000 1.0
C      1  0.5559200000000  0.4721500000000  0.4374530000000 1.0
C      1  0.5261870000000  0.4693630000000  0.5790450000000 1.0
C      1  0.4646300000000  0.5287000000000  0.4672050000000 1.0
C      1  0.5463120000000  0.5290340000000  0.4870190000000 1.0
C      1  0.4883180000000  0.5274640000000  0.5479200000000 1.0
C      1  0.4637930000000  0.4692870000000  0.4649270000000 1.0
C      1  0.5483720000000  0.4694370000000  0.4855020000000 1.0
C      1  0.4882670000000  0.4678420000000  0.5484370000000 1.0
C      1  0.4420110000000  0.4320220000000  0.5103320000000 1.0
C      1  0.5195860000000  0.4334970000000  0.4427810000000 1.0
C      1  0.5395010000000  0.4318010000000  0.5436390000000 1.0
C      1  0.4382420000000  0.5665970000000  0.5151350000000 1.0
C      1  0.5178140000000  0.5679810000000  0.4421470000000 1.0
C      1  0.5416290000000  0.5662410000000  0.5468080000000 1.0
C      1  0.5099630000000  0.5965550000000  0.5525000000000 1.0
C      1  0.4497510000000  0.5971340000000  0.4859240000000 1.0
C      1  0.5377550000000  0.5982700000000  0.4674530000000 1.0
C      1  0.5108700000000  0.4000810000000  0.5499480000000 1.0
C      1  0.4506260000000  0.4011310000000  0.4814670000000 1.0
C      1  0.5401530000000  0.4018450000000  0.4637040000000 1.0
C      1  0.4924440000000  0.4408480000000  0.5283960000000 1.0
C      1  0.4789120000000  0.4417300000000  0.4776390000000 1.0
C      1  0.5296620000000  0.4417750000000  0.4912950000000 1.0
C      1  0.4919520000000  0.5556910000000  0.5308000000000 1.0
C      1  0.4775710000000  0.5565670000000  0.4799380000000 1.0
C      1  0.5289520000000  0.5566060000000  0.4929690000000 1.0
C      1  0.5580210000000  0.4745590000000  0.5132670000000 1.0
C      1  0.4594280000000  0.4733100000000  0.5431060000000 1.0
C      1  0.4829010000000  0.4753190000000  0.4428240000000 1.0
C      1  0.5542430000000  0.5207920000000  0.5129750000000 1.0
C      1  0.4618310000000  0.5195830000000  0.5415260000000 1.0
C      1  0.4833760000000  0.5214880000000  0.4471820000000 1.0
C      1  0.5650040000000  0.4173320000000  0.4539890000000 1.0
C      1  0.5070120000000  0.4146840000000  0.5768280000000 1.0
C      1  0.4294420000000  0.4165060000000  0.4651370000000 1.0
C      1  0.5626780000000  0.5844620000000  0.4572850000000 1.0
C      1  0.5062490000000  0.5818090000000  0.5786600000000 1.0
C      1  0.4303670000000  0.5810640000000  0.4692760000000 1.0
C      1  0.5663460000000  0.5177990000000  0.4641450000000 1.0
C      1  0.4981060000000  0.5152650000000  0.5762910000000 1.0
C      1  0.4350810000000  0.5171210000000  0.4610090000000 1.0
C      1  0.5675890000000  0.4846770000000  0.4621050000000 1.0
C      1  0.4990720000000  0.4820810000000  0.5772810000000 1.0
C      1  0.4334110000000  0.4840890000000  0.4602690000000 1.0
C      1  0.5657670000000  0.4256710000000  0.4257750000000 1.0
C      1  0.5311490000000  0.4224020000000  0.5918360000000 1.0
C      1  0.4042890000000  0.4238590000000  0.4786660000000 1.0
C      1  0.5638770000000  0.5770690000000  0.4293330000000 1.0
C      1  0.5298460000000  0.5738630000000  0.5934620000000 1.0
C      1  0.4015400000000  0.5715210000000  0.4792970000000 1.0
C      1  0.4161370000000  0.5577270000000  0.5351970000000 1.0
C      1  0.5120720000000  0.5606460000000  0.4120870000000 1.0
C      1  0.5704700000000  0.5584280000000  0.5565360000000 1.0
C      1  0.4225900000000  0.4389500000000  0.5318140000000 1.0
C      1  0.5108130000000  0.4414710000000  0.4154680000000 1.0
C      1  0.5676020000000  0.4394510000000  0.5499300000000 1.0
C      1  0.4005170000000  0.4719080000000  0.5236440000000 1.0
C      1  0.5293210000000  0.4750070000000  0.4013970000000 1.0
C      1  0.5707350000000  0.4722070000000  0.5740920000000 1.0
C      1  0.4038460000000  0.5245090000000  0.5269790000000 1.0
C      1  0.5251940000000  0.5279840000000  0.4043620000000 1.0
C      1  0.5704900000000  0.5253250000000  0.5706840000000 1.0
C      1  0.4398520000000  0.4216170000000  0.4380730000000 1.0
C      1  0.5833060000000  0.4217690000000  0.4766250000000 1.0
C      1  0.4782960000000  0.4191120000000  0.5815260000000 1.0
C      1  0.4401220000000  0.5777560000000  0.4421250000000 1.0
C      1  0.5813280000000  0.5793400000000  0.4795770000000 1.0
C      1  0.4776090000000  0.5767070000000  0.5835640000000 1.0
C      1  0.4667060000000  0.5891290000000  0.4359370000000 1.0
C      1  0.5729370000000  0.5890540000000  0.5063410000000 1.0
C      1  0.4586550000000  0.5872140000000  0.5633210000000 1.0
C      1  0.4674990000000  0.4115440000000  0.4330010000000 1.0
C      1  0.5738620000000  0.4109510000000  0.5027950000000 1.0
C      1  0.4602610000000  0.4091170000000  0.5599220000000 1.0
C      1  0.4394340000000  0.5682670000000  0.5746420000000 1.0
C      1  0.4663740000000  0.5713250000000  0.4127110000000 1.0
C      1  0.5927770000000  0.5703740000000  0.5169830000000 1.0
C      1  0.4427680000000  0.4297030000000  0.5702080000000 1.0
C      1  0.4675790000000  0.4327860000000  0.4133940000000 1.0
C      1  0.5908980000000  0.4318020000000  0.5133000000000 1.0
C      1  0.5069190000000  0.4834420000000  0.5322360000000 1.0
C      1  0.4685420000000  0.4840520000000  0.4896800000000 1.0
C      1  0.5246060000000  0.4845950000000  0.4777880000000 1.0
C      1  0.5062170000000  0.5112680000000  0.5285440000000 1.0
C      1  0.4722210000000  0.5118230000000  0.4918370000000 1.0
C      1  0.5210150000000  0.5122870000000  0.4808320000000 1.0
C      1  0.5359660000000  0.5947600000000  0.5416250000000 1.0
C      1  0.4462440000000  0.5948870000000  0.5138980000000 1.0
C      1  0.5153170000000  0.5962360000000  0.4504230000000 1.0
C      1  0.5362400000000  0.4031080000000  0.5382190000000 1.0
C      1  0.4481610000000  0.4032750000000  0.5093840000000 1.0
C      1  0.5172090000000  0.4046340000000  0.4477000000000 1.0
C      1  0.6139670000000  0.5159330000000  0.5142630000000 1.0
C      1  0.4309670000000  0.5131870000000  0.5924720000000 1.0
C      1  0.4548770000000  0.5168200000000  0.3945040000000 1.0
C      1  0.6130290000000  0.4862900000000  0.5137930000000 1.0
C      1  0.4316530000000  0.4835640000000  0.5909050000000 1.0
C      1  0.4556520000000  0.4872590000000  0.3950470000000 1.0
C      1  0.5935390000000  0.5546510000000  0.5398350000000 1.0
C      1  0.4192700000000  0.5529390000000  0.5633030000000 1.0
C      1  0.4862090000000  0.5563840000000  0.4002890000000 1.0
C      1  0.5815710000000  0.4530440000000  0.5294970000000 1.0
C      1  0.4334330000000  0.4514380000000  0.5547180000000 1.0
C      1  0.4857850000000  0.4544230000000  0.4138140000000 1.0
C      1  0.4253440000000  0.5150300000000  0.5077570000000 1.0
C      1  0.5306140000000  0.5170890000000  0.4324400000000 1.0
C      1  0.5433920000000  0.5148360000000  0.5611080000000 1.0
C      1  0.4267320000000  0.4833040000000  0.5080290000000 1.0
C      1  0.5296370000000  0.4852660000000  0.4323340000000 1.0
C      1  0.5438160000000  0.4830680000000  0.5592860000000 1.0
C      1  0.6000750000000  0.4429180000000  0.4885770000000 1.0
C      1  0.4596870000000  0.4400520000000  0.5908190000000 1.0
C      1  0.4413180000000  0.4431880000000  0.4179990000000 1.0
C      1  0.5990100000000  0.5589160000000  0.4913130000000 1.0
C      1  0.4585200000000  0.5560850000000  0.5924080000000 1.0
C      1  0.4414960000000  0.5587570000000  0.4198500000000 1.0
C      1  0.4257620000000  0.5151220000000  0.4318430000000 1.0
C      1  0.5961820000000  0.5155230000000  0.4705350000000 1.0
C      1  0.4776910000000  0.5123350000000  0.5988880000000 1.0
C      1  0.4248330000000  0.4870530000000  0.4314730000000 1.0
C      1  0.5968650000000  0.4874700000000  0.4690680000000 1.0
C      1  0.4784730000000  0.4842450000000  0.5992830000000 1.0
C      1  0.4362860000000  0.5314530000000  0.4118460000000 1.0
C      1  0.6082800000000  0.5314330000000  0.4899430000000 1.0
C      1  0.4549390000000  0.5283440000000  0.6002100000000 1.0
C      1  0.4367830000000  0.4712020000000  0.4115080000000 1.0
C      1  0.6081400000000  0.4709160000000  0.4888000000000 1.0
C      1  0.4556550000000  0.4678150000000  0.5986410000000 1.0
C      1  0.5731260000000  0.4432770000000  0.5767600000000 1.0
C      1  0.3965950000000  0.4430240000000  0.5233450000000 1.0
C      1  0.5311890000000  0.4461960000000  0.3973770000000 1.0
C      1  0.5707290000000  0.5505490000000  0.5834470000000 1.0
C      1  0.3925830000000  0.5498470000000  0.5220150000000 1.0
C      1  0.5354810000000  0.5536230000000  0.3983390000000 1.0
C      1  0.5475630000000  0.5988200000000  0.5159250000000 1.0
C      1  0.4630280000000  0.5979310000000  0.5368650000000 1.0
C      1  0.4871450000000  0.5994920000000  0.4534000000000 1.0
C      1  0.5489900000000  0.3998870000000  0.5130160000000 1.0
C      1  0.4636700000000  0.3990560000000  0.5328460000000 1.0
C      1  0.4890830000000  0.4006820000000  0.4492060000000 1.0
C      1  0.5252400000000  0.5571550000000  0.5694280000000 1.0
C      1  0.4283030000000  0.5583960000000  0.4885190000000 1.0
C      1  0.5457800000000  0.5595380000000  0.4448780000000 1.0
C      1  0.5248870000000  0.4403270000000  0.5685460000000 1.0
C      1  0.4277860000000  0.4414070000000  0.4854940000000 1.0
C      1  0.5482360000000  0.4427800000000  0.4432020000000 1.0
C      1  0.5697050000000  0.4994940000000  0.5140960000000 1.0
C      1  0.4772560000000  0.5003090000000  0.4327500000000 1.0
C      1  0.4529230000000  0.4979290000000  0.5535910000000 1.0
C      1  0.4997810000000  0.5151430000000  0.5004770000000 1.0
END
