TITL C-96520-2351-6 -16.8789122553157 125000 -68.0197572410583 0 0 11 (Cs) n - 1
REM
REM in /rds/project/t2_vol4/rds-t2-cs072/BORA/CARBON/from-Arr/AIRSS/Generating-Clusters/GAP-ML-2020/Higher-Symm/SD-CG/HFTN-CG
REM
REM
REM
REM
REM
REM ./C.cell (b20cbc046b6831c77cfcea5457e17084)
REM AIRSS Version 0.9.1 bugfix July 2018 build 013d7b7c2542+ Fri, 06 Jul 2018 19:26:36 +0100
REM compiler GCC version 9.3.0
REM options -cpp -mtune=generic -march=x86-64 -g -O0
REM seed -1109966355 1666819155 644357456 -1966645262 875533402 87567650 -1132462312 -1644237539 1585374595 1695861368 588674916 279788314 -578942891 1231814356 1714327632 -960561758 -913797341 -1908596535 1240609902 1417651313 -167452191 -71912661 -192798713 1782395492 -2040794599 277744803 -1261082957 802346967 1228029673 -731902475 1907726780 1760484710 1100919319
REM
CELL 1.54180   50.00000   50.00000   50.00000   90.00000   90.00000   90.00000
LATT -1
SFAC C  
C      1  0.5137190000000  0.5129820000000  0.4718200000000 1.0
C      1  0.5312980000000  0.5102330000000  0.5159300000000 1.0
C      1  0.4654130000000  0.5130700000000  0.5167210000000 1.0
C      1  0.4712960000000  0.4888060000000  0.5128640000000 1.0
C      1  0.5035980000000  0.4890950000000  0.4734300000000 1.0
C      1  0.5218190000000  0.4862460000000  0.5191490000000 1.0
C      1  0.4812210000000  0.4660520000000  0.5074910000000 1.0
C      1  0.4992550000000  0.4658810000000  0.4846840000000 1.0
C      1  0.5099550000000  0.4642080000000  0.5115330000000 1.0
C      1  0.5097750000000  0.5182760000000  0.4993650000000 1.0
C      1  0.4867370000000  0.5269770000000  0.5090890000000 1.0
END
