TITL C-96496-2408-1 -0.0756423928808244 125000 -472.596146688847 0 0 67 (C1) n - 1
REM
REM in /rds/project/t2_vol4/rds-t2-cs072/BORA/CARBON/from-Arr/AIRSS/Generating-Clusters/GAP-ML-2020/Higher-Symm/SD-CG/HFTN-CG
REM
REM
REM
REM
REM
REM ./C.cell (b20cbc046b6831c77cfcea5457e17084)
REM AIRSS Version 0.9.1 bugfix July 2018 build 013d7b7c2542+ Fri, 06 Jul 2018 19:26:36 +0100
REM compiler GCC version 9.3.0
REM options -cpp -mtune=generic -march=x86-64 -g -O0
REM seed -815308354 1878219349 -1181381583 -1975875115 479984932 -1036017639 1522589446 -1276585487 192979189 -1129462271 385798969 -1880138182 -327213226 -118620242 1986732961 1585774616 1703119328 679793585 1250754941 1357034919 -1927962438 -261903069 601881040 -1720751164 -1556575683 1875768174 1517231359 124038415 677956466 -466053662 -799640959 18014714 344238148
REM
CELL 1.54180   50.00000   50.00000   50.00000   90.00000   90.00000   90.00000
LATT -1
SFAC C  
C      1  0.4739220000000  0.4557160000000  0.5586810000000 1.0
C      1  0.5535270000000  0.5355210000000  0.4589530000000 1.0
C      1  0.5213700000000  0.4390610000000  0.4743420000000 1.0
C      1  0.4761790000000  0.5667700000000  0.4656640000000 1.0
C      1  0.5232970000000  0.5697180000000  0.4807850000000 1.0
C      1  0.5149730000000  0.5499310000000  0.4373370000000 1.0
C      1  0.4999430000000  0.4674360000000  0.5607620000000 1.0
C      1  0.5376490000000  0.4927210000000  0.5619000000000 1.0
C      1  0.5437740000000  0.4689710000000  0.5466280000000 1.0
C      1  0.4703020000000  0.5572600000000  0.5572900000000 1.0
C      1  0.5075980000000  0.5025190000000  0.4865670000000 1.0
C      1  0.5340280000000  0.4581530000000  0.4568400000000 1.0
C      1  0.4477440000000  0.4427640000000  0.5289240000000 1.0
C      1  0.4311000000000  0.4868590000000  0.4960110000000 1.0
C      1  0.5600530000000  0.4746430000000  0.5238890000000 1.0
C      1  0.5519580000000  0.5472720000000  0.5201300000000 1.0
C      1  0.5047550000000  0.5393490000000  0.5104560000000 1.0
C      1  0.5518950000000  0.5138090000000  0.5506150000000 1.0
C      1  0.4792840000000  0.4788040000000  0.5153410000000 1.0
C      1  0.4661120000000  0.4852320000000  0.4415100000000 1.0
C      1  0.4351630000000  0.4899710000000  0.5466940000000 1.0
C      1  0.4229350000000  0.4879190000000  0.5215900000000 1.0
C      1  0.5179610000000  0.4352240000000  0.5237690000000 1.0
C      1  0.4989070000000  0.5195360000000  0.5312800000000 1.0
C      1  0.4912960000000  0.4697160000000  0.4375410000000 1.0
C      1  0.4949390000000  0.5753550000000  0.4864250000000 1.0
C      1  0.5312180000000  0.5580010000000  0.5054980000000 1.0
C      1  0.5101110000000  0.4940440000000  0.5674240000000 1.0
C      1  0.5193380000000  0.4743670000000  0.4374880000000 1.0
C      1  0.4870130000000  0.5551940000000  0.4413810000000 1.0
C      1  0.5338390000000  0.4398280000000  0.5004000000000 1.0
C      1  0.4909710000000  0.4273330000000  0.5206880000000 1.0
C      1  0.5649130000000  0.5032890000000  0.5267770000000 1.0
C      1  0.4606080000000  0.5134470000000  0.4404670000000 1.0
C      1  0.4994120000000  0.5219800000000  0.5622620000000 1.0
C      1  0.4726890000000  0.4332570000000  0.5409390000000 1.0
C      1  0.4801310000000  0.4487710000000  0.4535540000000 1.0
C      1  0.5674530000000  0.5211090000000  0.4801900000000 1.0
C      1  0.5644690000000  0.4957130000000  0.4649280000000 1.0
C      1  0.5280620000000  0.5014250000000  0.4309040000000 1.0
C      1  0.5671300000000  0.5249820000000  0.5083180000000 1.0
C      1  0.4465040000000  0.4636750000000  0.5491550000000 1.0
C      1  0.5100760000000  0.5231860000000  0.4264720000000 1.0
C      1  0.5560480000000  0.4696340000000  0.4722370000000 1.0
C      1  0.5336570000000  0.5562040000000  0.4571230000000 1.0
C      1  0.4814510000000  0.5288340000000  0.4299350000000 1.0
C      1  0.4733340000000  0.5064360000000  0.5256640000000 1.0
C      1  0.4919710000000  0.5654070000000  0.5150520000000 1.0
C      1  0.5512120000000  0.5103670000000  0.4438480000000 1.0
C      1  0.4933480000000  0.4334590000000  0.4726240000000 1.0
C      1  0.4410410000000  0.4616060000000  0.4830750000000 1.0
C      1  0.4451980000000  0.5274470000000  0.4616610000000 1.0
C      1  0.4559820000000  0.4638850000000  0.4588590000000 1.0
C      1  0.4932800000000  0.5647840000000  0.5436320000000 1.0
C      1  0.5156560000000  0.5454490000000  0.5565050000000 1.0
C      1  0.4550420000000  0.5110020000000  0.5482830000000 1.0
C      1  0.5548370000000  0.4594020000000  0.4997930000000 1.0
C      1  0.4921290000000  0.5254200000000  0.4883030000000 1.0
C      1  0.5417880000000  0.5397710000000  0.5466030000000 1.0
C      1  0.5004720000000  0.4814900000000  0.5000500000000 1.0
C      1  0.4650490000000  0.5200090000000  0.5011210000000 1.0
C      1  0.4694820000000  0.5304350000000  0.5633760000000 1.0
C      1  0.4775010000000  0.4291940000000  0.4958200000000 1.0
C      1  0.4512520000000  0.4410610000000  0.5005910000000 1.0
C      1  0.5215120000000  0.4522340000000  0.5466930000000 1.0
C      1  0.4422480000000  0.5128080000000  0.4869050000000 1.0
C      1  0.4519090000000  0.5538330000000  0.4654770000000 1.0
END
