TITL C-96512-2270-8 -110.092233185271 125000 -424.655055819172 0 0 63 (C1) n - 1
REM
REM in /rds/project/t2_vol4/rds-t2-cs072/BORA/CARBON/from-Arr/AIRSS/Generating-Clusters/GAP-ML-2020/Higher-Symm/SD-CG/HFTN-CG
REM
REM
REM
REM
REM
REM ./C.cell (b20cbc046b6831c77cfcea5457e17084)
REM AIRSS Version 0.9.1 bugfix July 2018 build 013d7b7c2542+ Fri, 06 Jul 2018 19:26:36 +0100
REM compiler GCC version 9.3.0
REM options -cpp -mtune=generic -march=x86-64 -g -O0
REM seed 1494289352 1888635490 -1562611163 -1920386236 -344905853 780787593 436513564 976448745 1375207276 -1672601928 50079900 774787196 550446150 -884534533 -346862706 1511307839 462192637 333282988 565810113 1398510114 -1464860543 417213122 -548815539 569846806 -1421375129 -372158076 1216664411 -2054412716 -650382085 -446926199 941063080 546087932 -341923433
REM
CELL 1.54180   50.00000   50.00000   50.00000   90.00000   90.00000   90.00000
LATT -1
SFAC C  
C      1  0.5266770000000  0.4990850000000  0.5073680000000 1.0
C      1  0.4889900000000  0.4717550000000  0.5074900000000 1.0
C      1  0.4849980000000  0.5221930000000  0.5087780000000 1.0
C      1  0.4487100000000  0.4554720000000  0.5243570000000 1.0
C      1  0.4836460000000  0.5605590000000  0.5335110000000 1.0
C      1  0.5751150000000  0.4851670000000  0.5216590000000 1.0
C      1  0.5877650000000  0.5276380000000  0.5031340000000 1.0
C      1  0.4867290000000  0.4198890000000  0.5232020000000 1.0
C      1  0.4339590000000  0.5584740000000  0.5143910000000 1.0
C      1  0.5525730000000  0.4849230000000  0.4597460000000 1.0
C      1  0.4532860000000  0.4665970000000  0.4518500000000 1.0
C      1  0.4840030000000  0.5602700000000  0.4673260000000 1.0
C      1  0.4622480000000  0.4926080000000  0.4518260000000 1.0
C      1  0.5075090000000  0.5472060000000  0.4583060000000 1.0
C      1  0.5340330000000  0.4643640000000  0.4560560000000 1.0
C      1  0.5262640000000  0.5507280000000  0.5026230000000 1.0
C      1  0.5390130000000  0.4516750000000  0.5014710000000 1.0
C      1  0.4425510000000  0.4981710000000  0.4947420000000 1.0
C      1  0.4377490000000  0.4693650000000  0.5006270000000 1.0
C      1  0.5040600000000  0.5676330000000  0.5133910000000 1.0
C      1  0.5653590000000  0.4639170000000  0.5047120000000 1.0
C      1  0.5828020000000  0.5009820000000  0.4973250000000 1.0
C      1  0.4643990000000  0.4331840000000  0.5134600000000 1.0
C      1  0.4615100000000  0.5655920000000  0.5130560000000 1.0
C      1  0.4616950000000  0.4968500000000  0.5536790000000 1.0
C      1  0.4889080000000  0.5087730000000  0.5567380000000 1.0
C      1  0.5085670000000  0.4898700000000  0.5500970000000 1.0
C      1  0.5729090000000  0.4793760000000  0.4800100000000 1.0
C      1  0.4501250000000  0.4581550000000  0.4775040000000 1.0
C      1  0.4839240000000  0.5732210000000  0.4935160000000 1.0
C      1  0.5416970000000  0.5120550000000  0.4641550000000 1.0
C      1  0.4942800000000  0.4433930000000  0.4710920000000 1.0
C      1  0.4606900000000  0.5439310000000  0.4687110000000 1.0
C      1  0.5541020000000  0.5386370000000  0.4661220000000 1.0
C      1  0.5134000000000  0.4248960000000  0.4777120000000 1.0
C      1  0.4339980000000  0.5365690000000  0.4664200000000 1.0
C      1  0.5264400000000  0.4318260000000  0.5198970000000 1.0
C      1  0.4227250000000  0.5189310000000  0.5079270000000 1.0
C      1  0.5538210000000  0.5498000000000  0.5122440000000 1.0
C      1  0.4519220000000  0.5226980000000  0.5451740000000 1.0
C      1  0.5596630000000  0.5043690000000  0.5373950000000 1.0
C      1  0.4931630000000  0.4659330000000  0.5388800000000 1.0
C      1  0.5161900000000  0.4742590000000  0.4963250000000 1.0
C      1  0.4763690000000  0.4969400000000  0.4967940000000 1.0
C      1  0.5120440000000  0.5230580000000  0.4983690000000 1.0
C      1  0.5319270000000  0.5558950000000  0.4696810000000 1.0
C      1  0.5377190000000  0.4395850000000  0.4727440000000 1.0
C      1  0.4418360000000  0.5088400000000  0.4660760000000 1.0
C      1  0.5319330000000  0.4980550000000  0.5366750000000 1.0
C      1  0.4633770000000  0.4693220000000  0.5451780000000 1.0
C      1  0.4807560000000  0.5318410000000  0.5392110000000 1.0
C      1  0.5720940000000  0.5465040000000  0.4880120000000 1.0
C      1  0.5098850000000  0.4136450000000  0.5042430000000 1.0
C      1  0.4211800000000  0.5423480000000  0.4919440000000 1.0
C      1  0.4658010000000  0.5407790000000  0.4972800000000 1.0
C      1  0.5502660000000  0.5074410000000  0.4921260000000 1.0
C      1  0.4737830000000  0.4486310000000  0.4903400000000 1.0
C      1  0.5105120000000  0.5178550000000  0.4672040000000 1.0
C      1  0.5066200000000  0.4704220000000  0.4667330000000 1.0
C      1  0.4894300000000  0.4953840000000  0.4664720000000 1.0
C      1  0.5039490000000  0.4383730000000  0.5374300000000 1.0
C      1  0.4305810000000  0.5337170000000  0.5321560000000 1.0
C      1  0.5677730000000  0.5303750000000  0.5273270000000 1.0
END
