TITL C-96412-7621-3 12.2982549810354 125000 -1339.51346124038 0 0 190 (C1) n - 1
REM
REM in /rds/project/t2_vol4/rds-t2-cs072/BORA/CARBON/from-Arr/AIRSS/Generating-Clusters/GAP-ML-2020/Higher-Symm/SD-CG/HFTN-CG/C160-200
REM
REM
REM
REM
REM
REM ./C.cell (6b4489405718ea1b717e0baf1da4c2d9)
REM AIRSS Version 0.9.1 bugfix July 2018 build 013d7b7c2542+ Fri, 06 Jul 2018 19:26:36 +0100
REM compiler GCC version 9.3.0
REM options -cpp -mtune=generic -march=x86-64 -g -O0
REM seed -995366225 -1500166650 -240044066 -168974742 -1746908900 1650530217 -805691286 510672707 1094539157 -1254468425 987890009 352586431 -1285328039 1828342809 846969914 -618301119 404012383 -894243249 2018982675 111179682 -259319355 1777776723 -1028024879 -1739037011 -401711004 1041642300 1251649288 1611659023 -1571081930 1573545880 -841111761 -811901066 193860242
REM
CELL 1.54180   50.00000   50.00000   50.00000   90.00000   90.00000   90.00000
LATT -1
SFAC C  
C      1  0.5687790000000  0.3954670000000  0.4709680000000 1.0
C      1  0.5651690000000  0.6086330000000  0.5310740000000 1.0
C      1  0.4343010000000  0.3938540000000  0.4677690000000 1.0
C      1  0.4310260000000  0.6065940000000  0.5289770000000 1.0
C      1  0.4318370000000  0.5553140000000  0.4439060000000 1.0
C      1  0.4306380000000  0.4439630000000  0.5546190000000 1.0
C      1  0.5686980000000  0.5572460000000  0.4460700000000 1.0
C      1  0.5700130000000  0.4467880000000  0.5571860000000 1.0
C      1  0.5152890000000  0.5618300000000  0.4181800000000 1.0
C      1  0.5143690000000  0.4400580000000  0.5832040000000 1.0
C      1  0.4860420000000  0.5614350000000  0.4176990000000 1.0
C      1  0.4850190000000  0.4395190000000  0.5824510000000 1.0
C      1  0.5582950000000  0.5972590000000  0.5070370000000 1.0
C      1  0.5622560000000  0.4050190000000  0.4959710000000 1.0
C      1  0.4390650000000  0.5954920000000  0.5051800000000 1.0
C      1  0.4408440000000  0.4032000000000  0.4932960000000 1.0
C      1  0.4111780000000  0.4990140000000  0.4436860000000 1.0
C      1  0.4090970000000  0.4992510000000  0.5539470000000 1.0
C      1  0.5909260000000  0.5014250000000  0.4466490000000 1.0
C      1  0.5895510000000  0.5021270000000  0.5569460000000 1.0
C      1  0.5136790000000  0.5559840000000  0.5493610000000 1.0
C      1  0.5169420000000  0.4435530000000  0.4512420000000 1.0
C      1  0.4834910000000  0.5555000000000  0.5488740000000 1.0
C      1  0.4865070000000  0.4432420000000  0.4505590000000 1.0
C      1  0.5996410000000  0.4715050000000  0.4436420000000 1.0
C      1  0.5967740000000  0.5322240000000  0.5597990000000 1.0
C      1  0.4032920000000  0.4690350000000  0.4404660000000 1.0
C      1  0.4008640000000  0.5291470000000  0.5566700000000 1.0
C      1  0.5253340000000  0.5007730000000  0.4799780000000 1.0
C      1  0.5246170000000  0.4986180000000  0.5215720000000 1.0
C      1  0.4756440000000  0.4999020000000  0.4792200000000 1.0
C      1  0.4751390000000  0.4978610000000  0.5208160000000 1.0
C      1  0.5324170000000  0.4948040000000  0.4007290000000 1.0
C      1  0.5291240000000  0.5069780000000  0.6015430000000 1.0
C      1  0.4714560000000  0.4940890000000  0.3995970000000 1.0
C      1  0.4678080000000  0.5059370000000  0.6004110000000 1.0
C      1  0.6078800000000  0.4891780000000  0.5088520000000 1.0
C      1  0.6075850000000  0.5151750000000  0.4946980000000 1.0
C      1  0.3927160000000  0.4858980000000  0.5054040000000 1.0
C      1  0.3926960000000  0.5119530000000  0.4912910000000 1.0
C      1  0.6032930000000  0.4835680000000  0.5381760000000 1.0
C      1  0.6032320000000  0.5207930000000  0.4654030000000 1.0
C      1  0.3966840000000  0.4802320000000  0.5348050000000 1.0
C      1  0.3977310000000  0.5178840000000  0.4621330000000 1.0
C      1  0.5938830000000  0.4593630000000  0.4688500000000 1.0
C      1  0.5909810000000  0.5437910000000  0.5343760000000 1.0
C      1  0.4087820000000  0.4568360000000  0.4657920000000 1.0
C      1  0.4071310000000  0.5409910000000  0.5314800000000 1.0
C      1  0.5703210000000  0.5812210000000  0.4863250000000 1.0
C      1  0.5727470000000  0.4218130000000  0.5166880000000 1.0
C      1  0.4282210000000  0.5791220000000  0.4841000000000 1.0
C      1  0.4289060000000  0.4191520000000  0.5141840000000 1.0
C      1  0.4774870000000  0.4710410000000  0.4408960000000 1.0
C      1  0.4749070000000  0.5277530000000  0.5588450000000 1.0
C      1  0.5255600000000  0.4715990000000  0.4418530000000 1.0
C      1  0.5227620000000  0.5284780000000  0.5595970000000 1.0
C      1  0.4715320000000  0.5873600000000  0.4612030000000 1.0
C      1  0.4704970000000  0.4115220000000  0.5393010000000 1.0
C      1  0.5275390000000  0.5881730000000  0.4621020000000 1.0
C      1  0.5304880000000  0.4186170000000  0.5395190000000 1.0
C      1  0.5169160000000  0.4249200000000  0.5133300000000 1.0
C      1  0.5150470000000  0.5727040000000  0.4876310000000 1.0
C      1  0.4848410000000  0.4244290000000  0.5121500000000 1.0
C      1  0.4836180000000  0.5722240000000  0.4871280000000 1.0
C      1  0.4383810000000  0.4456140000000  0.4594510000000 1.0
C      1  0.4363480000000  0.5523940000000  0.5386220000000 1.0
C      1  0.5645310000000  0.4470670000000  0.4617730000000 1.0
C      1  0.5611920000000  0.5543170000000  0.5405830000000 1.0
C      1  0.5599960000000  0.4944320000000  0.4083460000000 1.0
C      1  0.5570940000000  0.5082380000000  0.5949410000000 1.0
C      1  0.4436000000000  0.4930330000000  0.4062340000000 1.0
C      1  0.4401240000000  0.5061650000000  0.5927780000000 1.0
C      1  0.5565800000000  0.5792170000000  0.4615920000000 1.0
C      1  0.5582990000000  0.4251050000000  0.5412760000000 1.0
C      1  0.4427970000000  0.5775790000000  0.4598120000000 1.0
C      1  0.4421210000000  0.4219280000000  0.5393320000000 1.0
C      1  0.4801040000000  0.3846930000000  0.4743450000000 1.0
C      1  0.4829390000000  0.6104460000000  0.5201150000000 1.0
C      1  0.5214320000000  0.3846070000000  0.4775990000000 1.0
C      1  0.5135050000000  0.6109310000000  0.5206040000000 1.0
C      1  0.4878210000000  0.3864630000000  0.4470470000000 1.0
C      1  0.4834890000000  0.6142520000000  0.5495740000000 1.0
C      1  0.5165600000000  0.3867690000000  0.4491270000000 1.0
C      1  0.5118440000000  0.6147060000000  0.5500330000000 1.0
C      1  0.5143940000000  0.5833580000000  0.4370680000000 1.0
C      1  0.5144990000000  0.4203730000000  0.5620920000000 1.0
C      1  0.4856450000000  0.5829590000000  0.4366050000000 1.0
C      1  0.4859530000000  0.4194360000000  0.5622510000000 1.0
C      1  0.4728890000000  0.5731640000000  0.5733240000000 1.0
C      1  0.4772550000000  0.4265060000000  0.4245160000000 1.0
C      1  0.5229130000000  0.5739590000000  0.5741270000000 1.0
C      1  0.5272750000000  0.4269620000000  0.4261490000000 1.0
C      1  0.4368190000000  0.4930980000000  0.4586230000000 1.0
C      1  0.4353040000000  0.5047730000000  0.5400470000000 1.0
C      1  0.5650420000000  0.4948030000000  0.4607840000000 1.0
C      1  0.5636730000000  0.5068140000000  0.5419770000000 1.0
C      1  0.4837750000000  0.5589540000000  0.5958510000000 1.0
C      1  0.4886530000000  0.4416490000000  0.4031450000000 1.0
C      1  0.5117160000000  0.5594080000000  0.5962880000000 1.0
C      1  0.5166260000000  0.4418530000000  0.4039650000000 1.0
C      1  0.4667920000000  0.4368990000000  0.4735240000000 1.0
C      1  0.4644370000000  0.5606770000000  0.5253600000000 1.0
C      1  0.5359730000000  0.4376640000000  0.4747880000000 1.0
C      1  0.5333080000000  0.5617380000000  0.5264550000000 1.0
C      1  0.5582540000000  0.5388120000000  0.4263890000000 1.0
C      1  0.5576460000000  0.4640170000000  0.5767940000000 1.0
C      1  0.4434750000000  0.5372920000000  0.4244970000000 1.0
C      1  0.4415990000000  0.4618940000000  0.5745810000000 1.0
C      1  0.4252220000000  0.5704760000000  0.5589850000000 1.0
C      1  0.4277250000000  0.4280030000000  0.4383230000000 1.0
C      1  0.5710910000000  0.5727520000000  0.5612640000000 1.0
C      1  0.5761130000000  0.4297380000000  0.4411010000000 1.0
C      1  0.5306600000000  0.4615890000000  0.5889800000000 1.0
C      1  0.5319260000000  0.5403160000000  0.4134340000000 1.0
C      1  0.4680410000000  0.4605910000000  0.5877420000000 1.0
C      1  0.4701880000000  0.5394860000000  0.4124260000000 1.0
C      1  0.4167800000000  0.5518060000000  0.4867280000000 1.0
C      1  0.4170000000000  0.4462090000000  0.5109720000000 1.0
C      1  0.5824840000000  0.5542600000000  0.4893280000000 1.0
C      1  0.5844030000000  0.4489390000000  0.5138160000000 1.0
C      1  0.5537020000000  0.4941200000000  0.5170870000000 1.0
C      1  0.5541060000000  0.5067290000000  0.4854240000000 1.0
C      1  0.4463670000000  0.4924960000000  0.5154140000000 1.0
C      1  0.4465870000000  0.5051110000000  0.4836860000000 1.0
C      1  0.4092330000000  0.4547730000000  0.5376070000000 1.0
C      1  0.4099340000000  0.5437040000000  0.4598370000000 1.0
C      1  0.5913500000000  0.4578090000000  0.5406330000000 1.0
C      1  0.5903950000000  0.5462810000000  0.4626880000000 1.0
C      1  0.4004110000000  0.4613880000000  0.4917720000000 1.0
C      1  0.3995870000000  0.5364820000000  0.5052910000000 1.0
C      1  0.6012340000000  0.4644100000000  0.4950340000000 1.0
C      1  0.5995210000000  0.5394960000000  0.5084490000000 1.0
C      1  0.5882480000000  0.4526600000000  0.4252550000000 1.0
C      1  0.5840140000000  0.5508050000000  0.5776930000000 1.0
C      1  0.4156620000000  0.4507780000000  0.4222180000000 1.0
C      1  0.4124400000000  0.5480990000000  0.5749890000000 1.0
C      1  0.4333830000000  0.5308600000000  0.5806010000000 1.0
C      1  0.4368010000000  0.4680530000000  0.4177410000000 1.0
C      1  0.5633680000000  0.5330140000000  0.5827350000000 1.0
C      1  0.5670110000000  0.4696030000000  0.4202010000000 1.0
C      1  0.4835800000000  0.4822640000000  0.5997680000000 1.0
C      1  0.4864950000000  0.5181640000000  0.4009940000000 1.0
C      1  0.5140980000000  0.4827820000000  0.6003780000000 1.0
C      1  0.5166800000000  0.5185210000000  0.4015120000000 1.0
C      1  0.5592110000000  0.5983450000000  0.5562220000000 1.0
C      1  0.5640810000000  0.4041860000000  0.4452250000000 1.0
C      1  0.4364630000000  0.5964310000000  0.5542910000000 1.0
C      1  0.4400840000000  0.4026450000000  0.4423050000000 1.0
C      1  0.4855940000000  0.5023780000000  0.5470160000000 1.0
C      1  0.4871480000000  0.4962440000000  0.4534090000000 1.0
C      1  0.5132150000000  0.5028270000000  0.5474450000000 1.0
C      1  0.5147870000000  0.4966570000000  0.4538470000000 1.0
C      1  0.4901670000000  0.3694240000000  0.5163510000000 1.0
C      1  0.5123890000000  0.6150440000000  0.4718500000000 1.0
C      1  0.4773230000000  0.3820180000000  0.5340730000000 1.0
C      1  0.4855280000000  0.6146340000000  0.4714130000000 1.0
C      1  0.4638290000000  0.5987240000000  0.5642510000000 1.0
C      1  0.4678790000000  0.4009780000000  0.4318080000000 1.0
C      1  0.5314840000000  0.5997890000000  0.5653350000000 1.0
C      1  0.5367410000000  0.4016720000000  0.4345860000000 1.0
C      1  0.4698430000000  0.5456180000000  0.4984550000000 1.0
C      1  0.4709840000000  0.4515590000000  0.5008220000000 1.0
C      1  0.5292320000000  0.5465460000000  0.4994050000000 1.0
C      1  0.5307040000000  0.4526070000000  0.5012900000000 1.0
C      1  0.5297910000000  0.5882380000000  0.5113030000000 1.0
C      1  0.5331560000000  0.4098820000000  0.4901510000000 1.0
C      1  0.4676670000000  0.5872780000000  0.5103170000000 1.0
C      1  0.4694510000000  0.4096800000000  0.4881730000000 1.0
C      1  0.4488700000000  0.4701060000000  0.4453140000000 1.0
C      1  0.4465080000000  0.5282220000000  0.5534680000000 1.0
C      1  0.5539910000000  0.4713200000000  0.4473630000000 1.0
C      1  0.5512880000000  0.5298420000000  0.5551200000000 1.0
C      1  0.5173570000000  0.4716160000000  0.4111320000000 1.0
C      1  0.5135540000000  0.5293610000000  0.5900690000000 1.0
C      1  0.4868380000000  0.4713150000000  0.4104540000000 1.0
C      1  0.4830640000000  0.5288700000000  0.5895600000000 1.0
C      1  0.4280240000000  0.4866160000000  0.5764900000000 1.0
C      1  0.4305180000000  0.5122420000000  0.4220330000000 1.0
C      1  0.5704630000000  0.4890690000000  0.5792550000000 1.0
C      1  0.5719550000000  0.5140620000000  0.4244830000000 1.0
C      1  0.5141310000000  0.5210010000000  0.5003860000000 1.0
C      1  0.5148310000000  0.4777590000000  0.5004840000000 1.0
C      1  0.4856130000000  0.5205070000000  0.4999390000000 1.0
C      1  0.4862530000000  0.4772620000000  0.5002400000000 1.0
C      1  0.5540560000000  0.5360620000000  0.4884110000000 1.0
C      1  0.5547630000000  0.4647110000000  0.5134180000000 1.0
C      1  0.4457140000000  0.5344290000000  0.4866960000000 1.0
C      1  0.4462060000000  0.4630740000000  0.5118530000000 1.0
C      1  0.4991470000000  0.3712030000000  0.4903460000000 1.0
C      1  0.4984410000000  0.6219320000000  0.4962440000000 1.0
END
