TITL C-96495-2430-1 0.00190411544854163 125000 -29.7959809802502 0 0 5 (D(inf)h) n - 1
REM
REM in /rds/project/t2_vol4/rds-t2-cs072/BORA/CARBON/from-Arr/AIRSS/Generating-Clusters/GAP-ML-2020/Higher-Symm/SD-CG/HFTN-CG
REM
REM
REM
REM
REM
REM ./C.cell (b20cbc046b6831c77cfcea5457e17084)
REM AIRSS Version 0.9.1 bugfix July 2018 build 013d7b7c2542+ Fri, 06 Jul 2018 19:26:36 +0100
REM compiler GCC version 9.3.0
REM options -cpp -mtune=generic -march=x86-64 -g -O0
REM seed 1981250726 1342681648 554051277 -625837300 701188013 698500527 44650729 -529171431 -2093689585 -84034994 -1440821198 1434890251 -1416020490 -1991973983 -496319589 -1025077765 -36835374 2096621704 -2006784749 -886169505 -97571970 -651006228 -349410107 -1540567950 -1412613825 1322389428 1136379612 -89332575 718965900 -1006737990 -1392419935 1928754560 -1559619217
REM
CELL 1.54180   50.00000   50.00000   50.00000   90.00000   90.00000   90.00000
LATT -1
SFAC C  
C      1  0.4741540000000  0.4988470000000  0.5034860000000 1.0
C      1  0.5000000000000  0.4988470000000  0.5034860000000 1.0
C      1  0.5517070000000  0.4988470000000  0.5034860000000 1.0
C      1  0.4482930000000  0.4988470000000  0.5034860000000 1.0
C      1  0.5258460000000  0.4988470000000  0.5034860000000 1.0
END
