TITL C-96495-2430-5 0.00251609115986374 125000 -17.3694777740771 0 0 4 (C3v) n - 1
REM
REM in /rds/project/t2_vol4/rds-t2-cs072/BORA/CARBON/from-Arr/AIRSS/Generating-Clusters/GAP-ML-2020/Higher-Symm/SD-CG/HFTN-CG
REM
REM
REM
REM
REM
REM ./C.cell (b20cbc046b6831c77cfcea5457e17084)
REM AIRSS Version 0.9.1 bugfix July 2018 build 013d7b7c2542+ Fri, 06 Jul 2018 19:26:36 +0100
REM compiler GCC version 9.3.0
REM options -cpp -mtune=generic -march=x86-64 -g -O0
REM seed -438030135 -1335730941 -1417544227 -1629836055 -1718190136 -2022473158 -502249193 732037111 -1652188979 1024091134 -1775612713 -103719113 -3362977 -564950973 -1019930152 -1420560480 37790352 988787524 -1848559264 -907350260 -303228800 1384783403 -1199213897 -358054271 1349576988 1830124725 -1684004081 2145666029 1181873824 -624809253 -1310376882 1536757092 -1729328045
REM
CELL 1.54180   50.00000   50.00000   50.00000   90.00000   90.00000   90.00000
LATT -1
SFAC C  
C      1  0.5218920000000  0.5167390000000  0.4857750000000 1.0
C      1  0.5038990000000  0.5167380000000  0.5211320000000 1.0
C      1  0.4822760000000  0.5167420000000  0.4878710000000 1.0
C      1  0.5026880000000  0.5009500000000  0.4982580000000 1.0
END
