TITL C-96387-7638-1 -0.323836426328574 125000 -1208.37285366502 0 0 174 (C1) n - 1
REM
REM in /rds/project/t2_vol4/rds-t2-cs072/BORA/CARBON/from-Arr/AIRSS/Generating-Clusters/GAP-ML-2020/Higher-Symm/SD-CG/HFTN-CG/C160-200
REM
REM
REM
REM
REM
REM ./C.cell (6b4489405718ea1b717e0baf1da4c2d9)
REM AIRSS Version 0.9.1 bugfix July 2018 build 013d7b7c2542+ Fri, 06 Jul 2018 19:26:36 +0100
REM compiler GCC version 9.3.0
REM options -cpp -mtune=generic -march=x86-64 -g -O0
REM seed -879247604 1642589778 -763187320 -2132819385 -1179812822 860773285 246379296 -1469731184 -1757969239 1800720069 -885938461 -84501329 1217156128 -1620127202 1006111800 -648768707 -396109285 -298624493 -213765562 -1488949458 -1513219874 -1317142774 260020030 -1370342396 213499140 35200430 -1171717003 320402488 626606802 1069175706 1176032190 1442034151 -1206236115
REM
CELL 1.54180   50.00000   50.00000   50.00000   90.00000   90.00000   90.00000
LATT -1
SFAC C  
C      1  0.4138240000000  0.5270650000000  0.4728080000000 1.0
C      1  0.5615000000000  0.5655010000000  0.4764430000000 1.0
C      1  0.5280970000000  0.4106980000000  0.4796860000000 1.0
C      1  0.4896440000000  0.3920690000000  0.5409950000000 1.0
C      1  0.4119510000000  0.5631200000000  0.5396370000000 1.0
C      1  0.5982740000000  0.5448910000000  0.5388620000000 1.0
C      1  0.4369800000000  0.5581700000000  0.5787270000000 1.0
C      1  0.5824930000000  0.5240320000000  0.5781990000000 1.0
C      1  0.4784910000000  0.4170410000000  0.5785980000000 1.0
C      1  0.4491760000000  0.5974320000000  0.5161050000000 1.0
C      1  0.6088690000000  0.4966650000000  0.5137700000000 1.0
C      1  0.4424090000000  0.4072570000000  0.5130930000000 1.0
C      1  0.4923000000000  0.5699360000000  0.4323740000000 1.0
C      1  0.5597300000000  0.4703960000000  0.4313250000000 1.0
C      1  0.4612850000000  0.4651560000000  0.4431480000000 1.0
C      1  0.4634320000000  0.4168700000000  0.4345170000000 1.0
C      1  0.4407790000000  0.5691010000000  0.4342990000000 1.0
C      1  0.5846600000000  0.5115440000000  0.4283470000000 1.0
C      1  0.4114620000000  0.5641890000000  0.5114320000000 1.0
C      1  0.5975830000000  0.5450530000000  0.5103750000000 1.0
C      1  0.4909940000000  0.3909800000000  0.5129140000000 1.0
C      1  0.4543620000000  0.5829480000000  0.4545930000000 1.0
C      1  0.5924690000000  0.4963170000000  0.4510770000000 1.0
C      1  0.4518310000000  0.4247850000000  0.4591440000000 1.0
C      1  0.5444460000000  0.5621520000000  0.4278570000000 1.0
C      1  0.5351190000000  0.4231050000000  0.4317260000000 1.0
C      1  0.4221910000000  0.5096040000000  0.4286550000000 1.0
C      1  0.5631570000000  0.5702750000000  0.5277090000000 1.0
C      1  0.5303770000000  0.4093510000000  0.5300130000000 1.0
C      1  0.4073000000000  0.5204290000000  0.5253860000000 1.0
C      1  0.4414030000000  0.5044040000000  0.4060500000000 1.0
C      1  0.5300240000000  0.5471980000000  0.4051390000000 1.0
C      1  0.5266050000000  0.4402340000000  0.4052430000000 1.0
C      1  0.6010150000000  0.4274970000000  0.5386470000000 1.0
C      1  0.3863180000000  0.4502950000000  0.5340550000000 1.0
C      1  0.5143510000000  0.6231340000000  0.5382970000000 1.0
C      1  0.5070140000000  0.4285500000000  0.4390050000000 1.0
C      1  0.4427230000000  0.5283050000000  0.4394450000000 1.0
C      1  0.5488430000000  0.5347620000000  0.4381300000000 1.0
C      1  0.5984320000000  0.4505240000000  0.4887230000000 1.0
C      1  0.4086560000000  0.4413650000000  0.4854160000000 1.0
C      1  0.4946800000000  0.6097840000000  0.4898540000000 1.0
C      1  0.5456420000000  0.4465240000000  0.5010250000000 1.0
C      1  0.4318000000000  0.4881710000000  0.4985880000000 1.0
C      1  0.5231430000000  0.5654690000000  0.5015890000000 1.0
C      1  0.4638360000000  0.4312340000000  0.5969000000000 1.0
C      1  0.4568600000000  0.5623120000000  0.5970960000000 1.0
C      1  0.5765270000000  0.5048240000000  0.5968030000000 1.0
C      1  0.4676230000000  0.4022250000000  0.5556650000000 1.0
C      1  0.4307470000000  0.5759960000000  0.5563920000000 1.0
C      1  0.6010300000000  0.5221290000000  0.5553610000000 1.0
C      1  0.4359610000000  0.4400950000000  0.5441850000000 1.0
C      1  0.4801580000000  0.5849700000000  0.5485210000000 1.0
C      1  0.5834280000000  0.4754900000000  0.5468730000000 1.0
C      1  0.4990270000000  0.6048070000000  0.4623610000000 1.0
C      1  0.5906940000000  0.4479360000000  0.4613810000000 1.0
C      1  0.4144090000000  0.4522320000000  0.4596500000000 1.0
C      1  0.5567010000000  0.5198590000000  0.4915050000000 1.0
C      1  0.4913260000000  0.4399870000000  0.4934150000000 1.0
C      1  0.4537560000000  0.5396440000000  0.4959670000000 1.0
C      1  0.4596200000000  0.5126580000000  0.4581010000000 1.0
C      1  0.5261440000000  0.5312550000000  0.4569440000000 1.0
C      1  0.5137360000000  0.4562360000000  0.4548580000000 1.0
C      1  0.4869990000000  0.5114100000000  0.5064890000000 1.0
C      1  0.5163980000000  0.5053530000000  0.5056750000000 1.0
C      1  0.4966290000000  0.4837350000000  0.5065750000000 1.0
C      1  0.5130820000000  0.4043810000000  0.5515690000000 1.0
C      1  0.4101600000000  0.5362990000000  0.5485270000000 1.0
C      1  0.5762820000000  0.5591080000000  0.5496860000000 1.0
C      1  0.5380700000000  0.4966940000000  0.4866780000000 1.0
C      1  0.4810620000000  0.4680040000000  0.4867180000000 1.0
C      1  0.4829190000000  0.5360260000000  0.4895600000000 1.0
C      1  0.4904670000000  0.5252270000000  0.5852320000000 1.0
C      1  0.5278130000000  0.4938600000000  0.5886010000000 1.0
C      1  0.4802290000000  0.4779500000000  0.5847590000000 1.0
C      1  0.4892510000000  0.4973170000000  0.4159960000000 1.0
C      1  0.4871960000000  0.5260410000000  0.4131610000000 1.0
C      1  0.5193990000000  0.4912550000000  0.4139430000000 1.0
C      1  0.4060390000000  0.5372910000000  0.5012660000000 1.0
C      1  0.5765340000000  0.5640430000000  0.5025860000000 1.0
C      1  0.5185080000000  0.3997390000000  0.5052120000000 1.0
C      1  0.5072540000000  0.5403490000000  0.5409760000000 1.0
C      1  0.5311070000000  0.4748320000000  0.5413500000000 1.0
C      1  0.4597230000000  0.4852940000000  0.5389780000000 1.0
C      1  0.4509460000000  0.5904760000000  0.5438530000000 1.0
C      1  0.6028220000000  0.4980780000000  0.5417830000000 1.0
C      1  0.4460280000000  0.4123510000000  0.5410350000000 1.0
C      1  0.5487520000000  0.4145690000000  0.4557250000000 1.0
C      1  0.4056310000000  0.5039680000000  0.4514820000000 1.0
C      1  0.5469220000000  0.5800250000000  0.4526070000000 1.0
C      1  0.6001440000000  0.4548360000000  0.5341160000000 1.0
C      1  0.4103470000000  0.4370580000000  0.5301350000000 1.0
C      1  0.4905940000000  0.6091730000000  0.5351370000000 1.0
C      1  0.5744200000000  0.4317460000000  0.4957090000000 1.0
C      1  0.4042620000000  0.4721510000000  0.4917490000000 1.0
C      1  0.5225910000000  0.5969460000000  0.4950200000000 1.0
C      1  0.5728430000000  0.4248970000000  0.4662200000000 1.0
C      1  0.4008950000000  0.4780650000000  0.4621960000000 1.0
C      1  0.5279110000000  0.5977660000000  0.4647130000000 1.0
C      1  0.4380310000000  0.4589150000000  0.5669150000000 1.0
C      1  0.4952810000000  0.5724790000000  0.5705830000000 1.0
C      1  0.5655310000000  0.4677560000000  0.5695510000000 1.0
C      1  0.5027680000000  0.5471850000000  0.3984350000000 1.0
C      1  0.5329960000000  0.4671780000000  0.3978650000000 1.0
C      1  0.4608010000000  0.4844940000000  0.4019790000000 1.0
C      1  0.4678110000000  0.5048120000000  0.5896160000000 1.0
C      1  0.5199600000000  0.5231170000000  0.5917460000000 1.0
C      1  0.5097230000000  0.4707300000000  0.5905920000000 1.0
C      1  0.3956920000000  0.4722990000000  0.5205740000000 1.0
C      1  0.5277190000000  0.6037600000000  0.5243180000000 1.0
C      1  0.5774090000000  0.4247010000000  0.5248340000000 1.0
C      1  0.4873530000000  0.4701470000000  0.4590140000000 1.0
C      1  0.4819690000000  0.5300270000000  0.4626220000000 1.0
C      1  0.5294570000000  0.5005580000000  0.4604710000000 1.0
C      1  0.5010620000000  0.4680870000000  0.5322080000000 1.0
C      1  0.4713080000000  0.5143400000000  0.5313320000000 1.0
C      1  0.5289740000000  0.5191210000000  0.5293540000000 1.0
C      1  0.4518010000000  0.4657350000000  0.4937860000000 1.0
C      1  0.4955300000000  0.5584880000000  0.5024890000000 1.0
C      1  0.5519530000000  0.4743850000000  0.5000320000000 1.0
C      1  0.4817600000000  0.5545200000000  0.5877630000000 1.0
C      1  0.5573660000000  0.4868320000000  0.5889230000000 1.0
C      1  0.4586760000000  0.4561180000000  0.5862200000000 1.0
C      1  0.5238100000000  0.5010980000000  0.5539540000000 1.0
C      1  0.4848730000000  0.4821770000000  0.5542980000000 1.0
C      1  0.4944680000000  0.5146750000000  0.5550340000000 1.0
C      1  0.5583040000000  0.4844530000000  0.5260960000000 1.0
C      1  0.4565540000000  0.4571750000000  0.5227900000000 1.0
C      1  0.4842880000000  0.5580750000000  0.5288120000000 1.0
C      1  0.4760210000000  0.4923090000000  0.4446390000000 1.0
C      1  0.4991270000000  0.5401550000000  0.4431050000000 1.0
C      1  0.5310800000000  0.4787650000000  0.4416940000000 1.0
C      1  0.4848480000000  0.4451050000000  0.5226130000000 1.0
C      1  0.4597380000000  0.5407990000000  0.5257520000000 1.0
C      1  0.5568670000000  0.5147170000000  0.5216480000000 1.0
C      1  0.5070230000000  0.4216460000000  0.5736710000000 1.0
C      1  0.4267390000000  0.5317990000000  0.5717360000000 1.0
C      1  0.5642080000000  0.5458850000000  0.5725330000000 1.0
C      1  0.6033830000000  0.5201800000000  0.4969140000000 1.0
C      1  0.4665870000000  0.3984500000000  0.4992410000000 1.0
C      1  0.4308060000000  0.5818900000000  0.4995970000000 1.0
C      1  0.4433440000000  0.4520830000000  0.4630040000000 1.0
C      1  0.4804750000000  0.5905630000000  0.4473340000000 1.0
C      1  0.5846000000000  0.4699560000000  0.4453450000000 1.0
C      1  0.5764390000000  0.5311610000000  0.4473790000000 1.0
C      1  0.4866140000000  0.4103320000000  0.4499760000000 1.0
C      1  0.4281910000000  0.5496380000000  0.4552590000000 1.0
C      1  0.4574840000000  0.5313770000000  0.4126520000000 1.0
C      1  0.5401220000000  0.5177060000000  0.4120330000000 1.0
C      1  0.4992620000000  0.4318150000000  0.4102530000000 1.0
C      1  0.4399020000000  0.5140390000000  0.4830350000000 1.0
C      1  0.5402440000000  0.5458430000000  0.4827160000000 1.0
C      1  0.5208890000000  0.4397640000000  0.4830100000000 1.0
C      1  0.4563900000000  0.5600530000000  0.4111910000000 1.0
C      1  0.5648860000000  0.5027890000000  0.4088840000000 1.0
C      1  0.4703520000000  0.4328810000000  0.4110920000000 1.0
C      1  0.5597340000000  0.4756730000000  0.4034770000000 1.0
C      1  0.4597330000000  0.4589060000000  0.4140960000000 1.0
C      1  0.4836520000000  0.5681030000000  0.4059470000000 1.0
C      1  0.5426310000000  0.4524100000000  0.5581930000000 1.0
C      1  0.4353670000000  0.4866030000000  0.5558300000000 1.0
C      1  0.5203570000000  0.5605100000000  0.5586650000000 1.0
C      1  0.5205980000000  0.4462600000000  0.5781760000000 1.0
C      1  0.4416380000000  0.5078350000000  0.5763420000000 1.0
C      1  0.5362060000000  0.5446990000000  0.5784280000000 1.0
C      1  0.4193720000000  0.4239880000000  0.5050460000000 1.0
C      1  0.4750520000000  0.6097780000000  0.5102940000000 1.0
C      1  0.6078040000000  0.4679420000000  0.5087570000000 1.0
C      1  0.4743660000000  0.4160920000000  0.4775740000000 1.0
C      1  0.4423910000000  0.5664040000000  0.4774990000000 1.0
C      1  0.5844830000000  0.5169940000000  0.4740470000000 1.0
C      1  0.5345900000000  0.5750030000000  0.5311860000000 1.0
C      1  0.5484800000000  0.4324190000000  0.5319700000000 1.0
C      1  0.4170480000000  0.4926990000000  0.5279520000000 1.0
END
