TITL C-96519-2351-4 0.017120385701546 125000 -219.814952369954 0 0 33 (C2) n - 1
REM
REM in /rds/project/t2_vol4/rds-t2-cs072/BORA/CARBON/from-Arr/AIRSS/Generating-Clusters/GAP-ML-2020/Higher-Symm/SD-CG/HFTN-CG
REM
REM
REM
REM
REM
REM ./C.cell (b20cbc046b6831c77cfcea5457e17084)
REM AIRSS Version 0.9.1 bugfix July 2018 build 013d7b7c2542+ Fri, 06 Jul 2018 19:26:36 +0100
REM compiler GCC version 9.3.0
REM options -cpp -mtune=generic -march=x86-64 -g -O0
REM seed 1625214566 -1470806186 404175580 1978536982 -1560974936 -1166132151 1920110968 -1440798792 735377792 1291814757 1524087923 -617647993 -883090227 1135397328 1201381232 1361391606 1954147940 1794715270 -451145053 -1812156260 37390125 22363544 1577066402 -280513994 139506280 801824914 -1644993441 -1327399347 484857955 112089246 1073810261 -784334844 -1581861408
REM
CELL 1.54180   50.00000   50.00000   50.00000   90.00000   90.00000   90.00000
LATT -1
SFAC C  
C      1  0.5312610000000  0.5305560000000  0.4529540000000 1.0
C      1  0.4683850000000  0.4724640000000  0.4516580000000 1.0
C      1  0.4985200000000  0.4620660000000  0.5444030000000 1.0
C      1  0.4983850000000  0.5397990000000  0.5448870000000 1.0
C      1  0.5382670000000  0.5194860000000  0.5257870000000 1.0
C      1  0.4592180000000  0.4826240000000  0.5243840000000 1.0
C      1  0.5244770000000  0.5049210000000  0.4397550000000 1.0
C      1  0.4755520000000  0.4982610000000  0.4389870000000 1.0
C      1  0.5022330000000  0.5390120000000  0.4964780000000 1.0
C      1  0.4961100000000  0.4634590000000  0.4959150000000 1.0
C      1  0.4751040000000  0.4775730000000  0.5479420000000 1.0
C      1  0.5216890000000  0.5242450000000  0.5489250000000 1.0
C      1  0.5518300000000  0.4949130000000  0.5246160000000 1.0
C      1  0.4456920000000  0.5072120000000  0.5231180000000 1.0
C      1  0.4834410000000  0.5007360000000  0.5636520000000 1.0
C      1  0.5128940000000  0.5008880000000  0.5640900000000 1.0
C      1  0.4882810000000  0.5114010000000  0.4606000000000 1.0
C      1  0.5111150000000  0.4915140000000  0.4608150000000 1.0
C      1  0.5046730000000  0.4648170000000  0.4682880000000 1.0
C      1  0.4944940000000  0.5380010000000  0.4685940000000 1.0
C      1  0.4880040000000  0.4525010000000  0.4499970000000 1.0
C      1  0.5116960000000  0.5505410000000  0.4509610000000 1.0
C      1  0.5360390000000  0.4737370000000  0.5302320000000 1.0
C      1  0.4613050000000  0.5283130000000  0.5294640000000 1.0
C      1  0.5302890000000  0.5321990000000  0.5005740000000 1.0
C      1  0.4679430000000  0.4702250000000  0.4992610000000 1.0
C      1  0.4542990000000  0.4720070000000  0.4752050000000 1.0
C      1  0.5446420000000  0.5307160000000  0.4769130000000 1.0
C      1  0.5115880000000  0.4602250000000  0.5186880000000 1.0
C      1  0.4860860000000  0.5419640000000  0.5188200000000 1.0
C      1  0.5215850000000  0.4756210000000  0.5558510000000 1.0
C      1  0.4749930000000  0.5261070000000  0.5554750000000 1.0
C      1  0.5002220000000  0.5016780000000  0.4254220000000 1.0
END
