TITL C-96412-7621-1 -39.347686981045 125000 -1329.69658603788 0 0 191 (C1) n - 1
REM
REM in /rds/project/t2_vol4/rds-t2-cs072/BORA/CARBON/from-Arr/AIRSS/Generating-Clusters/GAP-ML-2020/Higher-Symm/SD-CG/HFTN-CG/C160-200
REM
REM
REM
REM
REM
REM ./C.cell (6b4489405718ea1b717e0baf1da4c2d9)
REM AIRSS Version 0.9.1 bugfix July 2018 build 013d7b7c2542+ Fri, 06 Jul 2018 19:26:36 +0100
REM compiler GCC version 9.3.0
REM options -cpp -mtune=generic -march=x86-64 -g -O0
REM seed 71680816 708712093 -1152212088 991080455 -1955203046 1038885131 -760294496 -285347665 1663444092 166516863 1353376381 1393511029 804883153 -970645163 -222706867 50885420 -157544465 -724922833 952449891 -991186948 434512161 296718669 -124273050 369550403 2105894035 -1544545322 -1210174861 -1071914633 164707106 -2112120533 -614750298 -317080278 -1600061386
REM
CELL 1.54180   50.00000   50.00000   50.00000   90.00000   90.00000   90.00000
LATT -1
SFAC C  
C      1  0.5071080000000  0.4854850000000  0.6242040000000 1.0
C      1  0.4923540000000  0.4859580000000  0.3761970000000 1.0
C      1  0.5070190000000  0.5136910000000  0.6240030000000 1.0
C      1  0.4924890000000  0.5141460000000  0.3760330000000 1.0
C      1  0.4217910000000  0.4429200000000  0.4355660000000 1.0
C      1  0.5778800000000  0.4451020000000  0.5638920000000 1.0
C      1  0.4220710000000  0.5549220000000  0.4349710000000 1.0
C      1  0.5779320000000  0.5576570000000  0.5649510000000 1.0
C      1  0.5377360000000  0.4698630000000  0.4063430000000 1.0
C      1  0.4610520000000  0.4674790000000  0.5957770000000 1.0
C      1  0.5386890000000  0.5310810000000  0.4046960000000 1.0
C      1  0.4617560000000  0.5294980000000  0.5932940000000 1.0
C      1  0.4559860000000  0.4236250000000  0.5659560000000 1.0
C      1  0.5425220000000  0.4264750000000  0.4351820000000 1.0
C      1  0.4568150000000  0.5754130000000  0.5660030000000 1.0
C      1  0.5443670000000  0.5749670000000  0.4340760000000 1.0
C      1  0.4860740000000  0.3948810000000  0.5279340000000 1.0
C      1  0.5136440000000  0.3960730000000  0.4731370000000 1.0
C      1  0.4850120000000  0.6043820000000  0.5255870000000 1.0
C      1  0.5137350000000  0.6042030000000  0.4713090000000 1.0
C      1  0.4709970000000  0.6062790000000  0.4999230000000 1.0
C      1  0.5271600000000  0.6032690000000  0.4964910000000 1.0
C      1  0.4719370000000  0.3954650000000  0.5029230000000 1.0
C      1  0.5277120000000  0.3955540000000  0.4982070000000 1.0
C      1  0.4654080000000  0.5914920000000  0.4562700000000 1.0
C      1  0.5338640000000  0.5906080000000  0.5404560000000 1.0
C      1  0.4653750000000  0.4095970000000  0.4591440000000 1.0
C      1  0.5349450000000  0.4086780000000  0.5418970000000 1.0
C      1  0.4907830000000  0.5561360000000  0.4891190000000 1.0
C      1  0.5096600000000  0.5476290000000  0.5102090000000 1.0
C      1  0.4891990000000  0.4474860000000  0.4902370000000 1.0
C      1  0.5096570000000  0.4477630000000  0.5098870000000 1.0
C      1  0.4158870000000  0.5130230000000  0.5674990000000 1.0
C      1  0.5844300000000  0.5142250000000  0.4324670000000 1.0
C      1  0.4148240000000  0.4850970000000  0.5679030000000 1.0
C      1  0.5837450000000  0.4864740000000  0.4328480000000 1.0
C      1  0.6033270000000  0.5531010000000  0.5064640000000 1.0
C      1  0.3982770000000  0.5539740000000  0.4946840000000 1.0
C      1  0.6017210000000  0.4472610000000  0.5043580000000 1.0
C      1  0.3963660000000  0.4475780000000  0.4938650000000 1.0
C      1  0.4190520000000  0.4228000000000  0.4571650000000 1.0
C      1  0.5812290000000  0.4253010000000  0.5429240000000 1.0
C      1  0.4180480000000  0.5757990000000  0.4543100000000 1.0
C      1  0.5803000000000  0.5775730000000  0.5429960000000 1.0
C      1  0.5854810000000  0.5276090000000  0.5056540000000 1.0
C      1  0.4166010000000  0.5298640000000  0.4977190000000 1.0
C      1  0.5829220000000  0.4722110000000  0.5036310000000 1.0
C      1  0.4148440000000  0.4729410000000  0.4950600000000 1.0
C      1  0.5304220000000  0.4689400000000  0.5076920000000 1.0
C      1  0.4664200000000  0.4666460000000  0.4918630000000 1.0
C      1  0.5342640000000  0.5303190000000  0.5075670000000 1.0
C      1  0.4683820000000  0.5366890000000  0.4921030000000 1.0
C      1  0.5106240000000  0.4209990000000  0.5786430000000 1.0
C      1  0.4884340000000  0.4226890000000  0.4225330000000 1.0
C      1  0.5104750000000  0.5777070000000  0.5784260000000 1.0
C      1  0.4899920000000  0.5786610000000  0.4209880000000 1.0
C      1  0.4632390000000  0.4689280000000  0.4098910000000 1.0
C      1  0.5356110000000  0.4681380000000  0.5905770000000 1.0
C      1  0.4644330000000  0.5313350000000  0.4099710000000 1.0
C      1  0.5364160000000  0.5314930000000  0.5908660000000 1.0
C      1  0.5042210000000  0.5541200000000  0.5382320000000 1.0
C      1  0.4989730000000  0.5546970000000  0.4627280000000 1.0
C      1  0.5031220000000  0.4445770000000  0.5367860000000 1.0
C      1  0.4966270000000  0.4471590000000  0.4635190000000 1.0
C      1  0.5334400000000  0.5144070000000  0.5348510000000 1.0
C      1  0.4681110000000  0.5169010000000  0.4670520000000 1.0
C      1  0.5317760000000  0.4842790000000  0.5347570000000 1.0
C      1  0.4662310000000  0.4861410000000  0.4662010000000 1.0
C      1  0.4962490000000  0.5564680000000  0.5888800000000 1.0
C      1  0.5042990000000  0.5575170000000  0.4102920000000 1.0
C      1  0.4959120000000  0.4417370000000  0.5896770000000 1.0
C      1  0.5026650000000  0.4435860000000  0.4113730000000 1.0
C      1  0.5530410000000  0.4089030000000  0.5013840000000 1.0
C      1  0.4460100000000  0.4076310000000  0.4995610000000 1.0
C      1  0.5528920000000  0.5909540000000  0.5001610000000 1.0
C      1  0.4436720000000  0.5973790000000  0.4943430000000 1.0
C      1  0.5128530000000  0.5157340000000  0.3987140000000 1.0
C      1  0.4868620000000  0.5145640000000  0.6010250000000 1.0
C      1  0.5125070000000  0.4850430000000  0.3991380000000 1.0
C      1  0.4868290000000  0.4836450000000  0.6015460000000 1.0
C      1  0.5449100000000  0.5275010000000  0.4510620000000 1.0
C      1  0.4577040000000  0.5181380000000  0.5458180000000 1.0
C      1  0.5428280000000  0.4762540000000  0.4542230000000 1.0
C      1  0.4549770000000  0.4697470000000  0.5497240000000 1.0
C      1  0.4320130000000  0.5760430000000  0.5078100000000 1.0
C      1  0.5625920000000  0.5669180000000  0.4854470000000 1.0
C      1  0.4366390000000  0.4319680000000  0.5145590000000 1.0
C      1  0.5611760000000  0.4328980000000  0.4858770000000 1.0
C      1  0.5250980000000  0.5972020000000  0.4444270000000 1.0
C      1  0.4753160000000  0.5958620000000  0.5532190000000 1.0
C      1  0.5237430000000  0.4040470000000  0.4461360000000 1.0
C      1  0.4751770000000  0.4019410000000  0.5552330000000 1.0
C      1  0.5708830000000  0.4339440000000  0.4397880000000 1.0
C      1  0.4254550000000  0.4308260000000  0.5607990000000 1.0
C      1  0.5737130000000  0.5684120000000  0.4394830000000 1.0
C      1  0.4361880000000  0.5620920000000  0.5527660000000 1.0
C      1  0.5274610000000  0.5661360000000  0.5569930000000 1.0
C      1  0.4733470000000  0.5669820000000  0.4422630000000 1.0
C      1  0.5271070000000  0.4329370000000  0.5572550000000 1.0
C      1  0.4725810000000  0.4348730000000  0.4443180000000 1.0
C      1  0.4041110000000  0.5141580000000  0.5201540000000 1.0
C      1  0.5959130000000  0.5140150000000  0.4808870000000 1.0
C      1  0.4042030000000  0.4865520000000  0.5196720000000 1.0
C      1  0.5951190000000  0.4864630000000  0.4803560000000 1.0
C      1  0.4854710000000  0.4680950000000  0.5410140000000 1.0
C      1  0.5128470000000  0.4729850000000  0.4618680000000 1.0
C      1  0.4858930000000  0.5288350000000  0.5404510000000 1.0
C      1  0.5154250000000  0.5294770000000  0.4602570000000 1.0
C      1  0.6024200000000  0.4412400000000  0.5310710000000 1.0
C      1  0.3963920000000  0.4388380000000  0.4674650000000 1.0
C      1  0.6032230000000  0.5618940000000  0.5328800000000 1.0
C      1  0.3976220000000  0.5597080000000  0.4675190000000 1.0
C      1  0.5501920000000  0.4541470000000  0.5680190000000 1.0
C      1  0.4484290000000  0.4558110000000  0.4331110000000 1.0
C      1  0.5512410000000  0.5450290000000  0.5679440000000 1.0
C      1  0.4499390000000  0.5459160000000  0.4321990000000 1.0
C      1  0.5062300000000  0.4839930000000  0.5548100000000 1.0
C      1  0.4919190000000  0.4856770000000  0.4458900000000 1.0
C      1  0.5075040000000  0.5148960000000  0.5547430000000 1.0
C      1  0.4933870000000  0.5161200000000  0.4460830000000 1.0
C      1  0.4034590000000  0.4720130000000  0.5450070000000 1.0
C      1  0.5955770000000  0.4727260000000  0.4550660000000 1.0
C      1  0.4040240000000  0.5279950000000  0.5454050000000 1.0
C      1  0.5960690000000  0.5278540000000  0.4553260000000 1.0
C      1  0.6041600000000  0.5151120000000  0.5530570000000 1.0
C      1  0.3898820000000  0.5113970000000  0.4409940000000 1.0
C      1  0.6098320000000  0.4890470000000  0.5588120000000 1.0
C      1  0.3959960000000  0.4857140000000  0.4478200000000 1.0
C      1  0.5288720000000  0.5127870000000  0.4842320000000 1.0
C      1  0.4880890000000  0.5248380000000  0.5113010000000 1.0
C      1  0.5154580000000  0.4878740000000  0.4892250000000 1.0
C      1  0.4746920000000  0.4823190000000  0.5151790000000 1.0
C      1  0.4189880000000  0.4880100000000  0.4678610000000 1.0
C      1  0.5787070000000  0.4830290000000  0.5320350000000 1.0
C      1  0.4215190000000  0.5185770000000  0.4695340000000 1.0
C      1  0.5810440000000  0.5133140000000  0.5334170000000 1.0
C      1  0.4103990000000  0.5560790000000  0.5419880000000 1.0
C      1  0.5937140000000  0.5562930000000  0.4564620000000 1.0
C      1  0.4059150000000  0.4435730000000  0.5436970000000 1.0
C      1  0.5921050000000  0.4443060000000  0.4560170000000 1.0
C      1  0.5081970000000  0.5285170000000  0.5827370000000 1.0
C      1  0.4927480000000  0.5297120000000  0.4175720000000 1.0
C      1  0.5071940000000  0.4700870000000  0.5827110000000 1.0
C      1  0.4914780000000  0.4715330000000  0.4178320000000 1.0
C      1  0.4681490000000  0.4408640000000  0.5876300000000 1.0
C      1  0.5302730000000  0.4434280000000  0.4139030000000 1.0
C      1  0.4687010000000  0.5564070000000  0.5856810000000 1.0
C      1  0.5319830000000  0.5577780000000  0.4125630000000 1.0
C      1  0.5593980000000  0.5900680000000  0.5282630000000 1.0
C      1  0.4391690000000  0.5919590000000  0.4664880000000 1.0
C      1  0.5601760000000  0.4107140000000  0.5292320000000 1.0
C      1  0.4397780000000  0.4095790000000  0.4714010000000 1.0
C      1  0.4453350000000  0.4413260000000  0.5431680000000 1.0
C      1  0.5527070000000  0.4457340000000  0.4591570000000 1.0
C      1  0.4475170000000  0.5428530000000  0.5347440000000 1.0
C      1  0.5544350000000  0.5565350000000  0.4572760000000 1.0
C      1  0.4432060000000  0.4776070000000  0.4526180000000 1.0
C      1  0.5544400000000  0.4750690000000  0.5478960000000 1.0
C      1  0.4456850000000  0.5265650000000  0.4539430000000 1.0
C      1  0.5565130000000  0.5237830000000  0.5482180000000 1.0
C      1  0.4637150000000  0.5151490000000  0.3875460000000 1.0
C      1  0.5361370000000  0.5147130000000  0.6126680000000 1.0
C      1  0.4633280000000  0.4852410000000  0.3876940000000 1.0
C      1  0.5360100000000  0.4847210000000  0.6126490000000 1.0
C      1  0.3977260000000  0.4575580000000  0.4445020000000 1.0
C      1  0.5983910000000  0.4652050000000  0.5505760000000 1.0
C      1  0.4018240000000  0.5350320000000  0.4494900000000 1.0
C      1  0.6021510000000  0.5432260000000  0.5560730000000 1.0
C      1  0.4458510000000  0.5129460000000  0.5743060000000 1.0
C      1  0.5549490000000  0.5164810000000  0.4243330000000 1.0
C      1  0.4442360000000  0.4815210000000  0.5763830000000 1.0
C      1  0.5539470000000  0.4848760000000  0.4257750000000 1.0
C      1  0.4848360000000  0.3967510000000  0.4766210000000 1.0
C      1  0.5151050000000  0.3957510000000  0.5245400000000 1.0
C      1  0.4846930000000  0.6043310000000  0.4742640000000 1.0
C      1  0.5140070000000  0.6027110000000  0.5224210000000 1.0
C      1  0.5595860000000  0.5427570000000  0.5027530000000 1.0
C      1  0.4430700000000  0.5459460000000  0.5062530000000 1.0
C      1  0.5564570000000  0.4587060000000  0.4994870000000 1.0
C      1  0.4401480000000  0.4565260000000  0.4976870000000 1.0
C      1  0.5933170000000  0.5660070000000  0.4830270000000 1.0
C      1  0.4059270000000  0.5692350000000  0.5174980000000 1.0
C      1  0.5919160000000  0.4335620000000  0.4821870000000 1.0
C      1  0.4061220000000  0.4339890000000  0.5170850000000 1.0
C      1  0.5048580000000  0.6006000000000  0.4265620000000 1.0
C      1  0.4960920000000  0.5991460000000  0.5703360000000 1.0
C      1  0.5031660000000  0.4007470000000  0.4287160000000 1.0
C      1  0.4961300000000  0.3990910000000  0.5722800000000 1.0
C      1  0.5502700000000  0.5029560000000  0.4679320000000 1.0
C      1  0.4529170000000  0.4930510000000  0.5313890000000 1.0
C      1  0.4944740000000  0.4987130000000  0.5052740000000 1.0
END
