TITL C-96493-2437-3 -0.106712415934871 125000 -203.079407502497 0 0 31 (S4) n - 1
REM
REM in /rds/project/t2_vol4/rds-t2-cs072/BORA/CARBON/from-Arr/AIRSS/Generating-Clusters/GAP-ML-2020/Higher-Symm/SD-CG/HFTN-CG
REM
REM
REM
REM
REM
REM ./C.cell (b20cbc046b6831c77cfcea5457e17084)
REM AIRSS Version 0.9.1 bugfix July 2018 build 013d7b7c2542+ Fri, 06 Jul 2018 19:26:36 +0100
REM compiler GCC version 9.3.0
REM options -cpp -mtune=generic -march=x86-64 -g -O0
REM seed 916193135 -2120351461 1299107046 1494717320 -238219870 249043629 1683107356 -1159362780 311123963 97980175 -1931149182 -1219688896 -267701330 -1978762297 -1362781013 -1949329466 -587673486 -1439787029 -302125175 128953310 1445769357 -996865435 1089426139 -390788686 -1015815914 -1614917170 1170314237 -1919274407 2097457615 2051607612 1176038070 -509524689 -276309868
REM
CELL 1.54180   50.00000   50.00000   50.00000   90.00000   90.00000   90.00000
LATT -1
SFAC C  
C      1  0.5405160000000  0.5350440000000  0.4673710000000 1.0
C      1  0.4594090000000  0.4638350000000  0.4650790000000 1.0
C      1  0.5404510000000  0.4618790000000  0.5363730000000 1.0
C      1  0.4591130000000  0.5328370000000  0.5382430000000 1.0
C      1  0.5175700000000  0.4993570000000  0.4785370000000 1.0
C      1  0.4822720000000  0.4750960000000  0.5007890000000 1.0
C      1  0.5174520000000  0.4974950000000  0.5250870000000 1.0
C      1  0.4821950000000  0.5216470000000  0.5026520000000 1.0
C      1  0.4868680000000  0.5039910000000  0.5626980000000 1.0
C      1  0.5126300000000  0.5593840000000  0.4961870000000 1.0
C      1  0.4872010000000  0.4927670000000  0.4407680000000 1.0
C      1  0.5127900000000  0.4374530000000  0.5074120000000 1.0
C      1  0.4911790000000  0.5477480000000  0.5095840000000 1.0
C      1  0.5085850000000  0.5062520000000  0.4524260000000 1.0
C      1  0.4913730000000  0.4490230000000  0.4939050000000 1.0
C      1  0.5083530000000  0.4905720000000  0.5511510000000 1.0
C      1  0.4554910000000  0.4791130000000  0.4900030000000 1.0
C      1  0.5442820000000  0.4868190000000  0.5210980000000 1.0
C      1  0.4553710000000  0.5175460000000  0.5133000000000 1.0
C      1  0.5443450000000  0.5101160000000  0.4826650000000 1.0
C      1  0.5322270000000  0.5588070000000  0.4799150000000 1.0
C      1  0.4676720000000  0.4764130000000  0.4413250000000 1.0
C      1  0.5323000000000  0.4380910000000  0.5237860000000 1.0
C      1  0.4672910000000  0.5202840000000  0.5620400000000 1.0
C      1  0.5259440000000  0.4689130000000  0.5596800000000 1.0
C      1  0.4735300000000  0.5562040000000  0.5312250000000 1.0
C      1  0.5261520000000  0.5279660000000  0.4439880000000 1.0
C      1  0.4738630000000  0.4405120000000  0.4721720000000 1.0
C      1  0.4403530000000  0.4983070000000  0.5016120000000 1.0
C      1  0.5593920000000  0.4984910000000  0.5019210000000 1.0
C      1  0.4998720000000  0.4983990000000  0.5017660000000 1.0
END
