TITL C-96516-2337-4 -276.180751133406 125000 -671.617041745871 0 0 96 (C1) n - 1
REM
REM in /rds/project/t2_vol4/rds-t2-cs072/BORA/CARBON/from-Arr/AIRSS/Generating-Clusters/GAP-ML-2020/Higher-Symm/SD-CG/HFTN-CG
REM
REM
REM
REM
REM
REM ./C.cell (b20cbc046b6831c77cfcea5457e17084)
REM AIRSS Version 0.9.1 bugfix July 2018 build 013d7b7c2542+ Fri, 06 Jul 2018 19:26:36 +0100
REM compiler GCC version 9.3.0
REM options -cpp -mtune=generic -march=x86-64 -g -O0
REM seed 558648964 1547411352 -1629761421 -1893242220 -308627791 -1182812503 -163781018 713549368 389187514 142655594 756939631 -1860880724 -1761335446 244798007 -2142800710 -1149600809 -1805600144 109951304 -1291016977 2131101721 217983773 743650606 -1239306536 1582695338 -821467389 1042705429 -98175068 844740607 -1698824634 -974302328 -1847164349 1696086287 127092909
REM
CELL 1.54180   50.00000   50.00000   50.00000   90.00000   90.00000   90.00000
LATT -1
SFAC C  
C      1  0.5095550000000  0.5531000000000  0.4335060000000 1.0
C      1  0.5486820000000  0.5421130000000  0.5666920000000 1.0
C      1  0.5793250000000  0.4799370000000  0.4980760000000 1.0
C      1  0.5872320000000  0.4632480000000  0.4779910000000 1.0
C      1  0.5354240000000  0.5394580000000  0.4426940000000 1.0
C      1  0.4448630000000  0.5097300000000  0.4300330000000 1.0
C      1  0.5355870000000  0.5229540000000  0.4174020000000 1.0
C      1  0.4893890000000  0.5236410000000  0.5320060000000 1.0
C      1  0.4184910000000  0.5145940000000  0.4954510000000 1.0
C      1  0.5674670000000  0.4749640000000  0.5240280000000 1.0
C      1  0.5204220000000  0.5669790000000  0.4883980000000 1.0
C      1  0.5198750000000  0.5186440000000  0.5017670000000 1.0
C      1  0.4336830000000  0.4522340000000  0.5372650000000 1.0
C      1  0.4547250000000  0.5561400000000  0.5377930000000 1.0
C      1  0.5829870000000  0.5374060000000  0.4505590000000 1.0
C      1  0.4222170000000  0.4678940000000  0.4954520000000 1.0
C      1  0.4313260000000  0.4811280000000  0.5383150000000 1.0
C      1  0.4825800000000  0.4796610000000  0.4955130000000 1.0
C      1  0.5570810000000  0.5514070000000  0.5031030000000 1.0
C      1  0.5090200000000  0.4317220000000  0.4519710000000 1.0
C      1  0.5189490000000  0.5927430000000  0.5030620000000 1.0
C      1  0.5744300000000  0.5224940000000  0.5342170000000 1.0
C      1  0.4318050000000  0.5417950000000  0.4906380000000 1.0
C      1  0.4597610000000  0.4894590000000  0.5379250000000 1.0
C      1  0.5734560000000  0.5287330000000  0.5065600000000 1.0
C      1  0.5776440000000  0.5116010000000  0.4580210000000 1.0
C      1  0.4549750000000  0.4368900000000  0.5490490000000 1.0
C      1  0.4887010000000  0.4922430000000  0.4270910000000 1.0
C      1  0.5214720000000  0.5537640000000  0.5651510000000 1.0
C      1  0.4823960000000  0.4721130000000  0.5381300000000 1.0
C      1  0.5172070000000  0.5930950000000  0.5283850000000 1.0
C      1  0.5237570000000  0.4524060000000  0.4376770000000 1.0
C      1  0.5008970000000  0.4777480000000  0.5189510000000 1.0
C      1  0.4481860000000  0.4936670000000  0.5656170000000 1.0
C      1  0.4930440000000  0.5552510000000  0.4786190000000 1.0
C      1  0.4276840000000  0.5196580000000  0.4499570000000 1.0
C      1  0.4171040000000  0.5030500000000  0.4691670000000 1.0
C      1  0.5679410000000  0.4649450000000  0.4572060000000 1.0
C      1  0.5655310000000  0.4894020000000  0.4423940000000 1.0
C      1  0.4938270000000  0.5216330000000  0.4819980000000 1.0
C      1  0.5492220000000  0.5626450000000  0.4786230000000 1.0
C      1  0.4700910000000  0.4236580000000  0.5277350000000 1.0
C      1  0.5272860000000  0.4728580000000  0.4819740000000 1.0
C      1  0.4197010000000  0.4908400000000  0.5126750000000 1.0
C      1  0.5095740000000  0.5330970000000  0.4126780000000 1.0
C      1  0.4950290000000  0.4425520000000  0.5728920000000 1.0
C      1  0.5141570000000  0.5631970000000  0.5376960000000 1.0
C      1  0.5287810000000  0.5481490000000  0.5121250000000 1.0
C      1  0.4867400000000  0.5531910000000  0.5287850000000 1.0
C      1  0.5241290000000  0.4589160000000  0.5082860000000 1.0
C      1  0.4532210000000  0.4266150000000  0.5039240000000 1.0
C      1  0.5347810000000  0.4482730000000  0.5510900000000 1.0
C      1  0.5590540000000  0.5523460000000  0.4543300000000 1.0
C      1  0.5388740000000  0.4962050000000  0.4292860000000 1.0
C      1  0.4585540000000  0.4853520000000  0.4320780000000 1.0
C      1  0.5167670000000  0.4762500000000  0.4242650000000 1.0
C      1  0.5285070000000  0.5111520000000  0.4552990000000 1.0
C      1  0.5152120000000  0.4310260000000  0.5027070000000 1.0
C      1  0.5106420000000  0.4322330000000  0.5512180000000 1.0
C      1  0.5088330000000  0.5317230000000  0.5802670000000 1.0
C      1  0.4662530000000  0.5119480000000  0.5217170000000 1.0
C      1  0.4576280000000  0.4256260000000  0.4771940000000 1.0
C      1  0.5351680000000  0.4978150000000  0.5529570000000 1.0
C      1  0.4993330000000  0.4227640000000  0.5268220000000 1.0
C      1  0.5338940000000  0.5185170000000  0.5744820000000 1.0
C      1  0.5237180000000  0.4277760000000  0.4758140000000 1.0
C      1  0.4615760000000  0.4739140000000  0.5813530000000 1.0
C      1  0.4765720000000  0.5615380000000  0.5022240000000 1.0
C      1  0.4572420000000  0.5205840000000  0.5731390000000 1.0
C      1  0.5121380000000  0.5047510000000  0.5269710000000 1.0
C      1  0.4318650000000  0.4452630000000  0.5103290000000 1.0
C      1  0.5379500000000  0.5023320000000  0.4823980000000 1.0
C      1  0.5692790000000  0.5066450000000  0.4873690000000 1.0
C      1  0.4624130000000  0.5301950000000  0.4226900000000 1.0
C      1  0.5625320000000  0.4969880000000  0.5405250000000 1.0
C      1  0.5403410000000  0.4541970000000  0.4626870000000 1.0
C      1  0.4385740000000  0.5430250000000  0.4618820000000 1.0
C      1  0.4848220000000  0.5156160000000  0.5843080000000 1.0
C      1  0.4486830000000  0.5570700000000  0.5091650000000 1.0
C      1  0.4885890000000  0.4498660000000  0.4560250000000 1.0
C      1  0.4988070000000  0.4758850000000  0.4713080000000 1.0
C      1  0.4244170000000  0.4757880000000  0.4677410000000 1.0
C      1  0.4869890000000  0.5598390000000  0.4499590000000 1.0
C      1  0.5000060000000  0.5038280000000  0.4578750000000 1.0
C      1  0.5067010000000  0.4674500000000  0.5818860000000 1.0
C      1  0.4609730000000  0.4441470000000  0.4576410000000 1.0
C      1  0.4724170000000  0.5061480000000  0.4944730000000 1.0
C      1  0.4480170000000  0.5433170000000  0.5604800000000 1.0
C      1  0.5299280000000  0.4716000000000  0.5666220000000 1.0
C      1  0.4864170000000  0.5179030000000  0.4128150000000 1.0
C      1  0.4452050000000  0.4669320000000  0.4493410000000 1.0
C      1  0.4671230000000  0.4466450000000  0.5724400000000 1.0
C      1  0.5471650000000  0.4548810000000  0.5265270000000 1.0
C      1  0.4609670000000  0.5498170000000  0.4433350000000 1.0
C      1  0.5721170000000  0.5427120000000  0.5539740000000 1.0
C      1  0.4863260000000  0.4867530000000  0.5877700000000 1.0
END
