TITL C-96391-7614-2 -182.23497430566 125000 -1207.33491822817 0 0 168 (Cs) n - 1
REM
REM in /rds/project/t2_vol4/rds-t2-cs072/BORA/CARBON/from-Arr/AIRSS/Generating-Clusters/GAP-ML-2020/Higher-Symm/SD-CG/HFTN-CG/C160-200
REM
REM
REM
REM
REM
REM ./C.cell (6b4489405718ea1b717e0baf1da4c2d9)
REM AIRSS Version 0.9.1 bugfix July 2018 build 013d7b7c2542+ Fri, 06 Jul 2018 19:26:36 +0100
REM compiler GCC version 9.3.0
REM options -cpp -mtune=generic -march=x86-64 -g -O0
REM seed -2021794789 15210548 1320082027 -189637997 740055755 -2108652774 -1144655280 -878351727 210075529 -158328743 691897053 1039129045 -595952297 -1622680074 -1510518518 151141696 1699526063 1417049679 1229622401 -789427289 -1182741455 -1835206614 1179290856 407626999 883930604 -2104331205 630509354 -148198540 -237885280 -730359239 -738005742 -1145108986 -505871650
REM
CELL 1.54180   50.00000   50.00000   50.00000   90.00000   90.00000   90.00000
LATT -1
SFAC C  
C      1  0.4402910000000  0.4893850000000  0.5006990000000 1.0
C      1  0.5597130000000  0.4894100000000  0.5007070000000 1.0
C      1  0.5289330000000  0.5437290000000  0.5847230000000 1.0
C      1  0.4710390000000  0.5437170000000  0.5847200000000 1.0
C      1  0.4753030000000  0.4944300000000  0.4675140000000 1.0
C      1  0.5247030000000  0.4944400000000  0.4675170000000 1.0
C      1  0.5589010000000  0.5950470000000  0.5147650000000 1.0
C      1  0.4410580000000  0.5950220000000  0.5147570000000 1.0
C      1  0.5684300000000  0.4396020000000  0.5618400000000 1.0
C      1  0.4315870000000  0.4395730000000  0.5618310000000 1.0
C      1  0.5351360000000  0.3984730000000  0.5090440000000 1.0
C      1  0.4649050000000  0.3984590000000  0.5090400000000 1.0
C      1  0.4860980000000  0.4263700000000  0.5718490000000 1.0
C      1  0.5139230000000  0.4263760000000  0.5718510000000 1.0
C      1  0.5552540000000  0.4285550000000  0.4469090000000 1.0
C      1  0.4447820000000  0.4285320000000  0.4469030000000 1.0
C      1  0.4193990000000  0.5773350000000  0.5178610000000 1.0
C      1  0.5805670000000  0.5773690000000  0.5178710000000 1.0
C      1  0.4856750000000  0.5191160000000  0.5876250000000 1.0
C      1  0.5143060000000  0.5191220000000  0.5876270000000 1.0
C      1  0.5887240000000  0.5620740000000  0.4940890000000 1.0
C      1  0.4112510000000  0.5620370000000  0.4940780000000 1.0
C      1  0.6087830000000  0.4717090000000  0.4761950000000 1.0
C      1  0.3912320000000  0.4716640000000  0.4761820000000 1.0
C      1  0.5143610000000  0.4111820000000  0.4590430000000 1.0
C      1  0.4856810000000  0.4111760000000  0.4590420000000 1.0
C      1  0.5375440000000  0.5766140000000  0.4174220000000 1.0
C      1  0.4624340000000  0.5765980000000  0.4174170000000 1.0
C      1  0.3903120000000  0.4961400000000  0.5287040000000 1.0
C      1  0.6096860000000  0.4961850000000  0.5287170000000 1.0
C      1  0.4470150000000  0.4571450000000  0.5775450000000 1.0
C      1  0.5529930000000  0.4571670000000  0.5775520000000 1.0
C      1  0.5990520000000  0.5069360000000  0.4396400000000 1.0
C      1  0.4009530000000  0.5068950000000  0.4396280000000 1.0
C      1  0.5153060000000  0.5813570000000  0.5128440000000 1.0
C      1  0.4846580000000  0.5813510000000  0.5128420000000 1.0
C      1  0.4506170000000  0.4667490000000  0.5113370000000 1.0
C      1  0.5493950000000  0.4667690000000  0.5113430000000 1.0
C      1  0.5524460000000  0.4968750000000  0.4738160000000 1.0
C      1  0.4475580000000  0.4968540000000  0.4738100000000 1.0
C      1  0.4385870000000  0.5688030000000  0.5632260000000 1.0
C      1  0.5613770000000  0.5688280000000  0.5632330000000 1.0
C      1  0.5795950000000  0.4618810000000  0.4226730000000 1.0
C      1  0.4204300000000  0.4618480000000  0.4226630000000 1.0
C      1  0.5291400000000  0.5377810000000  0.4867850000000 1.0
C      1  0.4708460000000  0.5377690000000  0.4867820000000 1.0
C      1  0.4858180000000  0.4684020000000  0.4736920000000 1.0
C      1  0.5141980000000  0.4684080000000  0.4736940000000 1.0
C      1  0.4846110000000  0.5523460000000  0.4642890000000 1.0
C      1  0.5153720000000  0.5523520000000  0.4642900000000 1.0
C      1  0.4758280000000  0.5945720000000  0.4872060000000 1.0
C      1  0.5241340000000  0.5945820000000  0.4872090000000 1.0
C      1  0.4739550000000  0.4725710000000  0.5309400000000 1.0
C      1  0.5260530000000  0.4725820000000  0.5309440000000 1.0
C      1  0.5904500000000  0.4530470000000  0.5493230000000 1.0
C      1  0.4095630000000  0.4530090000000  0.5493120000000 1.0
C      1  0.5933610000000  0.4466910000000  0.4693060000000 1.0
C      1  0.4066640000000  0.4466520000000  0.4692950000000 1.0
C      1  0.5798720000000  0.5258650000000  0.4945420000000 1.0
C      1  0.4201180000000  0.5258320000000  0.4945320000000 1.0
C      1  0.5277910000000  0.5507660000000  0.4143820000000 1.0
C      1  0.4721980000000  0.5507550000000  0.4143790000000 1.0
C      1  0.4395690000000  0.5885080000000  0.4624330000000 1.0
C      1  0.5603980000000  0.5885330000000  0.4624400000000 1.0
C      1  0.6093290000000  0.4913880000000  0.4564350000000 1.0
C      1  0.3906800000000  0.4913430000000  0.4564220000000 1.0
C      1  0.5387810000000  0.5886520000000  0.4421610000000 1.0
C      1  0.4611900000000  0.5886360000000  0.4421560000000 1.0
C      1  0.4171360000000  0.4194080000000  0.5115780000000 1.0
C      1  0.5828960000000  0.4194430000000  0.5115880000000 1.0
C      1  0.4246370000000  0.5649790000000  0.4667350000000 1.0
C      1  0.5753400000000  0.5650100000000  0.4667450000000 1.0
C      1  0.5823300000000  0.5651960000000  0.5439160000000 1.0
C      1  0.4176370000000  0.5651610000000  0.5439060000000 1.0
C      1  0.4850220000000  0.5668960000000  0.5734350000000 1.0
C      1  0.5149420000000  0.5669020000000  0.5734370000000 1.0
C      1  0.4364460000000  0.5135770000000  0.5156680000000 1.0
C      1  0.5635460000000  0.5136040000000  0.5156750000000 1.0
C      1  0.4176860000000  0.4240490000000  0.4838230000000 1.0
C      1  0.5823480000000  0.4240830000000  0.4838330000000 1.0
C      1  0.3907860000000  0.5257620000000  0.5287570000000 1.0
C      1  0.6092000000000  0.5258070000000  0.5287700000000 1.0
C      1  0.4855180000000  0.3977530000000  0.5302280000000 1.0
C      1  0.5145210000000  0.3977590000000  0.5302300000000 1.0
C      1  0.5300180000000  0.4724240000000  0.4121940000000 1.0
C      1  0.4700040000000  0.4724110000000  0.4121910000000 1.0
C      1  0.4233660000000  0.5207510000000  0.4308280000000 1.0
C      1  0.5766340000000  0.5207830000000  0.4308380000000 1.0
C      1  0.3853980000000  0.4537010000000  0.5125930000000 1.0
C      1  0.6146200000000  0.4537490000000  0.5126070000000 1.0
C      1  0.5133020000000  0.4508720000000  0.5169390000000 1.0
C      1  0.4867160000000  0.4508670000000  0.5169370000000 1.0
C      1  0.5275660000000  0.4098810000000  0.5537080000000 1.0
C      1  0.4724650000000  0.4098690000000  0.5537040000000 1.0
C      1  0.5146800000000  0.5116250000000  0.4914110000000 1.0
C      1  0.4853160000000  0.5116190000000  0.4914090000000 1.0
C      1  0.5264700000000  0.5155870000000  0.5425270000000 1.0
C      1  0.4735190000000  0.5155760000000  0.5425240000000 1.0
C      1  0.5361320000000  0.5815310000000  0.5581680000000 1.0
C      1  0.4638270000000  0.5815160000000  0.5581640000000 1.0
C      1  0.5277700000000  0.4288770000000  0.4388000000000 1.0
C      1  0.4722670000000  0.4288660000000  0.4387970000000 1.0
C      1  0.4427830000000  0.5052980000000  0.4164010000000 1.0
C      1  0.5572250000000  0.5053220000000  0.4164080000000 1.0
C      1  0.4196070000000  0.4977820000000  0.5691150000000 1.0
C      1  0.5803860000000  0.4978150000000  0.5691250000000 1.0
C      1  0.4647040000000  0.5928830000000  0.5322360000000 1.0
C      1  0.5352540000000  0.5928980000000  0.5322400000000 1.0
C      1  0.4205010000000  0.5265870000000  0.5700850000000 1.0
C      1  0.5794790000000  0.5266200000000  0.5700940000000 1.0
C      1  0.5146240000000  0.4742500000000  0.5629080000000 1.0
C      1  0.4853790000000  0.4742430000000  0.5629060000000 1.0
C      1  0.4419980000000  0.5261920000000  0.4749240000000 1.0
C      1  0.5579950000000  0.5262160000000  0.4749310000000 1.0
C      1  0.4489740000000  0.5988710000000  0.4876820000000 1.0
C      1  0.5509870000000  0.5988920000000  0.4876880000000 1.0
C      1  0.4653060000000  0.4024370000000  0.4799760000000 1.0
C      1  0.5347370000000  0.4024510000000  0.4799800000000 1.0
C      1  0.4221460000000  0.4462370000000  0.4446960000000 1.0
C      1  0.5778830000000  0.4462690000000  0.4447060000000 1.0
C      1  0.5294170000000  0.4541990000000  0.4934910000000 1.0
C      1  0.4706020000000  0.4541870000000  0.4934870000000 1.0
C      1  0.4437880000000  0.4856390000000  0.5769870000000 1.0
C      1  0.5562090000000  0.4856620000000  0.5769940000000 1.0
C      1  0.5256040000000  0.4514000000000  0.5775070000000 1.0
C      1  0.4744060000000  0.4513900000000  0.5775040000000 1.0
C      1  0.4376580000000  0.5402050000000  0.4500090000000 1.0
C      1  0.5623310000000  0.5402310000000  0.4500170000000 1.0
C      1  0.5986220000000  0.4380970000000  0.5267440000000 1.0
C      1  0.4014010000000  0.4380560000000  0.5267320000000 1.0
C      1  0.4852470000000  0.4993460000000  0.5218210000000 1.0
C      1  0.5147510000000  0.4993520000000  0.5218220000000 1.0
C      1  0.5947720000000  0.5399390000000  0.5493420000000 1.0
C      1  0.4052060000000  0.5398990000000  0.5493310000000 1.0
C      1  0.5545540000000  0.4168890000000  0.5489110000000 1.0
C      1  0.4454740000000  0.4168660000000  0.5489040000000 1.0
C      1  0.4729750000000  0.5034550000000  0.4148230000000 1.0
C      1  0.5270340000000  0.5034660000000  0.4148260000000 1.0
C      1  0.5598080000000  0.4075410000000  0.5225810000000 1.0
C      1  0.4402270000000  0.4075160000000  0.5225740000000 1.0
C      1  0.3840190000000  0.4788600000000  0.5050350000000 1.0
C      1  0.6159900000000  0.4789090000000  0.5050490000000 1.0
C      1  0.6031630000000  0.5387650000000  0.5026810000000 1.0
C      1  0.3968210000000  0.5387230000000  0.5026680000000 1.0
C      1  0.5146450000000  0.4493060000000  0.4214160000000 1.0
C      1  0.4853860000000  0.4493000000000  0.4214140000000 1.0
C      1  0.4698290000000  0.5399210000000  0.4417760000000 1.0
C      1  0.5301620000000  0.5399330000000  0.4417790000000 1.0
C      1  0.5585740000000  0.4763550000000  0.4139450000000 1.0
C      1  0.4414460000000  0.4763310000000  0.4139380000000 1.0
C      1  0.5595370000000  0.4133750000000  0.4699280000000 1.0
C      1  0.4405030000000  0.4133510000000  0.4699210000000 1.0
C      1  0.5292770000000  0.4993910000000  0.5704320000000 1.0
C      1  0.4707150000000  0.4993780000000  0.5704290000000 1.0
C      1  0.5159850000000  0.5119130000000  0.4424710000000 1.0
C      1  0.4840180000000  0.5119060000000  0.4424690000000 1.0
C      1  0.5137900000000  0.5286740000000  0.4007310000000 1.0
C      1  0.4862100000000  0.5286680000000  0.4007290000000 1.0
C      1  0.5155620000000  0.5842070000000  0.4617390000000 1.0
C      1  0.4844080000000  0.5842010000000  0.4617370000000 1.0
C      1  0.4569820000000  0.5314030000000  0.5276430000000 1.0
C      1  0.5430010000000  0.5314210000000  0.5276480000000 1.0
C      1  0.4031530000000  0.4816950000000  0.5507100000000 1.0
C      1  0.5968480000000  0.4817350000000  0.5507220000000 1.0
C      1  0.5306390000000  0.5513120000000  0.5111210000000 1.0
C      1  0.4693390000000  0.5512990000000  0.5111170000000 1.0
C      1  0.5577010000000  0.5446310000000  0.5779740000000 1.0
C      1  0.4422710000000  0.5446070000000  0.5779670000000 1.0
END
