TITL C-97926-1501-5 10.3010251804538 125000 -496.935870512989 0 0 71 (C1) n - 1
REM
REM in /rds/project/t2_vol4/rds-t2-cs072/BORA/CARBON/from-Arr/AIRSS/Generating-Clusters/GAP-ML-2020/Higher-Symm/SD-CG/HFTN-CG
REM
REM
REM
REM
REM
REM ./C.cell (b20cbc046b6831c77cfcea5457e17084)
REM AIRSS Version 0.9.1 bugfix July 2018 build 013d7b7c2542+ Fri, 06 Jul 2018 19:26:36 +0100
REM compiler GCC version 9.3.0
REM options -cpp -mtune=generic -march=x86-64 -g -O0
REM seed -753169968 -64463106 -365166881 -1906908195 1536837491 2670593 -141341805 1238939459 1639580684 1833270555 -1413634240 607972479 1127745813 -598531399 1203592043 -1315283940 1760929217 -1520253524 1483569721 -1559703504 1149948879 -1564626107 118118011 -1873514392 678387616 1209647514 453846255 -2014646783 69401896 -448305054 962828901 -240691715 -1177771800
REM
CELL 1.54180   50.00000   50.00000   50.00000   90.00000   90.00000   90.00000
LATT -1
SFAC C  
C      1  0.4458200000000  0.4658280000000  0.5696710000000 1.0
C      1  0.4638050000000  0.5774940000000  0.5437310000000 1.0
C      1  0.4710190000000  0.5358550000000  0.4315380000000 1.0
C      1  0.4677210000000  0.4317780000000  0.4584690000000 1.0
C      1  0.5519000000000  0.4621140000000  0.4286880000000 1.0
C      1  0.5278850000000  0.5707010000000  0.4628100000000 1.0
C      1  0.5446700000000  0.5434180000000  0.5737430000000 1.0
C      1  0.5578170000000  0.4439280000000  0.5433810000000 1.0
C      1  0.4526550000000  0.4703220000000  0.4360850000000 1.0
C      1  0.4611710000000  0.4543080000000  0.5253110000000 1.0
C      1  0.4614110000000  0.5311670000000  0.5551490000000 1.0
C      1  0.4724110000000  0.5523960000000  0.4772950000000 1.0
C      1  0.5434400000000  0.4729880000000  0.5697530000000 1.0
C      1  0.5412620000000  0.4519540000000  0.4747430000000 1.0
C      1  0.5332330000000  0.5271510000000  0.4474070000000 1.0
C      1  0.5483160000000  0.5580110000000  0.5286900000000 1.0
C      1  0.4825780000000  0.5659430000000  0.4999980000000 1.0
C      1  0.4702120000000  0.4903100000000  0.4259250000000 1.0
C      1  0.4788150000000  0.4418300000000  0.5074040000000 1.0
C      1  0.4718770000000  0.5078450000000  0.5660830000000 1.0
C      1  0.5327020000000  0.5699260000000  0.5086950000000 1.0
C      1  0.5293150000000  0.4967590000000  0.5685730000000 1.0
C      1  0.5318840000000  0.4405190000000  0.4998070000000 1.0
C      1  0.5250300000000  0.5039510000000  0.4332520000000 1.0
C      1  0.5104160000000  0.4485020000000  0.5427850000000 1.0
C      1  0.5037770000000  0.5155510000000  0.5343570000000 1.0
C      1  0.4994840000000  0.4970650000000  0.4877270000000 1.0
C      1  0.5055050000000  0.4599930000000  0.4391470000000 1.0
C      1  0.4867450000000  0.4400120000000  0.4387880000000 1.0
C      1  0.4913170000000  0.5057880000000  0.4638800000000 1.0
C      1  0.5044520000000  0.5482020000000  0.5405080000000 1.0
C      1  0.4934120000000  0.4664350000000  0.5547290000000 1.0
C      1  0.4459540000000  0.5426780000000  0.4839340000000 1.0
C      1  0.4392310000000  0.4800170000000  0.4593140000000 1.0
C      1  0.4447010000000  0.4741860000000  0.5128950000000 1.0
C      1  0.4438530000000  0.5250020000000  0.5322030000000 1.0
C      1  0.5627770000000  0.5367430000000  0.5172560000000 1.0
C      1  0.5676870000000  0.4698830000000  0.5539550000000 1.0
C      1  0.5608670000000  0.4726990000000  0.4806280000000 1.0
C      1  0.5553810000000  0.5219310000000  0.4656720000000 1.0
C      1  0.5548230000000  0.4462610000000  0.5163020000000 1.0
C      1  0.5481200000000  0.5188560000000  0.5616260000000 1.0
C      1  0.5443900000000  0.5648390000000  0.4833990000000 1.0
C      1  0.5478490000000  0.4868340000000  0.4377180000000 1.0
C      1  0.4637320000000  0.4445640000000  0.4829290000000 1.0
C      1  0.4554690000000  0.5140140000000  0.4308740000000 1.0
C      1  0.4611670000000  0.5665070000000  0.5193710000000 1.0
C      1  0.4505710000000  0.4894660000000  0.5580110000000 1.0
C      1  0.5651700000000  0.5149310000000  0.5361700000000 1.0
C      1  0.5586030000000  0.5397880000000  0.4877210000000 1.0
C      1  0.5608430000000  0.4944430000000  0.4622770000000 1.0
C      1  0.5674380000000  0.4705680000000  0.5080350000000 1.0
C      1  0.4361500000000  0.5079200000000  0.4517410000000 1.0
C      1  0.4432140000000  0.5454490000000  0.5125940000000 1.0
C      1  0.4412350000000  0.4963680000000  0.5311860000000 1.0
C      1  0.4451320000000  0.4671200000000  0.4846000000000 1.0
C      1  0.4872890000000  0.5387520000000  0.4553300000000 1.0
C      1  0.4589850000000  0.4438160000000  0.4344750000000 1.0
C      1  0.4666600000000  0.4585920000000  0.5525150000000 1.0
C      1  0.4771400000000  0.5551080000000  0.5525000000000 1.0
C      1  0.5319110000000  0.5531900000000  0.5519770000000 1.0
C      1  0.5338330000000  0.4475450000000  0.5575980000000 1.0
C      1  0.5322060000000  0.4535920000000  0.4471920000000 1.0
C      1  0.5156670000000  0.5485460000000  0.4528820000000 1.0
C      1  0.5067510000000  0.4391000000000  0.5147730000000 1.0
C      1  0.5002320000000  0.4964260000000  0.5592020000000 1.0
C      1  0.4982820000000  0.4893150000000  0.4376570000000 1.0
C      1  0.5065890000000  0.5640660000000  0.5145690000000 1.0
C      1  0.5708870000000  0.4873940000000  0.5314310000000 1.0
C      1  0.4299600000000  0.5285940000000  0.4674370000000 1.0
C      1  0.5078390000000  0.5042460000000  0.5106290000000 1.0
END
