TITL C-97922-1590-6 13.101384574228 125000 -807.27212788589 0 0 115 (C1) n - 1
REM
REM in /rds/project/t2_vol4/rds-t2-cs072/BORA/CARBON/from-Arr/AIRSS/Generating-Clusters/GAP-ML-2020/Higher-Symm/SD-CG/HFTN-CG
REM
REM
REM
REM
REM
REM ./C.cell (b20cbc046b6831c77cfcea5457e17084)
REM AIRSS Version 0.9.1 bugfix July 2018 build 013d7b7c2542+ Fri, 06 Jul 2018 19:26:36 +0100
REM compiler GCC version 9.3.0
REM options -cpp -mtune=generic -march=x86-64 -g -O0
REM seed 113596246 1488128690 207665961 1684605746 727742284 -1896626989 1284264402 -1125101779 -1915882907 680493549 424779641 1349013739 465728010 655465878 -1262732100 1080702965 1849134597 206325465 1745748229 -1993725914 867259277 1892813710 -1453351121 -587697197 678087444 1932061448 955354007 -132511549 -2111464641 -2126910805 -158508707 809676734 -1154715302
REM
CELL 1.54180   50.00000   50.00000   50.00000   90.00000   90.00000   90.00000
LATT -1
SFAC C  
C      1  0.5802360000000  0.5139590000000  0.4719700000000 1.0
C      1  0.5742730000000  0.4847770000000  0.4790490000000 1.0
C      1  0.5864710000000  0.4670720000000  0.5009190000000 1.0
C      1  0.5815960000000  0.4691080000000  0.5298900000000 1.0
C      1  0.5805890000000  0.4946180000000  0.5415420000000 1.0
C      1  0.5778720000000  0.5385390000000  0.5173020000000 1.0
C      1  0.5812670000000  0.5379530000000  0.4892100000000 1.0
C      1  0.4370400000000  0.4655800000000  0.5060000000000 1.0
C      1  0.4373130000000  0.4841750000000  0.5312350000000 1.0
C      1  0.4378880000000  0.5158240000000  0.5331710000000 1.0
C      1  0.4377920000000  0.5352380000000  0.5089160000000 1.0
C      1  0.4359060000000  0.5291730000000  0.4773350000000 1.0
C      1  0.4354430000000  0.5020040000000  0.4628720000000 1.0
C      1  0.4353920000000  0.4736350000000  0.4756040000000 1.0
C      1  0.4065510000000  0.5319530000000  0.5091660000000 1.0
C      1  0.4051500000000  0.5263160000000  0.4820190000000 1.0
C      1  0.4044430000000  0.5019770000000  0.4686700000000 1.0
C      1  0.4049170000000  0.4767640000000  0.4801180000000 1.0
C      1  0.4055170000000  0.4695050000000  0.5068080000000 1.0
C      1  0.4058570000000  0.4862940000000  0.5288480000000 1.0
C      1  0.4059890000000  0.5141330000000  0.5303750000000 1.0
C      1  0.5340520000000  0.5423340000000  0.5649000000000 1.0
C      1  0.5248570000000  0.5861120000000  0.4791270000000 1.0
C      1  0.5261640000000  0.5400620000000  0.4220900000000 1.0
C      1  0.5266180000000  0.4663150000000  0.4215410000000 1.0
C      1  0.5254190000000  0.4120830000000  0.4706380000000 1.0
C      1  0.5339620000000  0.4159790000000  0.5343050000000 1.0
C      1  0.5239730000000  0.4962280000000  0.5901320000000 1.0
C      1  0.5840810000000  0.4410150000000  0.4913380000000 1.0
C      1  0.5624220000000  0.4517890000000  0.5418220000000 1.0
C      1  0.5720750000000  0.5018930000000  0.5682170000000 1.0
C      1  0.5650740000000  0.5591680000000  0.5332810000000 1.0
C      1  0.5672260000000  0.5603230000000  0.4778240000000 1.0
C      1  0.5702280000000  0.5186700000000  0.4453940000000 1.0
C      1  0.5682080000000  0.4642140000000  0.4546410000000 1.0
C      1  0.4805450000000  0.5113040000000  0.5963320000000 1.0
C      1  0.4953880000000  0.5739110000000  0.5428960000000 1.0
C      1  0.4820970000000  0.5867080000000  0.4637500000000 1.0
C      1  0.4832440000000  0.5293710000000  0.4098670000000 1.0
C      1  0.4829580000000  0.4514780000000  0.4207810000000 1.0
C      1  0.4816010000000  0.4067620000000  0.4846000000000 1.0
C      1  0.4927830000000  0.4399590000000  0.5594320000000 1.0
C      1  0.5077500000000  0.4222600000000  0.4486210000000 1.0
C      1  0.5114010000000  0.4098150000000  0.5214020000000 1.0
C      1  0.5063820000000  0.4737130000000  0.5890290000000 1.0
C      1  0.5121430000000  0.5457940000000  0.5830100000000 1.0
C      1  0.5077050000000  0.5918480000000  0.5011190000000 1.0
C      1  0.5086840000000  0.5623020000000  0.4316240000000 1.0
C      1  0.5094880000000  0.4884620000000  0.4103830000000 1.0
C      1  0.5089990000000  0.4433750000000  0.4285250000000 1.0
C      1  0.5080240000000  0.4047610000000  0.4931510000000 1.0
C      1  0.5145850000000  0.4543130000000  0.5700530000000 1.0
C      1  0.5068140000000  0.5202270000000  0.5949670000000 1.0
C      1  0.5174710000000  0.5834570000000  0.5264650000000 1.0
C      1  0.5082920000000  0.5799000000000  0.4550880000000 1.0
C      1  0.5091720000000  0.5179670000000  0.4109420000000 1.0
C      1  0.4812220000000  0.4156330000000  0.4569970000000 1.0
C      1  0.4905710000000  0.4214250000000  0.5371930000000 1.0
C      1  0.4801540000000  0.4820460000000  0.5937570000000 1.0
C      1  0.4916390000000  0.5590240000000  0.5683270000000 1.0
C      1  0.4818300000000  0.5934600000000  0.4919190000000 1.0
C      1  0.4828920000000  0.5553340000000  0.4225610000000 1.0
C      1  0.4835160000000  0.4777200000000  0.4092290000000 1.0
C      1  0.5666370000000  0.4213950000000  0.5023720000000 1.0
C      1  0.5383610000000  0.4669320000000  0.5547490000000 1.0
C      1  0.5786700000000  0.5290860000000  0.5708370000000 1.0
C      1  0.5461910000000  0.5766390000000  0.5203100000000 1.0
C      1  0.5504830000000  0.5490960000000  0.4586040000000 1.0
C      1  0.5506780000000  0.5003040000000  0.4388660000000 1.0
C      1  0.5712550000000  0.4384130000000  0.4650810000000 1.0
C      1  0.4945910000000  0.4897970000000  0.5296140000000 1.0
C      1  0.4978180000000  0.5088410000000  0.5490060000000 1.0
C      1  0.4931070000000  0.5267580000000  0.5008760000000 1.0
C      1  0.4973700000000  0.5274780000000  0.4721530000000 1.0
C      1  0.4984700000000  0.5000880000000  0.4623660000000 1.0
C      1  0.4864810000000  0.4817530000000  0.4810210000000 1.0
C      1  0.5019840000000  0.4612520000000  0.4899450000000 1.0
C      1  0.4561740000000  0.5740790000000  0.4677220000000 1.0
C      1  0.4565420000000  0.5240370000000  0.4206770000000 1.0
C      1  0.4564270000000  0.4567270000000  0.4317040000000 1.0
C      1  0.4572460000000  0.4210760000000  0.4903440000000 1.0
C      1  0.4650470000000  0.4481700000000  0.5548090000000 1.0
C      1  0.4563190000000  0.5125440000000  0.5804970000000 1.0
C      1  0.4676950000000  0.5668200000000  0.5366540000000 1.0
C      1  0.5578580000000  0.4268910000000  0.5290090000000 1.0
C      1  0.5472690000000  0.4888590000000  0.5742940000000 1.0
C      1  0.5615750000000  0.5479280000000  0.5605760000000 1.0
C      1  0.5498980000000  0.5781170000000  0.4916990000000 1.0
C      1  0.5530120000000  0.5384700000000  0.4332290000000 1.0
C      1  0.5526550000000  0.4730210000000  0.4321760000000 1.0
C      1  0.5527940000000  0.4179860000000  0.4758730000000 1.0
C      1  0.4637470000000  0.4311570000000  0.5322210000000 1.0
C      1  0.4564380000000  0.4837560000000  0.5777590000000 1.0
C      1  0.4649380000000  0.5513530000000  0.5602360000000 1.0
C      1  0.4572130000000  0.5794770000000  0.4960330000000 1.0
C      1  0.4563650000000  0.5495460000000  0.4334560000000 1.0
C      1  0.4566990000000  0.4827130000000  0.4199920000000 1.0
C      1  0.4554250000000  0.4285340000000  0.4627020000000 1.0
C      1  0.5268750000000  0.4680070000000  0.5000210000000 1.0
C      1  0.5248400000000  0.4812460000000  0.5260290000000 1.0
C      1  0.5226700000000  0.5231740000000  0.5460240000000 1.0
C      1  0.5227800000000  0.5268710000000  0.5043480000000 1.0
C      1  0.5289610000000  0.5282420000000  0.4752670000000 1.0
C      1  0.5302320000000  0.5007270000000  0.4632390000000 1.0
C      1  0.5431750000000  0.4822550000000  0.4812870000000 1.0
C      1  0.4486460000000  0.4709610000000  0.5545560000000 1.0
C      1  0.4492760000000  0.5276540000000  0.5581670000000 1.0
C      1  0.4504860000000  0.5607840000000  0.5151510000000 1.0
C      1  0.4445700000000  0.5507080000000  0.4589470000000 1.0
C      1  0.4445840000000  0.5030200000000  0.4348000000000 1.0
C      1  0.4441190000000  0.4530550000000  0.4564660000000 1.0
C      1  0.4490420000000  0.4393430000000  0.5098940000000 1.0
C      1  0.4815980000000  0.4996250000000  0.5055320000000 1.0
C      1  0.5369190000000  0.5107100000000  0.5239060000000 1.0
C      1  0.5675250000000  0.5130510000000  0.5246310000000 1.0
END
