TITL C-97915-2614-7 -101.898915720991 125000 -1053.47564344907 0 0 145 (C1) n - 1
REM
REM in /rds/project/t2_vol4/rds-t2-cs072/BORA/CARBON/from-Arr/AIRSS/Generating-Clusters/GAP-ML-2020/Higher-Symm/SD-CG/HFTN-CG
REM
REM
REM
REM
REM
REM ./C.cell (b20cbc046b6831c77cfcea5457e17084)
REM AIRSS Version 0.9.1 bugfix July 2018 build 013d7b7c2542+ Fri, 06 Jul 2018 19:26:36 +0100
REM compiler GCC version 9.3.0
REM options -cpp -mtune=generic -march=x86-64 -g -O0
REM seed -1666279408 2145676279 202143653 -67720145 -46988167 1602481316 -56109577 -1322833426 381706524 -513463230 -315592188 1687438710 -1244967916 1891278810 1490089501 -794853417 -1256981040 -691495654 1465212290 -1412235445 -594912504 1248412399 -1805026149 955348987 1962441188 -1792090083 -162381948 7903919 1789157115 1354643166 -917153298 427678629 -1944340670
REM
CELL 1.54180   50.00000   50.00000   50.00000   90.00000   90.00000   90.00000
LATT -1
SFAC C  
C      1  0.5559500000000  0.5350260000000  0.5545030000000 1.0
C      1  0.5574730000000  0.5416070000000  0.4368450000000 1.0
C      1  0.4354850000000  0.5391060000000  0.4406740000000 1.0
C      1  0.4382810000000  0.5384000000000  0.5644400000000 1.0
C      1  0.5559100000000  0.4642190000000  0.4444480000000 1.0
C      1  0.5549450000000  0.4643380000000  0.5588410000000 1.0
C      1  0.4358090000000  0.4596400000000  0.5596650000000 1.0
C      1  0.4395130000000  0.4607470000000  0.4365600000000 1.0
C      1  0.4696080000000  0.4944170000000  0.5380570000000 1.0
C      1  0.5420670000000  0.4829280000000  0.5373920000000 1.0
C      1  0.5345660000000  0.4777730000000  0.4636210000000 1.0
C      1  0.4643410000000  0.4876410000000  0.4707950000000 1.0
C      1  0.4738490000000  0.5128890000000  0.4605530000000 1.0
C      1  0.5457310000000  0.5057400000000  0.4680850000000 1.0
C      1  0.5367130000000  0.5144220000000  0.5398570000000 1.0
C      1  0.4667280000000  0.5212320000000  0.5277460000000 1.0
C      1  0.4180930000000  0.5515130000000  0.5175160000000 1.0
C      1  0.5147020000000  0.5519890000000  0.5813900000000 1.0
C      1  0.5787820000000  0.5530590000000  0.4827090000000 1.0
C      1  0.4818350000000  0.5528430000000  0.4200850000000 1.0
C      1  0.4199070000000  0.4475170000000  0.4834370000000 1.0
C      1  0.5150500000000  0.4479480000000  0.4182290000000 1.0
C      1  0.5751910000000  0.4533740000000  0.5145180000000 1.0
C      1  0.4824600000000  0.4474810000000  0.5795420000000 1.0
C      1  0.4912120000000  0.5969530000000  0.5388580000000 1.0
C      1  0.5355830000000  0.5981020000000  0.5075590000000 1.0
C      1  0.5050690000000  0.5984080000000  0.4626710000000 1.0
C      1  0.4608080000000  0.5965340000000  0.4939070000000 1.0
C      1  0.4927440000000  0.4023800000000  0.4613920000000 1.0
C      1  0.5374260000000  0.4028160000000  0.4924850000000 1.0
C      1  0.5067990000000  0.4020150000000  0.5371220000000 1.0
C      1  0.4620640000000  0.4017710000000  0.5062680000000 1.0
C      1  0.4692080000000  0.4825660000000  0.4045570000000 1.0
C      1  0.4044430000000  0.4811020000000  0.5293320000000 1.0
C      1  0.5279890000000  0.4817070000000  0.5956680000000 1.0
C      1  0.5946620000000  0.4832580000000  0.4705110000000 1.0
C      1  0.4689490000000  0.5170140000000  0.5959450000000 1.0
C      1  0.4042460000000  0.5172060000000  0.4707640000000 1.0
C      1  0.5279620000000  0.5195800000000  0.4039370000000 1.0
C      1  0.5945210000000  0.5193930000000  0.5287870000000 1.0
C      1  0.5208370000000  0.4022880000000  0.4674430000000 1.0
C      1  0.4675290000000  0.4024970000000  0.4781110000000 1.0
C      1  0.4786430000000  0.4023370000000  0.5313560000000 1.0
C      1  0.5319760000000  0.4021900000000  0.5208760000000 1.0
C      1  0.5193470000000  0.5975040000000  0.5329560000000 1.0
C      1  0.4664780000000  0.5958990000000  0.5220620000000 1.0
C      1  0.4770390000000  0.5971330000000  0.4685370000000 1.0
C      1  0.5298540000000  0.5981560000000  0.4794680000000 1.0
C      1  0.4789240000000  0.4709220000000  0.5956120000000 1.0
C      1  0.5954180000000  0.4739180000000  0.5195140000000 1.0
C      1  0.5183500000000  0.4722030000000  0.4033480000000 1.0
C      1  0.4040980000000  0.4710390000000  0.4799580000000 1.0
C      1  0.4783610000000  0.5291170000000  0.4042680000000 1.0
C      1  0.5953690000000  0.5297830000000  0.4797330000000 1.0
C      1  0.5185330000000  0.5281540000000  0.5967740000000 1.0
C      1  0.4035110000000  0.5274400000000  0.5201570000000 1.0
C      1  0.4543200000000  0.5198310000000  0.5021280000000 1.0
C      1  0.5083580000000  0.5175590000000  0.5484190000000 1.0
C      1  0.5566980000000  0.5053070000000  0.4964680000000 1.0
C      1  0.5003490000000  0.5083060000000  0.4515570000000 1.0
C      1  0.4516190000000  0.4918950000000  0.4956180000000 1.0
C      1  0.5067220000000  0.4808110000000  0.4529350000000 1.0
C      1  0.5549620000000  0.4775160000000  0.5099300000000 1.0
C      1  0.4956660000000  0.4923950000000  0.5486510000000 1.0
C      1  0.5626330000000  0.5605890000000  0.4586970000000 1.0
C      1  0.4575120000000  0.5588580000000  0.4361290000000 1.0
C      1  0.4336520000000  0.5578800000000  0.5422650000000 1.0
C      1  0.5375480000000  0.5578820000000  0.5635130000000 1.0
C      1  0.5622680000000  0.4421610000000  0.5397310000000 1.0
C      1  0.4584660000000  0.4409300000000  0.5632770000000 1.0
C      1  0.4356120000000  0.4413000000000  0.4589370000000 1.0
C      1  0.5384950000000  0.4410240000000  0.4348860000000 1.0
C      1  0.5012470000000  0.5148720000000  0.3955310000000 1.0
C      1  0.3949970000000  0.5131990000000  0.4972350000000 1.0
C      1  0.4956710000000  0.5133760000000  0.6051790000000 1.0
C      1  0.6046930000000  0.5155490000000  0.5023190000000 1.0
C      1  0.5014000000000  0.4855890000000  0.6048040000000 1.0
C      1  0.3953920000000  0.4853500000000  0.5028540000000 1.0
C      1  0.4956430000000  0.4868600000000  0.3952310000000 1.0
C      1  0.6046660000000  0.4877800000000  0.4968590000000 1.0
C      1  0.4250250000000  0.5116590000000  0.5631060000000 1.0
C      1  0.5613170000000  0.5122940000000  0.5747420000000 1.0
C      1  0.5666920000000  0.5130300000000  0.4434860000000 1.0
C      1  0.4359310000000  0.5127430000000  0.4262400000000 1.0
C      1  0.4251030000000  0.4870980000000  0.4369910000000 1.0
C      1  0.5592400000000  0.4889950000000  0.4264460000000 1.0
C      1  0.5738390000000  0.4885620000000  0.5625620000000 1.0
C      1  0.4360830000000  0.4861560000000  0.5741080000000 1.0
C      1  0.4576440000000  0.5091290000000  0.4086020000000 1.0
C      1  0.4083430000000  0.5075170000000  0.5409480000000 1.0
C      1  0.5397540000000  0.5083080000000  0.5919580000000 1.0
C      1  0.5909550000000  0.5098210000000  0.4591910000000 1.0
C      1  0.4575830000000  0.4903250000000  0.5919290000000 1.0
C      1  0.4080170000000  0.4908430000000  0.4589670000000 1.0
C      1  0.5390940000000  0.4926990000000  0.4080590000000 1.0
C      1  0.5912030000000  0.4932140000000  0.5408860000000 1.0
C      1  0.5260440000000  0.5434800000000  0.5027950000000 1.0
C      1  0.5158560000000  0.5454680000000  0.4759320000000 1.0
C      1  0.4889730000000  0.5502960000000  0.4866130000000 1.0
C      1  0.5002260000000  0.5511850000000  0.5134970000000 1.0
C      1  0.5150910000000  0.4472180000000  0.4974680000000 1.0
C      1  0.5029930000000  0.4520580000000  0.5242600000000 1.0
C      1  0.4766600000000  0.4542000000000  0.5122130000000 1.0
C      1  0.4886140000000  0.4496260000000  0.4861480000000 1.0
C      1  0.4792130000000  0.4197680000000  0.4415540000000 1.0
C      1  0.4416790000000  0.4185040000000  0.5198950000000 1.0
C      1  0.5198060000000  0.4195140000000  0.5572750000000 1.0
C      1  0.5566040000000  0.4210750000000  0.4788250000000 1.0
C      1  0.4779110000000  0.5794470000000  0.5587850000000 1.0
C      1  0.4409140000000  0.5794820000000  0.4804110000000 1.0
C      1  0.5187760000000  0.5821170000000  0.4420520000000 1.0
C      1  0.5558760000000  0.5808860000000  0.5206950000000 1.0
C      1  0.5393740000000  0.5795810000000  0.5453480000000 1.0
C      1  0.5436920000000  0.5823290000000  0.4582430000000 1.0
C      1  0.4568120000000  0.5795830000000  0.4555910000000 1.0
C      1  0.4536270000000  0.5783420000000  0.5422700000000 1.0
C      1  0.5400010000000  0.4205660000000  0.4544250000000 1.0
C      1  0.5444710000000  0.4204440000000  0.5408560000000 1.0
C      1  0.4580120000000  0.4192260000000  0.5444770000000 1.0
C      1  0.4548110000000  0.4202670000000  0.4581070000000 1.0
C      1  0.5788400000000  0.4602470000000  0.4646360000000 1.0
C      1  0.4633790000000  0.4588450000000  0.4194730000000 1.0
C      1  0.4190520000000  0.4574360000000  0.5355150000000 1.0
C      1  0.5333270000000  0.4591290000000  0.5795880000000 1.0
C      1  0.5778080000000  0.5414860000000  0.5338070000000 1.0
C      1  0.4625730000000  0.5406100000000  0.5812290000000 1.0
C      1  0.4189980000000  0.5407310000000  0.4649070000000 1.0
C      1  0.5341320000000  0.5432490000000  0.4190910000000 1.0
C      1  0.5126690000000  0.4778880000000  0.5314820000000 1.0
C      1  0.5308030000000  0.4702500000000  0.4916490000000 1.0
C      1  0.4859950000000  0.4701630000000  0.4687170000000 1.0
C      1  0.4633290000000  0.4776830000000  0.5164850000000 1.0
C      1  0.5205900000000  0.5210510000000  0.4648170000000 1.0
C      1  0.5340830000000  0.5169520000000  0.5104940000000 1.0
C      1  0.4913940000000  0.5331510000000  0.5313720000000 1.0
C      1  0.4708800000000  0.5304470000000  0.4820870000000 1.0
C      1  0.5113570000000  0.4403000000000  0.5749210000000 1.0
C      1  0.5749710000000  0.4410590000000  0.4861040000000 1.0
C      1  0.4861510000000  0.4398850000000  0.4228400000000 1.0
C      1  0.4238340000000  0.4392040000000  0.5121740000000 1.0
C      1  0.5107790000000  0.5612850000000  0.4242180000000 1.0
C      1  0.5736120000000  0.5602430000000  0.5118200000000 1.0
C      1  0.4854520000000  0.5595060000000  0.5772680000000 1.0
C      1  0.4230510000000  0.5591500000000  0.4883310000000 1.0
C      1  0.5153810000000  0.4923440000000  0.5052390000000 1.0
END
