TITL C-97903-1518-2 -0.0972276504321499 125000 -139.295357299587 0 0 21 (C2) n - 1
REM
REM in /rds/project/t2_vol4/rds-t2-cs072/BORA/CARBON/from-Arr/AIRSS/Generating-Clusters/GAP-ML-2020/Higher-Symm/SD-CG/HFTN-CG
REM
REM
REM
REM
REM
REM ./C.cell (b20cbc046b6831c77cfcea5457e17084)
REM AIRSS Version 0.9.1 bugfix July 2018 build 013d7b7c2542+ Fri, 06 Jul 2018 19:26:36 +0100
REM compiler GCC version 9.3.0
REM options -cpp -mtune=generic -march=x86-64 -g -O0
REM seed -1690472896 1245162447 -373651430 -502320063 -2031302689 217270242 1513332536 -1100648122 -78268780 1412528945 15185463 1213713144 1470417257 1378903260 1862906225 -1190163341 -1599213977 750174184 919071730 -1522170774 -1152322273 -124979556 1461947898 942193332 -806021964 1968230910 -1027244155 298976877 -1396986074 -303260051 -2096950014 -1166699208 -1931178243
REM
CELL 1.54180   50.00000   50.00000   50.00000   90.00000   90.00000   90.00000
LATT -1
SFAC C  
C      1  0.5452500000000  0.4749460000000  0.4934750000000 1.0
C      1  0.5453030000000  0.5220050000000  0.5087730000000 1.0
C      1  0.4843030000000  0.4553240000000  0.5189450000000 1.0
C      1  0.4846880000000  0.5419410000000  0.4827600000000 1.0
C      1  0.5038430000000  0.5258950000000  0.5624080000000 1.0
C      1  0.5042510000000  0.4712690000000  0.4394720000000 1.0
C      1  0.4503390000000  0.4904080000000  0.5102160000000 1.0
C      1  0.4504670000000  0.5070340000000  0.4911850000000 1.0
C      1  0.4862370000000  0.5055060000000  0.5661690000000 1.0
C      1  0.4867840000000  0.4917490000000  0.4355540000000 1.0
C      1  0.5169500000000  0.4599860000000  0.4585080000000 1.0
C      1  0.5167710000000  0.5371120000000  0.5434870000000 1.0
C      1  0.5252380000000  0.4572130000000  0.4858830000000 1.0
C      1  0.5253170000000  0.5398410000000  0.5161860000000 1.0
C      1  0.4734200000000  0.4881930000000  0.5524170000000 1.0
C      1  0.4739350000000  0.5091290000000  0.4491910000000 1.0
C      1  0.5041980000000  0.4496620000000  0.5047600000000 1.0
C      1  0.5044850000000  0.5475010000000  0.4971230000000 1.0
C      1  0.4653420000000  0.5232390000000  0.4721830000000 1.0
C      1  0.4649600000000  0.4741270000000  0.5293500000000 1.0
C      1  0.5535860000000  0.4984540000000  0.5011610000000 1.0
END
