TITL C-97914-1733-7 652.780147769789 125000 -271.824229872784 0 0 39 (C3) n - 1
REM
REM in /rds/project/t2_vol4/rds-t2-cs072/BORA/CARBON/from-Arr/AIRSS/Generating-Clusters/GAP-ML-2020/Higher-Symm/SD-CG/HFTN-CG
REM
REM
REM
REM
REM
REM ./C.cell (b20cbc046b6831c77cfcea5457e17084)
REM AIRSS Version 0.9.1 bugfix July 2018 build 013d7b7c2542+ Fri, 06 Jul 2018 19:26:36 +0100
REM compiler GCC version 9.3.0
REM options -cpp -mtune=generic -march=x86-64 -g -O0
REM seed 1977938582 -1287306645 1474558218 -937970262 -535651579 -536776120 1597196656 215117935 414842574 43982316 -1670290389 -1028981649 -45010545 2015275697 -2100460445 567819446 -1423571595 888882411 1491315625 -1484691821 2041106939 832832138 306838859 1461532061 -799070166 -1772159263 -1785696927 711845152 -284649097 10779403 -1047076650 -741208817 1705708201
REM
CELL 1.54180   50.00000   50.00000   50.00000   90.00000   90.00000   90.00000
LATT -1
SFAC C  
C      1  0.4915190000000  0.4546030000000  0.5275330000000 1.0
C      1  0.5315960000000  0.4565080000000  0.4990160000000 1.0
C      1  0.4870080000000  0.4524340000000  0.4785640000000 1.0
C      1  0.4590770000000  0.5460470000000  0.4634550000000 1.0
C      1  0.4848350000000  0.5511200000000  0.5478270000000 1.0
C      1  0.5449370000000  0.5531520000000  0.4830850000000 1.0
C      1  0.4469200000000  0.5456160000000  0.4859880000000 1.0
C      1  0.5103880000000  0.5526150000000  0.5471010000000 1.0
C      1  0.5316240000000  0.5509750000000  0.4613200000000 1.0
C      1  0.4709710000000  0.4519880000000  0.4559930000000 1.0
C      1  0.4798670000000  0.4562680000000  0.5525980000000 1.0
C      1  0.5589330000000  0.4600250000000  0.4963440000000 1.0
C      1  0.5525070000000  0.4958490000000  0.5276560000000 1.0
C      1  0.4984850000000  0.4886170000000  0.4416290000000 1.0
C      1  0.4510160000000  0.4884720000000  0.5317290000000 1.0
C      1  0.5537370000000  0.5316150000000  0.4983570000000 1.0
C      1  0.4696760000000  0.5235990000000  0.4508740000000 1.0
C      1  0.4704670000000  0.5272860000000  0.5476770000000 1.0
C      1  0.4570650000000  0.4988750000000  0.4599220000000 1.0
C      1  0.4864490000000  0.5046910000000  0.5569670000000 1.0
C      1  0.5557000000000  0.5070460000000  0.4827130000000 1.0
C      1  0.5486760000000  0.5239500000000  0.5261160000000 1.0
C      1  0.4968370000000  0.5169650000000  0.4423180000000 1.0
C      1  0.4502080000000  0.5167690000000  0.5294040000000 1.0
C      1  0.5300680000000  0.4831040000000  0.5402780000000 1.0
C      1  0.5214620000000  0.4793130000000  0.4561440000000 1.0
C      1  0.4530310000000  0.4761000000000  0.5058810000000 1.0
C      1  0.4729560000000  0.4776660000000  0.4488980000000 1.0
C      1  0.4707310000000  0.4813400000000  0.5513500000000 1.0
C      1  0.5603830000000  0.4861350000000  0.5018080000000 1.0
C      1  0.5191690000000  0.4609510000000  0.5252070000000 1.0
C      1  0.5154840000000  0.4588210000000  0.4756650000000 1.0
C      1  0.4745000000000  0.4568340000000  0.5037520000000 1.0
C      1  0.4472670000000  0.4974120000000  0.4864720000000 1.0
C      1  0.5144050000000  0.5048610000000  0.5523390000000 1.0
C      1  0.5379240000000  0.5031830000000  0.4609850000000 1.0
C      1  0.5228800000000  0.5264440000000  0.4510590000000 1.0
C      1  0.4442390000000  0.5225020000000  0.5015470000000 1.0
C      1  0.5270060000000  0.5302490000000  0.5444260000000 1.0
END
