TITL C-97922-1590-3 0.124489794740263 125000 -310.625868242762 0 0 46 (C1) n - 1
REM
REM in /rds/project/t2_vol4/rds-t2-cs072/BORA/CARBON/from-Arr/AIRSS/Generating-Clusters/GAP-ML-2020/Higher-Symm/SD-CG/HFTN-CG
REM
REM
REM
REM
REM
REM ./C.cell (b20cbc046b6831c77cfcea5457e17084)
REM AIRSS Version 0.9.1 bugfix July 2018 build 013d7b7c2542+ Fri, 06 Jul 2018 19:26:36 +0100
REM compiler GCC version 9.3.0
REM options -cpp -mtune=generic -march=x86-64 -g -O0
REM seed -1994329759 347958335 -1305252875 -1859674285 -756809637 920299759 -1061399620 320575647 -850717363 1835125426 562022696 469912564 1129722172 -2012745711 -646226925 -1440186800 -1718547107 -1322105569 492465987 -792230618 -1165099183 1636561988 -1607190817 2077479900 -460150886 2038537573 420897430 -357225099 -1432494956 -1847172829 -44782855 -1559025 1197394504
REM
CELL 1.54180   50.00000   50.00000   50.00000   90.00000   90.00000   90.00000
LATT -1
SFAC C  
C      1  0.5165090000000  0.4871400000000  0.4485530000000 1.0
C      1  0.5526250000000  0.4945780000000  0.4778280000000 1.0
C      1  0.5596650000000  0.4972680000000  0.5271170000000 1.0
C      1  0.5427700000000  0.4695830000000  0.4822920000000 1.0
C      1  0.5314420000000  0.4652440000000  0.5084100000000 1.0
C      1  0.5065150000000  0.5557720000000  0.5042580000000 1.0
C      1  0.4426090000000  0.5292550000000  0.5103060000000 1.0
C      1  0.4505080000000  0.4565190000000  0.4526450000000 1.0
C      1  0.4958530000000  0.4918440000000  0.5413640000000 1.0
C      1  0.4380490000000  0.4843420000000  0.4938910000000 1.0
C      1  0.4882720000000  0.4915150000000  0.4488890000000 1.0
C      1  0.4851500000000  0.5438760000000  0.4594830000000 1.0
C      1  0.5118700000000  0.4262750000000  0.4852170000000 1.0
C      1  0.4808550000000  0.5550100000000  0.5177410000000 1.0
C      1  0.4556050000000  0.5178920000000  0.5332010000000 1.0
C      1  0.4999610000000  0.4918250000000  0.4927000000000 1.0
C      1  0.5080430000000  0.5493570000000  0.4750560000000 1.0
C      1  0.5313680000000  0.5333720000000  0.4708640000000 1.0
C      1  0.4750200000000  0.4681070000000  0.4628600000000 1.0
C      1  0.4767360000000  0.5358550000000  0.5395400000000 1.0
C      1  0.5171820000000  0.5361860000000  0.5630640000000 1.0
C      1  0.4505690000000  0.5227630000000  0.4646580000000 1.0
C      1  0.5311920000000  0.5474220000000  0.5160530000000 1.0
C      1  0.4663470000000  0.4913660000000  0.5328650000000 1.0
C      1  0.5363430000000  0.5359900000000  0.5430040000000 1.0
C      1  0.5587450000000  0.5092030000000  0.5008200000000 1.0
C      1  0.5339320000000  0.4614480000000  0.5512460000000 1.0
C      1  0.4581240000000  0.5517510000000  0.5005160000000 1.0
C      1  0.4604680000000  0.5490060000000  0.4728020000000 1.0
C      1  0.4855210000000  0.5138530000000  0.4956500000000 1.0
C      1  0.5065990000000  0.4647970000000  0.5516560000000 1.0
C      1  0.5143790000000  0.4909120000000  0.5167730000000 1.0
C      1  0.4967890000000  0.5211700000000  0.5531910000000 1.0
C      1  0.5462040000000  0.5340660000000  0.4957120000000 1.0
C      1  0.4373800000000  0.5122690000000  0.4886680000000 1.0
C      1  0.5567300000000  0.5172190000000  0.5452250000000 1.0
C      1  0.4599270000000  0.4752940000000  0.5105930000000 1.0
C      1  0.4983970000000  0.4461210000000  0.5331500000000 1.0
C      1  0.5350990000000  0.5074400000000  0.4591040000000 1.0
C      1  0.5270060000000  0.4622350000000  0.4598870000000 1.0
C      1  0.5047990000000  0.4475980000000  0.5058560000000 1.0
C      1  0.4377490000000  0.4702180000000  0.4699690000000 1.0
C      1  0.5495420000000  0.4693460000000  0.5308350000000 1.0
C      1  0.4757090000000  0.5168250000000  0.4503730000000 1.0
C      1  0.4832000000000  0.4663340000000  0.4929870000000 1.0
C      1  0.5226430000000  0.4345380000000  0.4631270000000 1.0
END
