TITL C-97914-1733-4 0.0053895251572358 125000 -291.833036425594 0 0 44 (C1) n - 1
REM
REM in /rds/project/t2_vol4/rds-t2-cs072/BORA/CARBON/from-Arr/AIRSS/Generating-Clusters/GAP-ML-2020/Higher-Symm/SD-CG/HFTN-CG
REM
REM
REM
REM
REM
REM ./C.cell (b20cbc046b6831c77cfcea5457e17084)
REM AIRSS Version 0.9.1 bugfix July 2018 build 013d7b7c2542+ Fri, 06 Jul 2018 19:26:36 +0100
REM compiler GCC version 9.3.0
REM options -cpp -mtune=generic -march=x86-64 -g -O0
REM seed 742855546 980158860 -1710283722 -1575136315 -207137682 -1292391983 -1847099830 856270916 192065111 -1678933420 -130263777 -175897978 732537667 1817504036 1411841249 711299962 167658440 777133030 1376379005 -1468771478 41527768 -1337766412 -133541778 1851346217 -1018281195 -1813909063 -1427974973 1516739159 1991754051 2130299507 1972375087 569184938 -1635397114
REM
CELL 1.54180   50.00000   50.00000   50.00000   90.00000   90.00000   90.00000
LATT -1
SFAC C  
C      1  0.4833320000000  0.4731090000000  0.4587480000000 1.0
C      1  0.4731930000000  0.4682940000000  0.5254550000000 1.0
C      1  0.5467780000000  0.4783230000000  0.5016860000000 1.0
C      1  0.4847280000000  0.5289910000000  0.4461600000000 1.0
C      1  0.4748950000000  0.5301620000000  0.5363030000000 1.0
C      1  0.5396980000000  0.5378710000000  0.5126030000000 1.0
C      1  0.5124110000000  0.4643890000000  0.4571710000000 1.0
C      1  0.5271340000000  0.4736660000000  0.5424530000000 1.0
C      1  0.4509940000000  0.4674950000000  0.5052540000000 1.0
C      1  0.5142050000000  0.5240330000000  0.4517190000000 1.0
C      1  0.5333550000000  0.5392010000000  0.5431300000000 1.0
C      1  0.4599980000000  0.5355840000000  0.5106400000000 1.0
C      1  0.5177570000000  0.4479760000000  0.4799750000000 1.0
C      1  0.4472910000000  0.4461180000000  0.4877000000000 1.0
C      1  0.5213560000000  0.4492810000000  0.5280200000000 1.0
C      1  0.5143040000000  0.5489390000000  0.4691220000000 1.0
C      1  0.4753970000000  0.5533480000000  0.4944570000000 1.0
C      1  0.5164300000000  0.5592740000000  0.5521690000000 1.0
C      1  0.4712490000000  0.4517320000000  0.4768570000000 1.0
C      1  0.5365590000000  0.4517380000000  0.5018410000000 1.0
C      1  0.4936530000000  0.4461320000000  0.5206660000000 1.0
C      1  0.4848560000000  0.5494640000000  0.4670540000000 1.0
C      1  0.5221560000000  0.5558640000000  0.4956000000000 1.0
C      1  0.4954860000000  0.5525270000000  0.5369910000000 1.0
C      1  0.5631950000000  0.5232030000000  0.5032290000000 1.0
C      1  0.4676160000000  0.5139650000000  0.4300410000000 1.0
C      1  0.4634750000000  0.5089450000000  0.5545740000000 1.0
C      1  0.5666410000000  0.4978910000000  0.5000740000000 1.0
C      1  0.4726000000000  0.4902580000000  0.4385730000000 1.0
C      1  0.4643190000000  0.4839570000000  0.5498550000000 1.0
C      1  0.4391080000000  0.5174970000000  0.5046730000000 1.0
C      1  0.5291790000000  0.5062000000000  0.4337150000000 1.0
C      1  0.5385760000000  0.5155290000000  0.5569250000000 1.0
C      1  0.4382740000000  0.4923670000000  0.5027670000000 1.0
C      1  0.5271870000000  0.4815720000000  0.4408170000000 1.0
C      1  0.5379640000000  0.4897960000000  0.5622130000000 1.0
C      1  0.4926890000000  0.4859230000000  0.5090760000000 1.0
C      1  0.5225700000000  0.4888510000000  0.5162620000000 1.0
C      1  0.5129820000000  0.5095930000000  0.4780210000000 1.0
C      1  0.5176870000000  0.5180320000000  0.5061150000000 1.0
C      1  0.4913370000000  0.5146530000000  0.5166890000000 1.0
C      1  0.4934890000000  0.4899850000000  0.4807900000000 1.0
C      1  0.4930250000000  0.4417060000000  0.4920500000000 1.0
C      1  0.4978340000000  0.5606940000000  0.5098990000000 1.0
END
