TITL C-97918-1510-8 -25.4488430281494 125000 -756.229592392993 0 0 109 (C1) n - 1
REM
REM in /rds/project/t2_vol4/rds-t2-cs072/BORA/CARBON/from-Arr/AIRSS/Generating-Clusters/GAP-ML-2020/Higher-Symm/SD-CG/HFTN-CG
REM
REM
REM
REM
REM
REM ./C.cell (b20cbc046b6831c77cfcea5457e17084)
REM AIRSS Version 0.9.1 bugfix July 2018 build 013d7b7c2542+ Fri, 06 Jul 2018 19:26:36 +0100
REM compiler GCC version 9.3.0
REM options -cpp -mtune=generic -march=x86-64 -g -O0
REM seed -809807995 122130130 -1275421600 1543044307 -153592590 2086032348 1869445510 70439612 -2027293983 1365678071 198053377 1603624029 -1500787914 1471843713 -1237927237 -819233182 -1661765625 629261149 1039405943 -1318983892 240689802 2094681144 -1212605194 745474809 -538201496 496598621 -913261852 1312955961 1101019286 -1906323992 1813078053 736294281 -1713449798
REM
CELL 1.54180   50.00000   50.00000   50.00000   90.00000   90.00000   90.00000
LATT -1
SFAC C  
C      1  0.5190500000000  0.5419760000000  0.5774500000000 1.0
C      1  0.4557720000000  0.5351910000000  0.5638700000000 1.0
C      1  0.4224010000000  0.5346670000000  0.4998350000000 1.0
C      1  0.4506210000000  0.5329620000000  0.4430690000000 1.0
C      1  0.5133620000000  0.5341370000000  0.4279970000000 1.0
C      1  0.5689540000000  0.5353980000000  0.4647150000000 1.0
C      1  0.5676120000000  0.5377230000000  0.5327700000000 1.0
C      1  0.4916900000000  0.5925300000000  0.5334150000000 1.0
C      1  0.4702170000000  0.5874280000000  0.5155550000000 1.0
C      1  0.4681520000000  0.5909860000000  0.4876370000000 1.0
C      1  0.4817530000000  0.5988820000000  0.4420630000000 1.0
C      1  0.5184680000000  0.5925600000000  0.4737250000000 1.0
C      1  0.5311400000000  0.5919090000000  0.4992210000000 1.0
C      1  0.5198970000000  0.5937880000000  0.5256490000000 1.0
C      1  0.4486850000000  0.5159620000000  0.5410380000000 1.0
C      1  0.4181280000000  0.5136250000000  0.4796250000000 1.0
C      1  0.4649150000000  0.5129290000000  0.4273650000000 1.0
C      1  0.5355150000000  0.5150690000000  0.4316960000000 1.0
C      1  0.5786000000000  0.5153270000000  0.4838640000000 1.0
C      1  0.5622650000000  0.5194840000000  0.5545380000000 1.0
C      1  0.4991060000000  0.5204620000000  0.5827350000000 1.0
C      1  0.5301360000000  0.4133810000000  0.5112250000000 1.0
C      1  0.5058110000000  0.4147590000000  0.5295540000000 1.0
C      1  0.4746360000000  0.4101720000000  0.5261410000000 1.0
C      1  0.4635790000000  0.4196690000000  0.4997400000000 1.0
C      1  0.4758310000000  0.4156290000000  0.4720490000000 1.0
C      1  0.5048140000000  0.4140460000000  0.4646390000000 1.0
C      1  0.5293920000000  0.4141930000000  0.4825500000000 1.0
C      1  0.4638850000000  0.4697830000000  0.4923970000000 1.0
C      1  0.4801530000000  0.4652100000000  0.4696300000000 1.0
C      1  0.5077220000000  0.4603620000000  0.4760570000000 1.0
C      1  0.5391730000000  0.4725260000000  0.5069760000000 1.0
C      1  0.5060800000000  0.4445410000000  0.5262110000000 1.0
C      1  0.4814960000000  0.4551220000000  0.5365000000000 1.0
C      1  0.4632660000000  0.4514200000000  0.5134530000000 1.0
C      1  0.5305830000000  0.5734330000000  0.4557230000000 1.0
C      1  0.5514990000000  0.5718300000000  0.4996760000000 1.0
C      1  0.5344380000000  0.5764630000000  0.5431570000000 1.0
C      1  0.4883220000000  0.5757480000000  0.5564240000000 1.0
C      1  0.4555610000000  0.5631110000000  0.5244610000000 1.0
C      1  0.4496890000000  0.5711670000000  0.4783350000000 1.0
C      1  0.4842390000000  0.5718550000000  0.4409180000000 1.0
C      1  0.4226720000000  0.4439360000000  0.4814930000000 1.0
C      1  0.4656570000000  0.4440310000000  0.4293340000000 1.0
C      1  0.5333270000000  0.4423160000000  0.4315200000000 1.0
C      1  0.5720610000000  0.4449610000000  0.4837740000000 1.0
C      1  0.5593010000000  0.4409950000000  0.5474070000000 1.0
C      1  0.4978610000000  0.4347810000000  0.5743630000000 1.0
C      1  0.4356880000000  0.4446180000000  0.5498410000000 1.0
C      1  0.4592580000000  0.4204520000000  0.5483100000000 1.0
C      1  0.4347130000000  0.4257320000000  0.5004500000000 1.0
C      1  0.4578350000000  0.4260000000000  0.4518240000000 1.0
C      1  0.5102680000000  0.4252310000000  0.4386780000000 1.0
C      1  0.5534750000000  0.4261960000000  0.4714400000000 1.0
C      1  0.5528490000000  0.4275370000000  0.5223620000000 1.0
C      1  0.5140600000000  0.4171740000000  0.5578660000000 1.0
C      1  0.4161230000000  0.4932990000000  0.5017760000000 1.0
C      1  0.4440140000000  0.4924490000000  0.4354710000000 1.0
C      1  0.5157510000000  0.4914760000000  0.4329340000000 1.0
C      1  0.5663070000000  0.4931160000000  0.4665850000000 1.0
C      1  0.5641890000000  0.4952340000000  0.5371080000000 1.0
C      1  0.5203720000000  0.5020140000000  0.5771820000000 1.0
C      1  0.4627740000000  0.4925910000000  0.5581750000000 1.0
C      1  0.5305360000000  0.5410540000000  0.4874720000000 1.0
C      1  0.5389170000000  0.5168810000000  0.4998530000000 1.0
C      1  0.5183220000000  0.5105050000000  0.5206570000000 1.0
C      1  0.4998290000000  0.5335010000000  0.5212080000000 1.0
C      1  0.4685260000000  0.5320760000000  0.5224010000000 1.0
C      1  0.4662920000000  0.5224710000000  0.4947980000000 1.0
C      1  0.4827130000000  0.5387240000000  0.4777330000000 1.0
C      1  0.5404260000000  0.4924480000000  0.4835190000000 1.0
C      1  0.5362850000000  0.4871150000000  0.5345550000000 1.0
C      1  0.5167440000000  0.4801060000000  0.5584940000000 1.0
C      1  0.4887770000000  0.4825910000000  0.5432190000000 1.0
C      1  0.4766840000000  0.4962060000000  0.4958880000000 1.0
C      1  0.4892650000000  0.4942480000000  0.4694750000000 1.0
C      1  0.5170380000000  0.4867380000000  0.4648520000000 1.0
C      1  0.5723900000000  0.4635180000000  0.4615130000000 1.0
C      1  0.5713210000000  0.4652660000000  0.5360960000000 1.0
C      1  0.5193300000000  0.4537670000000  0.5731450000000 1.0
C      1  0.4521920000000  0.4637850000000  0.5642970000000 1.0
C      1  0.4171480000000  0.4649220000000  0.5022120000000 1.0
C      1  0.4438090000000  0.4635030000000  0.4358630000000 1.0
C      1  0.5154190000000  0.4630640000000  0.4205000000000 1.0
C      1  0.5671890000000  0.5162980000000  0.5118590000000 1.0
C      1  0.5402730000000  0.5222160000000  0.5722850000000 1.0
C      1  0.4715270000000  0.5154070000000  0.5770940000000 1.0
C      1  0.4246090000000  0.5139640000000  0.5210640000000 1.0
C      1  0.4319320000000  0.5132870000000  0.4537040000000 1.0
C      1  0.4938720000000  0.5128530000000  0.4240620000000 1.0
C      1  0.5596370000000  0.5153720000000  0.4462490000000 1.0
C      1  0.5116880000000  0.5613200000000  0.4369960000000 1.0
C      1  0.5504360000000  0.5577290000000  0.4728230000000 1.0
C      1  0.5558840000000  0.5632000000000  0.5273450000000 1.0
C      1  0.5154890000000  0.5666750000000  0.5638730000000 1.0
C      1  0.4629650000000  0.5612750000000  0.5544360000000 1.0
C      1  0.4361580000000  0.5592580000000  0.5006460000000 1.0
C      1  0.4637590000000  0.5551430000000  0.4562560000000 1.0
C      1  0.5376290000000  0.4344780000000  0.5626710000000 1.0
C      1  0.4733310000000  0.4417930000000  0.5624640000000 1.0
C      1  0.4331210000000  0.4480990000000  0.5216880000000 1.0
C      1  0.4342390000000  0.4436270000000  0.4560400000000 1.0
C      1  0.4928490000000  0.4439250000000  0.4236270000000 1.0
C      1  0.5558600000000  0.4432310000000  0.4475040000000 1.0
C      1  0.5628450000000  0.4529010000000  0.5097930000000 1.0
C      1  0.5037820000000  0.5449620000000  0.4953290000000 1.0
C      1  0.4975960000000  0.4901760000000  0.5152260000000 1.0
C      1  0.4897240000000  0.5976580000000  0.4686470000000 1.0
C      1  0.5117540000000  0.4635840000000  0.5049050000000 1.0
END
