TITL C-97913-1686-2 -0.0974083531002529 125000 -672.913260937191 0 0 96 (C3) n - 1
REM
REM in /rds/project/t2_vol4/rds-t2-cs072/BORA/CARBON/from-Arr/AIRSS/Generating-Clusters/GAP-ML-2020/Higher-Symm/SD-CG/HFTN-CG
REM
REM
REM
REM
REM
REM ./C.cell (b20cbc046b6831c77cfcea5457e17084)
REM AIRSS Version 0.9.1 bugfix July 2018 build 013d7b7c2542+ Fri, 06 Jul 2018 19:26:36 +0100
REM compiler GCC version 9.3.0
REM options -cpp -mtune=generic -march=x86-64 -g -O0
REM seed 1898105540 1367632393 -783580531 1729830266 -2049540412 -892578734 -796917552 -395214694 -541944244 1810618887 -1903247457 175263020 -1788469934 -1926685264 -1252410979 -710332490 1141161020 389822148 -370720494 176681615 -1805166837 110659402 1247445485 -262666527 -251000616 -336714505 -407949354 812599647 -210571391 1743345640 584299989 -756565447 556665258
REM
CELL 1.54180   50.00000   50.00000   50.00000   90.00000   90.00000   90.00000
LATT -1
SFAC C  
C      1  0.5737310000000  0.4537410000000  0.4983840000000 1.0
C      1  0.5737320000000  0.5217310000000  0.5408690000000 1.0
C      1  0.5737310000000  0.5245290000000  0.4607450000000 1.0
C      1  0.5770420000000  0.5114740000000  0.5124380000000 1.0
C      1  0.5770420000000  0.5050350000000  0.4838430000000 1.0
C      1  0.5770420000000  0.4834910000000  0.5037160000000 1.0
C      1  0.5062860000000  0.5284400000000  0.4919350000000 1.0
C      1  0.5062850000000  0.4787960000000  0.4794030000000 1.0
C      1  0.5062860000000  0.4927650000000  0.5286620000000 1.0
C      1  0.4574830000000  0.5482690000000  0.5620650000000 1.0
C      1  0.4574820000000  0.5296150000000  0.4271660000000 1.0
C      1  0.4574830000000  0.4221160000000  0.5107700000000 1.0
C      1  0.5363750000000  0.4977450000000  0.5285960000000 1.0
C      1  0.5363740000000  0.5258930000000  0.4876540000000 1.0
C      1  0.5363740000000  0.4763620000000  0.4837480000000 1.0
C      1  0.5513210000000  0.5427400000000  0.5372210000000 1.0
C      1  0.5513200000000  0.5108650000000  0.4443750000000 1.0
C      1  0.5513210000000  0.4463960000000  0.5184020000000 1.0
C      1  0.5027490000000  0.4758320000000  0.5584410000000 1.0
C      1  0.5027480000000  0.5626950000000  0.4917100000000 1.0
C      1  0.5027480000000  0.4614730000000  0.4498490000000 1.0
C      1  0.4496550000000  0.5215700000000  0.5692040000000 1.0
C      1  0.4496540000000  0.5491470000000  0.4467190000000 1.0
C      1  0.4496540000000  0.4292830000000  0.4840790000000 1.0
C      1  0.5229790000000  0.5541440000000  0.4412520000000 1.0
C      1  0.5229800000000  0.4220510000000  0.4824830000000 1.0
C      1  0.5229810000000  0.5238050000000  0.5762640000000 1.0
C      1  0.4331430000000  0.4945990000000  0.4498900000000 1.0
C      1  0.4331440000000  0.4593040000000  0.5297330000000 1.0
C      1  0.4331440000000  0.5460980000000  0.5203780000000 1.0
C      1  0.4683380000000  0.4818140000000  0.4231070000000 1.0
C      1  0.4683390000000  0.4425010000000  0.5541960000000 1.0
C      1  0.4683390000000  0.5756850000000  0.5226980000000 1.0
C      1  0.4492790000000  0.5615950000000  0.5387040000000 1.0
C      1  0.4492780000000  0.5027210000000  0.4273060000000 1.0
C      1  0.4492790000000  0.4356850000000  0.5339920000000 1.0
C      1  0.4785140000000  0.4438190000000  0.4476940000000 1.0
C      1  0.4785150000000  0.4827920000000  0.5748080000000 1.0
C      1  0.4785140000000  0.5733890000000  0.4774990000000 1.0
C      1  0.5416390000000  0.5017440000000  0.5767670000000 1.0
C      1  0.5416380000000  0.5656110000000  0.4601050000000 1.0
C      1  0.5416380000000  0.4326450000000  0.4631260000000 1.0
C      1  0.5293900000000  0.5762620000000  0.4834680000000 1.0
C      1  0.5293900000000  0.4475520000000  0.4422200000000 1.0
C      1  0.5293910000000  0.4761850000000  0.5743100000000 1.0
C      1  0.5273450000000  0.5407600000000  0.5544720000000 1.0
C      1  0.5273430000000  0.5267950000000  0.4374640000000 1.0
C      1  0.5273440000000  0.4324450000000  0.5080630000000 1.0
C      1  0.5571470000000  0.4523520000000  0.4752420000000 1.0
C      1  0.5571480000000  0.5023840000000  0.5536420000000 1.0
C      1  0.5571470000000  0.5452640000000  0.4711140000000 1.0
C      1  0.4575940000000  0.5745690000000  0.4959240000000 1.0
C      1  0.4575940000000  0.4591850000000  0.4374600000000 1.0
C      1  0.4575950000000  0.4662460000000  0.5666170000000 1.0
C      1  0.4378430000000  0.5184870000000  0.5247680000000 1.0
C      1  0.4378430000000  0.5122060000000  0.4716060000000 1.0
C      1  0.4378430000000  0.4693070000000  0.5036270000000 1.0
C      1  0.4979020000000  0.4845920000000  0.4289170000000 1.0
C      1  0.4979030000000  0.4461450000000  0.5488850000000 1.0
C      1  0.4979030000000  0.5692640000000  0.5221980000000 1.0
C      1  0.4851590000000  0.5327280000000  0.4257030000000 1.0
C      1  0.4851600000000  0.4192930000000  0.5088060000000 1.0
C      1  0.4851610000000  0.5479790000000  0.5654920000000 1.0
C      1  0.4935530000000  0.5193950000000  0.5205060000000 1.0
C      1  0.4935530000000  0.5080610000000  0.4729500000000 1.0
C      1  0.4935530000000  0.4725440000000  0.5065440000000 1.0
C      1  0.5419760000000  0.4516120000000  0.5702410000000 1.0
C      1  0.5419750000000  0.5850250000000  0.5067840000000 1.0
C      1  0.5419750000000  0.4633630000000  0.4229740000000 1.0
C      1  0.4949130000000  0.5574180000000  0.4352430000000 1.0
C      1  0.4949140000000  0.4152100000000  0.4826530000000 1.0
C      1  0.4949150000000  0.5273720000000  0.5821040000000 1.0
C      1  0.5010970000000  0.5449850000000  0.5404180000000 1.0
C      1  0.5010960000000  0.5125100000000  0.4408320000000 1.0
C      1  0.5010970000000  0.4425040000000  0.5187500000000 1.0
C      1  0.4654970000000  0.5115100000000  0.5128620000000 1.0
C      1  0.4654960000000  0.5053840000000  0.4836010000000 1.0
C      1  0.4654960000000  0.4831060000000  0.5035370000000 1.0
C      1  0.4346940000000  0.4533500000000  0.4799930000000 1.0
C      1  0.4346940000000  0.5059980000000  0.5504050000000 1.0
C      1  0.4346940000000  0.5406520000000  0.4696040000000 1.0
C      1  0.5464020000000  0.5013180000000  0.4734150000000 1.0
C      1  0.5464020000000  0.4763180000000  0.5121500000000 1.0
C      1  0.5464020000000  0.5223640000000  0.5144340000000 1.0
C      1  0.5485040000000  0.5715870000000  0.5307700000000 1.0
C      1  0.5485030000000  0.4908540000000  0.4226180000000 1.0
C      1  0.5485040000000  0.4375590000000  0.5466110000000 1.0
C      1  0.5233980000000  0.5838700000000  0.5291260000000 1.0
C      1  0.5233970000000  0.4832890000000  0.4128030000000 1.0
C      1  0.5233980000000  0.4328410000000  0.5580700000000 1.0
C      1  0.4361790000000  0.5560100000000  0.4936350000000 1.0
C      1  0.4361780000000  0.4664830000000  0.4546780000000 1.0
C      1  0.4361790000000  0.4775080000000  0.5516890000000 1.0
C      1  0.4728730000000  0.4246540000000  0.4671770000000 1.0
C      1  0.4728740000000  0.5092470000000  0.5816640000000 1.0
C      1  0.4728730000000  0.5660990000000  0.4511600000000 1.0
END
