TITL C-97906-1508-7 -0.179713733268834 125000 -963.452385316853 0 0 141 (C1) n - 1
REM
REM in /rds/project/t2_vol4/rds-t2-cs072/BORA/CARBON/from-Arr/AIRSS/Generating-Clusters/GAP-ML-2020/Higher-Symm/SD-CG/HFTN-CG
REM
REM
REM
REM
REM
REM ./C.cell (b20cbc046b6831c77cfcea5457e17084)
REM AIRSS Version 0.9.1 bugfix July 2018 build 013d7b7c2542+ Fri, 06 Jul 2018 19:26:36 +0100
REM compiler GCC version 9.3.0
REM options -cpp -mtune=generic -march=x86-64 -g -O0
REM seed 340803316 1352079431 2093960113 -1412234008 85992488 1005286436 -1482370363 278687756 1521704141 1755255400 541916680 1950251531 281878128 274650197 724904387 32805651 -887159458 505090763 -1557241932 1198541553 185846662 -1221420681 -261028240 -21832952 321210844 -1787726599 497769057 400385244 -1199669379 -1123290235 -1616755311 -1925879101 184549434
REM
CELL 1.54180   50.00000   50.00000   50.00000   90.00000   90.00000   90.00000
LATT -1
SFAC C  
C      1  0.6003960000000  0.5096150000000  0.4888340000000 1.0
C      1  0.5957210000000  0.5339940000000  0.5037940000000 1.0
C      1  0.5955800000000  0.5166450000000  0.5300760000000 1.0
C      1  0.6005490000000  0.4936650000000  0.5128110000000 1.0
C      1  0.3999040000000  0.5148080000000  0.4955460000000 1.0
C      1  0.3981910000000  0.4920730000000  0.5131490000000 1.0
C      1  0.4003140000000  0.4909060000000  0.5397820000000 1.0
C      1  0.4153300000000  0.5350680000000  0.5085620000000 1.0
C      1  0.5389780000000  0.5316800000000  0.5782840000000 1.0
C      1  0.5394140000000  0.4205340000000  0.5315430000000 1.0
C      1  0.5379790000000  0.4693280000000  0.4205590000000 1.0
C      1  0.5390360000000  0.5763130000000  0.4715000000000 1.0
C      1  0.4614500000000  0.4680620000000  0.5773470000000 1.0
C      1  0.4621690000000  0.5810830000000  0.5319060000000 1.0
C      1  0.4616650000000  0.5327340000000  0.4214580000000 1.0
C      1  0.4606870000000  0.4190740000000  0.4673860000000 1.0
C      1  0.5080230000000  0.4027500000000  0.4628240000000 1.0
C      1  0.5095110000000  0.5357670000000  0.4046620000000 1.0
C      1  0.5090540000000  0.5947580000000  0.5360460000000 1.0
C      1  0.5081890000000  0.4641800000000  0.5938340000000 1.0
C      1  0.4947400000000  0.5956040000000  0.4636740000000 1.0
C      1  0.4926690000000  0.4624470000000  0.4030120000000 1.0
C      1  0.4927670000000  0.4033470000000  0.5361350000000 1.0
C      1  0.4922450000000  0.5364490000000  0.5936580000000 1.0
C      1  0.5253090000000  0.5730950000000  0.5487140000000 1.0
C      1  0.5253520000000  0.4514900000000  0.5724140000000 1.0
C      1  0.5250290000000  0.4256490000000  0.4504440000000 1.0
C      1  0.5266520000000  0.5480380000000  0.4275920000000 1.0
C      1  0.4753020000000  0.4260610000000  0.5481810000000 1.0
C      1  0.4747450000000  0.5492490000000  0.5720520000000 1.0
C      1  0.4765040000000  0.5740510000000  0.4509910000000 1.0
C      1  0.4749120000000  0.4496270000000  0.4259780000000 1.0
C      1  0.5049940000000  0.4659570000000  0.5510860000000 1.0
C      1  0.5053730000000  0.4453340000000  0.4662920000000 1.0
C      1  0.5056300000000  0.5320040000000  0.4464780000000 1.0
C      1  0.5042270000000  0.5524740000000  0.5315480000000 1.0
C      1  0.4940010000000  0.5335920000000  0.5519340000000 1.0
C      1  0.4937180000000  0.5512600000000  0.4652950000000 1.0
C      1  0.4928140000000  0.4638530000000  0.4477070000000 1.0
C      1  0.4941110000000  0.4466570000000  0.5318560000000 1.0
C      1  0.4808030000000  0.4521450000000  0.5905870000000 1.0
C      1  0.4801050000000  0.4064040000000  0.4507840000000 1.0
C      1  0.4814990000000  0.5484140000000  0.4083140000000 1.0
C      1  0.4817470000000  0.5931710000000  0.5481190000000 1.0
C      1  0.5195810000000  0.5478880000000  0.5912090000000 1.0
C      1  0.5218830000000  0.5903550000000  0.4530380000000 1.0
C      1  0.5201090000000  0.4512890000000  0.4070270000000 1.0
C      1  0.5204590000000  0.4075400000000  0.5481700000000 1.0
C      1  0.4682690000000  0.5088530000000  0.4627760000000 1.0
C      1  0.4672310000000  0.5329360000000  0.5077020000000 1.0
C      1  0.4710950000000  0.4898120000000  0.5300100000000 1.0
C      1  0.4655920000000  0.4609010000000  0.4879760000000 1.0
C      1  0.5295490000000  0.4883150000000  0.4629570000000 1.0
C      1  0.5316880000000  0.4622210000000  0.5094650000000 1.0
C      1  0.5285360000000  0.5078710000000  0.5322120000000 1.0
C      1  0.5265790000000  0.5301070000000  0.4899600000000 1.0
C      1  0.4913050000000  0.5978500000000  0.4909980000000 1.0
C      1  0.4888900000000  0.5091250000000  0.5955340000000 1.0
C      1  0.4886770000000  0.3998280000000  0.5087900000000 1.0
C      1  0.4899640000000  0.4900250000000  0.4009960000000 1.0
C      1  0.5122950000000  0.4000610000000  0.4903000000000 1.0
C      1  0.5124740000000  0.4913710000000  0.5960610000000 1.0
C      1  0.5143650000000  0.5979420000000  0.5091210000000 1.0
C      1  0.5139460000000  0.5085630000000  0.4006410000000 1.0
C      1  0.5590310000000  0.5394690000000  0.5580790000000 1.0
C      1  0.5592610000000  0.4426650000000  0.5374410000000 1.0
C      1  0.5580710000000  0.4622110000000  0.4429980000000 1.0
C      1  0.5607780000000  0.5561520000000  0.4643270000000 1.0
C      1  0.4405070000000  0.4605360000000  0.5582650000000 1.0
C      1  0.4403560000000  0.5622960000000  0.5376120000000 1.0
C      1  0.4416890000000  0.5384580000000  0.4429870000000 1.0
C      1  0.4407550000000  0.4411060000000  0.4615950000000 1.0
C      1  0.5517520000000  0.5624250000000  0.5414010000000 1.0
C      1  0.5528930000000  0.4606340000000  0.5608110000000 1.0
C      1  0.5518750000000  0.4379840000000  0.4590160000000 1.0
C      1  0.5533840000000  0.5396560000000  0.4403490000000 1.0
C      1  0.4481770000000  0.4370700000000  0.5402390000000 1.0
C      1  0.4478130000000  0.5416470000000  0.5604520000000 1.0
C      1  0.4489120000000  0.5633500000000  0.4600050000000 1.0
C      1  0.4477710000000  0.4580320000000  0.4374130000000 1.0
C      1  0.5709310000000  0.5490950000000  0.4944010000000 1.0
C      1  0.5709700000000  0.5140540000000  0.5478620000000 1.0
C      1  0.5616920000000  0.4541730000000  0.5094860000000 1.0
C      1  0.5607070000000  0.4904740000000  0.4543490000000 1.0
C      1  0.4363130000000  0.4513220000000  0.4905010000000 1.0
C      1  0.4282250000000  0.4897920000000  0.5501510000000 1.0
C      1  0.4278170000000  0.5603250000000  0.5104230000000 1.0
C      1  0.4384330000000  0.5088250000000  0.4540310000000 1.0
C      1  0.5163970000000  0.4790770000000  0.4394520000000 1.0
C      1  0.5179470000000  0.5568520000000  0.4816020000000 1.0
C      1  0.5202640000000  0.5183390000000  0.5583310000000 1.0
C      1  0.5193150000000  0.4375870000000  0.5173790000000 1.0
C      1  0.4805030000000  0.5168690000000  0.4375960000000 1.0
C      1  0.4798500000000  0.4369770000000  0.4812560000000 1.0
C      1  0.4795200000000  0.4819470000000  0.5571600000000 1.0
C      1  0.4778660000000  0.5598380000000  0.5172210000000 1.0
C      1  0.4395840000000  0.5184960000000  0.5073030000000 1.0
C      1  0.4411720000000  0.4934020000000  0.5226680000000 1.0
C      1  0.4245680000000  0.4784480000000  0.4988250000000 1.0
C      1  0.4249600000000  0.5034620000000  0.4812210000000 1.0
C      1  0.5728700000000  0.4822750000000  0.5069650000000 1.0
C      1  0.5571590000000  0.5067170000000  0.5220500000000 1.0
C      1  0.5564150000000  0.5228390000000  0.4960690000000 1.0
C      1  0.5726390000000  0.4998160000000  0.4804670000000 1.0
C      1  0.4820870000000  0.4274540000000  0.5774880000000 1.0
C      1  0.4812960000000  0.4201280000000  0.4261790000000 1.0
C      1  0.4830550000000  0.5731010000000  0.4216190000000 1.0
C      1  0.4817120000000  0.5786530000000  0.5722550000000 1.0
C      1  0.5187970000000  0.5725500000000  0.5780760000000 1.0
C      1  0.5208570000000  0.5774030000000  0.4282010000000 1.0
C      1  0.5193140000000  0.4266310000000  0.4208350000000 1.0
C      1  0.5196890000000  0.4217510000000  0.5725420000000 1.0
C      1  0.5565420000000  0.5115100000000  0.4329890000000 1.0
C      1  0.5578370000000  0.5687040000000  0.5140770000000 1.0
C      1  0.5578730000000  0.4884540000000  0.5667450000000 1.0
C      1  0.5553320000000  0.4330710000000  0.4872620000000 1.0
C      1  0.4454800000000  0.4865000000000  0.4327870000000 1.0
C      1  0.4444610000000  0.4309710000000  0.5120420000000 1.0
C      1  0.4439560000000  0.5134260000000  0.5665400000000 1.0
C      1  0.4439170000000  0.5721890000000  0.4876790000000 1.0
C      1  0.5213720000000  0.4802840000000  0.5311900000000 1.0
C      1  0.5196350000000  0.4675070000000  0.4827710000000 1.0
C      1  0.5179370000000  0.5144560000000  0.4673240000000 1.0
C      1  0.5129780000000  0.5263170000000  0.5158480000000 1.0
C      1  0.4837570000000  0.5168730000000  0.5257080000000 1.0
C      1  0.4760580000000  0.5318220000000  0.4800170000000 1.0
C      1  0.4786310000000  0.4811740000000  0.4692890000000 1.0
C      1  0.4813800000000  0.4683310000000  0.5130580000000 1.0
C      1  0.4674200000000  0.4997070000000  0.4172730000000 1.0
C      1  0.4679730000000  0.5831340000000  0.5008480000000 1.0
C      1  0.4666470000000  0.4992850000000  0.5790680000000 1.0
C      1  0.4656790000000  0.4155280000000  0.4984350000000 1.0
C      1  0.5386970000000  0.4985260000000  0.4138610000000 1.0
C      1  0.5348150000000  0.4164820000000  0.5005810000000 1.0
C      1  0.5357850000000  0.5018420000000  0.5812160000000 1.0
C      1  0.5392120000000  0.5851450000000  0.4999090000000 1.0
C      1  0.5007130000000  0.4114790000000  0.5887290000000 1.0
C      1  0.5006710000000  0.4103120000000  0.4100990000000 1.0
C      1  0.5027700000000  0.5884590000000  0.4114090000000 1.0
C      1  0.5002060000000  0.5888430000000  0.5888840000000 1.0
C      1  0.4978750000000  0.4829630000000  0.4919950000000 1.0
END
