TITL C-97918-1510-4 -3.70561610173557 125000 -717.915444065075 0 0 102 (C2) n - 1
REM
REM in /rds/project/t2_vol4/rds-t2-cs072/BORA/CARBON/from-Arr/AIRSS/Generating-Clusters/GAP-ML-2020/Higher-Symm/SD-CG/HFTN-CG
REM
REM
REM
REM
REM
REM ./C.cell (b20cbc046b6831c77cfcea5457e17084)
REM AIRSS Version 0.9.1 bugfix July 2018 build 013d7b7c2542+ Fri, 06 Jul 2018 19:26:36 +0100
REM compiler GCC version 9.3.0
REM options -cpp -mtune=generic -march=x86-64 -g -O0
REM seed -1613168882 -891499893 1056157691 951697184 1310137556 -471316125 1332531912 1551142239 -877810663 -667316485 230014563 744981548 -1180822333 1937244465 132961046 -487461700 1145370738 -298951779 1248216849 1865643029 2046932865 -282074936 599908653 1788071794 -1922615132 -92531076 -934708553 -33800934 -1768687272 2129091666 -1791585753 2073996865 1104830190
REM
CELL 1.54180   50.00000   50.00000   50.00000   90.00000   90.00000   90.00000
LATT -1
SFAC C  
C      1  0.4905800000000  0.4887410000000  0.4044680000000 1.0
C      1  0.4906470000000  0.5112080000000  0.5940660000000 1.0
C      1  0.5077920000000  0.4889310000000  0.5940770000000 1.0
C      1  0.5077220000000  0.5111180000000  0.4044450000000 1.0
C      1  0.4912290000000  0.4052680000000  0.4884740000000 1.0
C      1  0.4900110000000  0.5947350000000  0.5106600000000 1.0
C      1  0.5071330000000  0.5947150000000  0.4883290000000 1.0
C      1  0.5083670000000  0.4052810000000  0.5107930000000 1.0
C      1  0.5461130000000  0.5188390000000  0.5780260000000 1.0
C      1  0.5458890000000  0.4817170000000  0.4223740000000 1.0
C      1  0.4524250000000  0.5181690000000  0.4223810000000 1.0
C      1  0.4523150000000  0.4812760000000  0.5780870000000 1.0
C      1  0.5451340000000  0.5770930000000  0.5179230000000 1.0
C      1  0.5468420000000  0.4216730000000  0.4810580000000 1.0
C      1  0.4532500000000  0.4229340000000  0.5180700000000 1.0
C      1  0.4515140000000  0.5782990000000  0.4809780000000 1.0
C      1  0.5182130000000  0.5469550000000  0.4324410000000 1.0
C      1  0.5195600000000  0.4535870000000  0.5662940000000 1.0
C      1  0.4788580000000  0.5465100000000  0.5662400000000 1.0
C      1  0.4801090000000  0.4529460000000  0.4325240000000 1.0
C      1  0.5196760000000  0.4334140000000  0.5460720000000 1.0
C      1  0.5180370000000  0.5669670000000  0.4524740000000 1.0
C      1  0.4787280000000  0.5666530000000  0.5459890000000 1.0
C      1  0.4802990000000  0.4329640000000  0.4525860000000 1.0
C      1  0.4391140000000  0.5118980000000  0.4485300000000 1.0
C      1  0.4375530000000  0.4874420000000  0.5539950000000 1.0
C      1  0.5608570000000  0.5126370000000  0.5539310000000 1.0
C      1  0.5592190000000  0.4880260000000  0.4485040000000 1.0
C      1  0.4400030000000  0.4491430000000  0.5118150000000 1.0
C      1  0.4368580000000  0.5540660000000  0.4872540000000 1.0
C      1  0.5583760000000  0.5508750000000  0.5116970000000 1.0
C      1  0.5615030000000  0.4459150000000  0.4872890000000 1.0
C      1  0.4631680000000  0.4373300000000  0.4752290000000 1.0
C      1  0.4609400000000  0.5633300000000  0.5237430000000 1.0
C      1  0.5374480000000  0.4367050000000  0.5238080000000 1.0
C      1  0.5351850000000  0.5626340000000  0.4751110000000 1.0
C      1  0.4628010000000  0.4754280000000  0.4367590000000 1.0
C      1  0.4610950000000  0.5241820000000  0.5630180000000 1.0
C      1  0.5355230000000  0.5244790000000  0.4366970000000 1.0
C      1  0.5373210000000  0.4759110000000  0.5630260000000 1.0
C      1  0.4994880000000  0.5838600000000  0.5358690000000 1.0
C      1  0.5009070000000  0.4157360000000  0.4630910000000 1.0
C      1  0.4974370000000  0.5842090000000  0.4629680000000 1.0
C      1  0.4989080000000  0.4161930000000  0.5359930000000 1.0
C      1  0.4998940000000  0.5364800000000  0.5833060000000 1.0
C      1  0.5004690000000  0.4634790000000  0.4151650000000 1.0
C      1  0.4985370000000  0.4636430000000  0.5833600000000 1.0
C      1  0.4978400000000  0.5363960000000  0.4151120000000 1.0
C      1  0.5390000000000  0.4965630000000  0.5377230000000 1.0
C      1  0.5371020000000  0.5048560000000  0.4600800000000 1.0
C      1  0.4612400000000  0.4950850000000  0.4601140000000 1.0
C      1  0.4593980000000  0.5034920000000  0.5377470000000 1.0
C      1  0.5362900000000  0.5393020000000  0.4949870000000 1.0
C      1  0.5396390000000  0.4618440000000  0.5034880000000 1.0
C      1  0.4620770000000  0.4606910000000  0.4950710000000 1.0
C      1  0.4587340000000  0.5381610000000  0.5034610000000 1.0
C      1  0.4865060000000  0.5292450000000  0.4903450000000 1.0
C      1  0.4876930000000  0.4712950000000  0.5070440000000 1.0
C      1  0.5106820000000  0.5287150000000  0.5069930000000 1.0
C      1  0.5118580000000  0.4707410000000  0.4903790000000 1.0
C      1  0.4877650000000  0.4911410000000  0.5287990000000 1.0
C      1  0.4864300000000  0.5076690000000  0.4706720000000 1.0
C      1  0.5106260000000  0.5089010000000  0.5287780000000 1.0
C      1  0.5119190000000  0.4922880000000  0.4706740000000 1.0
C      1  0.5281470000000  0.5420820000000  0.5787430000000 1.0
C      1  0.5286330000000  0.4582320000000  0.4205580000000 1.0
C      1  0.4696800000000  0.5416510000000  0.4205180000000 1.0
C      1  0.4702810000000  0.4580340000000  0.5788260000000 1.0
C      1  0.5277260000000  0.5790100000000  0.5412980000000 1.0
C      1  0.5290960000000  0.4207870000000  0.4576630000000 1.0
C      1  0.4706750000000  0.4210510000000  0.5414350000000 1.0
C      1  0.4692430000000  0.5791500000000  0.4575680000000 1.0
C      1  0.5840570000000  0.5147230000000  0.5379450000000 1.0
C      1  0.5826810000000  0.4843200000000  0.4644220000000 1.0
C      1  0.4156640000000  0.5156280000000  0.4644590000000 1.0
C      1  0.4143410000000  0.4853330000000  0.5380280000000 1.0
C      1  0.5819650000000  0.5351200000000  0.5154470000000 1.0
C      1  0.5846810000000  0.4619240000000  0.4849760000000 1.0
C      1  0.4164170000000  0.4649020000000  0.5155580000000 1.0
C      1  0.4136780000000  0.5380540000000  0.4849820000000 1.0
C      1  0.5927050000000  0.5267050000000  0.4906110000000 1.0
C      1  0.5950420000000  0.4715310000000  0.5105380000000 1.0
C      1  0.4033360000000  0.5284840000000  0.5105660000000 1.0
C      1  0.4056590000000  0.4732810000000  0.4907180000000 1.0
C      1  0.5943040000000  0.4891680000000  0.5283520000000 1.0
C      1  0.5932290000000  0.5092650000000  0.4729780000000 1.0
C      1  0.4040870000000  0.5108740000000  0.5284050000000 1.0
C      1  0.4051220000000  0.4906960000000  0.4730590000000 1.0
C      1  0.5331440000000  0.5844920000000  0.4932260000000 1.0
C      1  0.5345000000000  0.4149500000000  0.5058470000000 1.0
C      1  0.4638750000000  0.5850590000000  0.5057480000000 1.0
C      1  0.4652210000000  0.4154990000000  0.4933740000000 1.0
C      1  0.5339360000000  0.4939800000000  0.5846290000000 1.0
C      1  0.5337470000000  0.5063560000000  0.4148040000000 1.0
C      1  0.4644960000000  0.5061450000000  0.5846450000000 1.0
C      1  0.4645620000000  0.4935190000000  0.4148380000000 1.0
C      1  0.4657340000000  0.4368050000000  0.5628170000000 1.0
C      1  0.5334630000000  0.4368960000000  0.4364400000000 1.0
C      1  0.4648620000000  0.5630110000000  0.4363720000000 1.0
C      1  0.5326820000000  0.5632870000000  0.5627000000000 1.0
C      1  0.4492070000000  0.5132900000000  0.5132340000000 1.0
C      1  0.5491730000000  0.4867300000000  0.5132180000000 1.0
END
