TITL C-97920-1634-5 0.0375640369874536 125000 -694.26322402798 0 0 100 (C1) n - 1
REM
REM in /rds/project/t2_vol4/rds-t2-cs072/BORA/CARBON/from-Arr/AIRSS/Generating-Clusters/GAP-ML-2020/Higher-Symm/SD-CG/HFTN-CG
REM
REM
REM
REM
REM
REM ./C.cell (b20cbc046b6831c77cfcea5457e17084)
REM AIRSS Version 0.9.1 bugfix July 2018 build 013d7b7c2542+ Fri, 06 Jul 2018 19:26:36 +0100
REM compiler GCC version 9.3.0
REM options -cpp -mtune=generic -march=x86-64 -g -O0
REM seed 13450708 -630515286 559544237 -654401132 -1635514854 2138915677 1290749796 1317583220 19635742 1739859225 1349386577 -259727662 -421960361 1812135181 923751308 1098100087 -1092946038 602635497 -756334631 1194705061 -1609878832 22803208 -874060026 981764958 802071674 558745571 -1916031654 1639158283 -443180778 -692919915 290798475 1509285828 2707065
REM
CELL 1.54180   50.00000   50.00000   50.00000   90.00000   90.00000   90.00000
LATT -1
SFAC C  
C      1  0.5725540000000  0.4642260000000  0.4720600000000 1.0
C      1  0.5733100000000  0.4631420000000  0.5271850000000 1.0
C      1  0.5760180000000  0.5157400000000  0.5429120000000 1.0
C      1  0.5772340000000  0.5489880000000  0.4995240000000 1.0
C      1  0.5762300000000  0.5168590000000  0.4563920000000 1.0
C      1  0.5775910000000  0.5398100000000  0.4716350000000 1.0
C      1  0.5772320000000  0.5399470000000  0.5254910000000 1.0
C      1  0.5713170000000  0.4885370000000  0.5427090000000 1.0
C      1  0.5704770000000  0.4554730000000  0.5000810000000 1.0
C      1  0.5749060000000  0.4875820000000  0.4562780000000 1.0
C      1  0.4681360000000  0.4370760000000  0.5527420000000 1.0
C      1  0.4671170000000  0.5173180000000  0.5719150000000 1.0
C      1  0.4641370000000  0.5812200000000  0.5079460000000 1.0
C      1  0.4653480000000  0.5341420000000  0.4297340000000 1.0
C      1  0.4659190000000  0.4442400000000  0.4446340000000 1.0
C      1  0.4640960000000  0.5712070000000  0.5365470000000 1.0
C      1  0.4691850000000  0.4866480000000  0.5685710000000 1.0
C      1  0.4687760000000  0.4182800000000  0.4950610000000 1.0
C      1  0.4661230000000  0.4699400000000  0.4295890000000 1.0
C      1  0.4676930000000  0.5543270000000  0.4536020000000 1.0
C      1  0.5336900000000  0.4134820000000  0.5092610000000 1.0
C      1  0.5344550000000  0.4925570000000  0.5813560000000 1.0
C      1  0.5370000000000  0.5716900000000  0.5361650000000 1.0
C      1  0.5337380000000  0.5542340000000  0.4524350000000 1.0
C      1  0.5378520000000  0.4718670000000  0.4236800000000 1.0
C      1  0.5366570000000  0.5809710000000  0.5075450000000 1.0
C      1  0.5368260000000  0.5215190000000  0.5763600000000 1.0
C      1  0.5316520000000  0.4295350000000  0.5405870000000 1.0
C      1  0.5368480000000  0.4459210000000  0.4387790000000 1.0
C      1  0.5363470000000  0.5345630000000  0.4280080000000 1.0
C      1  0.5129400000000  0.4518360000000  0.5282980000000 1.0
C      1  0.5108240000000  0.4993440000000  0.5281760000000 1.0
C      1  0.5178480000000  0.5333670000000  0.4993500000000 1.0
C      1  0.5110780000000  0.5078710000000  0.4687510000000 1.0
C      1  0.5084850000000  0.4669060000000  0.4837960000000 1.0
C      1  0.5279530000000  0.5166970000000  0.5179090000000 1.0
C      1  0.5216720000000  0.4767550000000  0.5395160000000 1.0
C      1  0.5226980000000  0.4523670000000  0.5012030000000 1.0
C      1  0.5224410000000  0.4838220000000  0.4682730000000 1.0
C      1  0.5262950000000  0.5303720000000  0.4733550000000 1.0
C      1  0.4419400000000  0.5621600000000  0.4650030000000 1.0
C      1  0.4442880000000  0.4871380000000  0.4347950000000 1.0
C      1  0.4437880000000  0.4296950000000  0.4886330000000 1.0
C      1  0.4416580000000  0.4744890000000  0.5653370000000 1.0
C      1  0.4434900000000  0.5530620000000  0.5435530000000 1.0
C      1  0.4434360000000  0.4421910000000  0.4623340000000 1.0
C      1  0.4438700000000  0.5164290000000  0.4342550000000 1.0
C      1  0.4427490000000  0.5708040000000  0.4929390000000 1.0
C      1  0.4452890000000  0.5285130000000  0.5594860000000 1.0
C      1  0.4423360000000  0.4488960000000  0.5520810000000 1.0
C      1  0.5547830000000  0.4495550000000  0.5455020000000 1.0
C      1  0.5579360000000  0.5310040000000  0.5609700000000 1.0
C      1  0.5583900000000  0.5708660000000  0.4924090000000 1.0
C      1  0.5582860000000  0.5176280000000  0.4324550000000 1.0
C      1  0.5529200000000  0.4446050000000  0.4630830000000 1.0
C      1  0.5583220000000  0.5543270000000  0.5434720000000 1.0
C      1  0.5463540000000  0.4770710000000  0.5567110000000 1.0
C      1  0.5465120000000  0.4377650000000  0.4928590000000 1.0
C      1  0.5586140000000  0.4887390000000  0.4314930000000 1.0
C      1  0.5592080000000  0.5620300000000  0.4647240000000 1.0
C      1  0.4900410000000  0.4106200000000  0.4780840000000 1.0
C      1  0.4892710000000  0.4683730000000  0.5831130000000 1.0
C      1  0.4857160000000  0.5626880000000  0.5534820000000 1.0
C      1  0.4861570000000  0.5767450000000  0.4603310000000 1.0
C      1  0.4863680000000  0.4878580000000  0.4178110000000 1.0
C      1  0.4856290000000  0.5868710000000  0.4883810000000 1.0
C      1  0.4862310000000  0.5386980000000  0.5706560000000 1.0
C      1  0.4898090000000  0.4408390000000  0.5706970000000 1.0
C      1  0.4895670000000  0.4265180000000  0.4511950000000 1.0
C      1  0.4859460000000  0.5175870000000  0.4186260000000 1.0
C      1  0.4739870000000  0.4906380000000  0.4924790000000 1.0
C      1  0.4729890000000  0.4443930000000  0.5047630000000 1.0
C      1  0.4743920000000  0.4797810000000  0.5390350000000 1.0
C      1  0.4750650000000  0.5264920000000  0.5210520000000 1.0
C      1  0.4740060000000  0.5344330000000  0.4772610000000 1.0
C      1  0.4819440000000  0.5084790000000  0.4721620000000 1.0
C      1  0.4885220000000  0.5392370000000  0.5009610000000 1.0
C      1  0.4815160000000  0.4992610000000  0.5200890000000 1.0
C      1  0.4818290000000  0.4516710000000  0.5309510000000 1.0
C      1  0.4808490000000  0.4649140000000  0.4861800000000 1.0
C      1  0.4242130000000  0.5486970000000  0.4996230000000 1.0
C      1  0.4252710000000  0.5164170000000  0.4573530000000 1.0
C      1  0.4264670000000  0.4640860000000  0.4737620000000 1.0
C      1  0.4276020000000  0.4608900000000  0.5280910000000 1.0
C      1  0.4275400000000  0.5138680000000  0.5406780000000 1.0
C      1  0.4276680000000  0.4527010000000  0.5009530000000 1.0
C      1  0.4260040000000  0.4870990000000  0.4583780000000 1.0
C      1  0.4238570000000  0.5396330000000  0.4719420000000 1.0
C      1  0.4250090000000  0.5385000000000  0.5251790000000 1.0
C      1  0.4254490000000  0.4865320000000  0.5429410000000 1.0
C      1  0.5153890000000  0.5866910000000  0.4881890000000 1.0
C      1  0.5154870000000  0.5181770000000  0.4165060000000 1.0
C      1  0.5142070000000  0.4309170000000  0.4404970000000 1.0
C      1  0.5137680000000  0.4282490000000  0.5622100000000 1.0
C      1  0.5155270000000  0.5406030000000  0.5718330000000 1.0
C      1  0.5128150000000  0.4054020000000  0.4938490000000 1.0
C      1  0.5156770000000  0.4886200000000  0.4150160000000 1.0
C      1  0.5151900000000  0.5763920000000  0.4604220000000 1.0
C      1  0.5153250000000  0.5636360000000  0.5537720000000 1.0
C      1  0.5128400000000  0.4794500000000  0.5919890000000 1.0
END
