TITL C-97928-1726-2 -31.0914179904865 125000 -491.297307398717 0 0 71 (C3) n - 1
REM
REM in /rds/project/t2_vol4/rds-t2-cs072/BORA/CARBON/from-Arr/AIRSS/Generating-Clusters/GAP-ML-2020/Higher-Symm/SD-CG/HFTN-CG
REM
REM
REM
REM
REM
REM ./C.cell (b20cbc046b6831c77cfcea5457e17084)
REM AIRSS Version 0.9.1 bugfix July 2018 build 013d7b7c2542+ Fri, 06 Jul 2018 19:26:36 +0100
REM compiler GCC version 9.3.0
REM options -cpp -mtune=generic -march=x86-64 -g -O0
REM seed -1502417873 331727863 -1883268804 -1372116372 -492415934 -968520784 -1376867568 1426229720 -1522345514 -67082064 42940421 1119371625 1588518967 456054320 1293918275 -346209021 -576281113 -98599428 -685771041 1628240075 -413313792 386340804 -542883153 1147403808 -308119923 -2002751927 1312241433 522372973 -435258914 306838065 1787497999 -1575208235 1066910655
REM
CELL 1.54180   50.00000   50.00000   50.00000   90.00000   90.00000   90.00000
LATT -1
SFAC C  
C      1  0.4321810000000  0.5185350000000  0.5358130000000 1.0
C      1  0.5033860000000  0.5159310000000  0.4229770000000 1.0
C      1  0.5655280000000  0.5187570000000  0.5410420000000 1.0
C      1  0.4345050000000  0.4729100000000  0.5255730000000 1.0
C      1  0.5120700000000  0.4707560000000  0.4316830000000 1.0
C      1  0.5546200000000  0.4734740000000  0.5457810000000 1.0
C      1  0.5089540000000  0.4921530000000  0.5260810000000 1.0
C      1  0.4739910000000  0.4914010000000  0.4952200000000 1.0
C      1  0.5182070000000  0.4910840000000  0.4803800000000 1.0
C      1  0.4106710000000  0.5037680000000  0.4971430000000 1.0
C      1  0.5479370000000  0.5021510000000  0.4241680000000 1.0
C      1  0.5425170000000  0.5058040000000  0.5794980000000 1.0
C      1  0.5134150000000  0.5625820000000  0.4367300000000 1.0
C      1  0.5476040000000  0.5650680000000  0.5412430000000 1.0
C      1  0.4399730000000  0.5644560000000  0.5185890000000 1.0
C      1  0.5393320000000  0.5384720000000  0.5030840000000 1.0
C      1  0.4777180000000  0.5390930000000  0.5313960000000 1.0
C      1  0.4840000000000  0.5375090000000  0.4638960000000 1.0
C      1  0.5372950000000  0.5335090000000  0.5743750000000 1.0
C      1  0.4171210000000  0.5315330000000  0.4942180000000 1.0
C      1  0.5466470000000  0.5301220000000  0.4302510000000 1.0
C      1  0.4818660000000  0.4743410000000  0.5633740000000 1.0
C      1  0.4556310000000  0.4717410000000  0.4537700000000 1.0
C      1  0.5636960000000  0.4725760000000  0.4858570000000 1.0
C      1  0.5705620000000  0.5002560000000  0.4906590000000 1.0
C      1  0.4736800000000  0.5019580000000  0.5659620000000 1.0
C      1  0.4568910000000  0.4990840000000  0.4444330000000 1.0
C      1  0.5202140000000  0.4490780000000  0.5526090000000 1.0
C      1  0.4463200000000  0.4476250000000  0.4932210000000 1.0
C      1  0.5347140000000  0.4468830000000  0.4589380000000 1.0
C      1  0.5170860000000  0.4923040000000  0.5829570000000 1.0
C      1  0.4206810000000  0.4896640000000  0.4738660000000 1.0
C      1  0.5633870000000  0.4890880000000  0.4449440000000 1.0
C      1  0.4624120000000  0.5443810000000  0.4804430000000 1.0
C      1  0.5356510000000  0.5443280000000  0.4758950000000 1.0
C      1  0.5029710000000  0.5458510000000  0.5415780000000 1.0
C      1  0.5015610000000  0.4457950000000  0.5302700000000 1.0
C      1  0.4750580000000  0.4447890000000  0.4883350000000 1.0
C      1  0.5246360000000  0.4447780000000  0.4863560000000 1.0
C      1  0.4635540000000  0.5524300000000  0.5092240000000 1.0
C      1  0.5099910000000  0.5513580000000  0.4622380000000 1.0
C      1  0.5274740000000  0.5528700000000  0.5259350000000 1.0
C      1  0.5077660000000  0.4676720000000  0.5721670000000 1.0
C      1  0.4352120000000  0.4652610000000  0.4720360000000 1.0
C      1  0.5582300000000  0.4650510000000  0.4592840000000 1.0
C      1  0.5375620000000  0.4855370000000  0.5224710000000 1.0
C      1  0.4629550000000  0.4854720000000  0.5220210000000 1.0
C      1  0.5006500000000  0.4839840000000  0.4576520000000 1.0
C      1  0.5549120000000  0.5332140000000  0.4574460000000 1.0
C      1  0.5095510000000  0.5357810000000  0.5678490000000 1.0
C      1  0.4365950000000  0.5335020000000  0.4733760000000 1.0
C      1  0.4261130000000  0.5416150000000  0.5197490000000 1.0
C      1  0.5198310000000  0.5394510000000  0.4249420000000 1.0
C      1  0.5550990000000  0.5425040000000  0.5534840000000 1.0
C      1  0.4294260000000  0.4479660000000  0.5152590000000 1.0
C      1  0.5240740000000  0.4461060000000  0.4332980000000 1.0
C      1  0.5477480000000  0.4490180000000  0.5562220000000 1.0
C      1  0.5546880000000  0.5123010000000  0.5130100000000 1.0
C      1  0.4620080000000  0.5128830000000  0.5406440000000 1.0
C      1  0.4844110000000  0.5106850000000  0.4465860000000 1.0
C      1  0.5697220000000  0.5100940000000  0.4647730000000 1.0
C      1  0.4963000000000  0.5127010000000  0.5778150000000 1.0
C      1  0.4350880000000  0.5098290000000  0.4577280000000 1.0
C      1  0.5614800000000  0.4971030000000  0.5599490000000 1.0
C      1  0.4183010000000  0.4961420000000  0.5236210000000 1.0
C      1  0.5213620000000  0.4937270000000  0.4178220000000 1.0
C      1  0.4785820000000  0.4681840000000  0.4704920000000 1.0
C      1  0.5378190000000  0.4688640000000  0.4975030000000 1.0
C      1  0.4848010000000  0.4697140000000  0.5352850000000 1.0
C      1  0.5003770000000  0.5005710000000  0.5003480000000 1.0
C      1  0.5004240000000  0.4373210000000  0.5018380000000 1.0
END
