TITL C-97908-1708-9 0.0377777912738484 125000 -55.3021732002031 0 0 9 (Cs) n - 1
REM
REM in /rds/project/t2_vol4/rds-t2-cs072/BORA/CARBON/from-Arr/AIRSS/Generating-Clusters/GAP-ML-2020/Higher-Symm/SD-CG/HFTN-CG
REM
REM
REM
REM
REM
REM ./C.cell (b20cbc046b6831c77cfcea5457e17084)
REM AIRSS Version 0.9.1 bugfix July 2018 build 013d7b7c2542+ Fri, 06 Jul 2018 19:26:36 +0100
REM compiler GCC version 9.3.0
REM options -cpp -mtune=generic -march=x86-64 -g -O0
REM seed 684500180 -1499684936 -698455530 1699462471 -1059682391 1005132664 -408907865 -476429703 -1560087154 -509397721 -608688210 425534398 -215910211 -990232008 -712119461 1721514848 388871777 71459046 1449643257 1325562635 1339290669 1644627603 1689784465 -1703283753 -466914945 -1413674275 -1629978716 -841302483 -1322799454 930144369 -1744704790 -1612307451 -1817777397
REM
CELL 1.54180   50.00000   50.00000   50.00000   90.00000   90.00000   90.00000
LATT -1
SFAC C  
C      1  0.4938700000000  0.4486630000000  0.5169540000000 1.0
C      1  0.5011560000000  0.5357320000000  0.4924140000000 1.0
C      1  0.4935250000000  0.5131560000000  0.5009130000000 1.0
C      1  0.4767500000000  0.4687670000000  0.5182840000000 1.0
C      1  0.5176250000000  0.4538860000000  0.5068050000000 1.0
C      1  0.5073590000000  0.5594330000000  0.4841630000000 1.0
C      1  0.5379510000000  0.4652800000000  0.4963850000000 1.0
C      1  0.5113150000000  0.5834630000000  0.4766660000000 1.0
C      1  0.4806590000000  0.4930860000000  0.5107330000000 1.0
END
