TITL C-97912-1494-7 -40.75232730889 125000 -417.570827342903 0 0 60 (C1) n - 1
REM
REM in /rds/project/t2_vol4/rds-t2-cs072/BORA/CARBON/from-Arr/AIRSS/Generating-Clusters/GAP-ML-2020/Higher-Symm/SD-CG/HFTN-CG
REM
REM
REM
REM
REM
REM ./C.cell (b20cbc046b6831c77cfcea5457e17084)
REM AIRSS Version 0.9.1 bugfix July 2018 build 013d7b7c2542+ Fri, 06 Jul 2018 19:26:36 +0100
REM compiler GCC version 9.3.0
REM options -cpp -mtune=generic -march=x86-64 -g -O0
REM seed -1893626731 -1874877846 2083431446 -243089340 1414532632 1446672911 1194918820 1078829873 -1626647142 2071878380 699409162 -1911761491 1327494013 -709838052 -1923222680 292724731 -150846334 -139157132 1588393869 -520152670 -446986180 -963372086 -1599270120 1490001124 -2114722494 -254156160 588596245 1557053499 803514364 1215788710 1101237412 1744001809 -1406024274
REM
CELL 1.54180   50.00000   50.00000   50.00000   90.00000   90.00000   90.00000
LATT -1
SFAC C  
C      1  0.5444900000000  0.5161720000000  0.4363610000000 1.0
C      1  0.5357690000000  0.4482700000000  0.4668960000000 1.0
C      1  0.5399690000000  0.4470360000000  0.5408460000000 1.0
C      1  0.5435250000000  0.5211700000000  0.5515640000000 1.0
C      1  0.5392060000000  0.5777920000000  0.5055190000000 1.0
C      1  0.4356040000000  0.5229350000000  0.4725060000000 1.0
C      1  0.4337360000000  0.4817930000000  0.4725340000000 1.0
C      1  0.4343900000000  0.4608390000000  0.5154340000000 1.0
C      1  0.4330290000000  0.5025990000000  0.5340330000000 1.0
C      1  0.4398820000000  0.5448660000000  0.5140470000000 1.0
C      1  0.4869430000000  0.4470290000000  0.5333880000000 1.0
C      1  0.4900040000000  0.5139900000000  0.5585670000000 1.0
C      1  0.4909640000000  0.5625320000000  0.5045110000000 1.0
C      1  0.4928200000000  0.5228270000000  0.4433640000000 1.0
C      1  0.4850770000000  0.4526530000000  0.4618960000000 1.0
C      1  0.4711230000000  0.4687920000000  0.5447280000000 1.0
C      1  0.4736300000000  0.5324900000000  0.5435210000000 1.0
C      1  0.4751080000000  0.5520050000000  0.4827610000000 1.0
C      1  0.4736860000000  0.5008340000000  0.4456540000000 1.0
C      1  0.4687630000000  0.4486520000000  0.4853610000000 1.0
C      1  0.5562000000000  0.5687610000000  0.5238160000000 1.0
C      1  0.5548900000000  0.5417770000000  0.4371360000000 1.0
C      1  0.5389600000000  0.4719960000000  0.4512670000000 1.0
C      1  0.5529370000000  0.4387720000000  0.5183380000000 1.0
C      1  0.5561520000000  0.4954140000000  0.5452490000000 1.0
C      1  0.5149940000000  0.4819700000000  0.4388060000000 1.0
C      1  0.5102330000000  0.4288560000000  0.4940260000000 1.0
C      1  0.5139510000000  0.4711350000000  0.5621720000000 1.0
C      1  0.5149360000000  0.5508830000000  0.5457350000000 1.0
C      1  0.5169760000000  0.5610040000000  0.4653900000000 1.0
C      1  0.5117430000000  0.4458880000000  0.5473850000000 1.0
C      1  0.5161320000000  0.5252490000000  0.5599010000000 1.0
C      1  0.5165040000000  0.5707040000000  0.4924580000000 1.0
C      1  0.5168500000000  0.5098330000000  0.4334920000000 1.0
C      1  0.5091820000000  0.4380320000000  0.4664600000000 1.0
C      1  0.5388900000000  0.4364690000000  0.4951930000000 1.0
C      1  0.5415790000000  0.4731200000000  0.5549940000000 1.0
C      1  0.5426680000000  0.5483570000000  0.5382400000000 1.0
C      1  0.5416930000000  0.5474980000000  0.4603620000000 1.0
C      1  0.5561910000000  0.4950060000000  0.4534620000000 1.0
C      1  0.4882090000000  0.4758620000000  0.4459460000000 1.0
C      1  0.4857690000000  0.4381440000000  0.5061440000000 1.0
C      1  0.4892520000000  0.4855040000000  0.5596650000000 1.0
C      1  0.4902960000000  0.5532740000000  0.5318490000000 1.0
C      1  0.4926090000000  0.5468670000000  0.4598720000000 1.0
C      1  0.4446730000000  0.4757200000000  0.5363560000000 1.0
C      1  0.4467550000000  0.5283090000000  0.5350990000000 1.0
C      1  0.4481100000000  0.5434250000000  0.4876490000000 1.0
C      1  0.4481120000000  0.5019760000000  0.4565780000000 1.0
C      1  0.4428090000000  0.4602710000000  0.4891050000000 1.0
C      1  0.5650220000000  0.5068840000000  0.4782720000000 1.0
C      1  0.5180470000000  0.4786680000000  0.5108040000000 1.0
C      1  0.5059110000000  0.4998770000000  0.5008410000000 1.0
C      1  0.5193940000000  0.5231620000000  0.4943020000000 1.0
C      1  0.5441890000000  0.5277730000000  0.4830640000000 1.0
C      1  0.5746210000000  0.4919680000000  0.5242280000000 1.0
C      1  0.4138730000000  0.5025670000000  0.5134160000000 1.0
C      1  0.4204670000000  0.5031870000000  0.4877410000000 1.0
C      1  0.5793430000000  0.4967330000000  0.4996530000000 1.0
C      1  0.4694920000000  0.5006500000000  0.5013140000000 1.0
END
