TITL C-97911-1594-4 86.24584966503 125000 -479.327571067827 0 0 69 (C1) n - 1
REM
REM in /rds/project/t2_vol4/rds-t2-cs072/BORA/CARBON/from-Arr/AIRSS/Generating-Clusters/GAP-ML-2020/Higher-Symm/SD-CG/HFTN-CG
REM
REM
REM
REM
REM
REM ./C.cell (b20cbc046b6831c77cfcea5457e17084)
REM AIRSS Version 0.9.1 bugfix July 2018 build 013d7b7c2542+ Fri, 06 Jul 2018 19:26:36 +0100
REM compiler GCC version 9.3.0
REM options -cpp -mtune=generic -march=x86-64 -g -O0
REM seed 354753730 -628836083 -146227687 335187142 1708556667 1526975890 -723826490 1113994407 -1960373181 470023672 1902617707 -389289002 -1520947713 1875141633 925236522 1063096364 260050174 1563765012 -1235431729 1724566788 -944396869 -936238341 1357244497 639061722 -972624052 2000781452 -1135481965 -651348961 115948957 1423838206 -394362913 -958752249 1339813179
REM
CELL 1.54180   50.00000   50.00000   50.00000   90.00000   90.00000   90.00000
LATT -1
SFAC C  
C      1  0.5571170000000  0.4603720000000  0.5181190000000 1.0
C      1  0.4462820000000  0.4667650000000  0.5234340000000 1.0
C      1  0.5156860000000  0.5022620000000  0.4934970000000 1.0
C      1  0.4694790000000  0.4963750000000  0.4923380000000 1.0
C      1  0.4535170000000  0.5027700000000  0.4501290000000 1.0
C      1  0.5482280000000  0.5020090000000  0.4478830000000 1.0
C      1  0.5614750000000  0.5253540000000  0.4858590000000 1.0
C      1  0.4375140000000  0.5297570000000  0.4853770000000 1.0
C      1  0.5480210000000  0.5410900000000  0.5056380000000 1.0
C      1  0.4520240000000  0.5472510000000  0.5034540000000 1.0
C      1  0.4721700000000  0.5476040000000  0.5509760000000 1.0
C      1  0.5299030000000  0.5391820000000  0.5527970000000 1.0
C      1  0.4808620000000  0.5725570000000  0.5557150000000 1.0
C      1  0.5269490000000  0.5661840000000  0.5554110000000 1.0
C      1  0.5468180000000  0.5263380000000  0.4616230000000 1.0
C      1  0.4508570000000  0.5292140000000  0.4604490000000 1.0
C      1  0.5525550000000  0.4574130000000  0.4674910000000 1.0
C      1  0.4516200000000  0.4570170000000  0.4753910000000 1.0
C      1  0.5234490000000  0.5418330000000  0.4651870000000 1.0
C      1  0.4739390000000  0.5464180000000  0.4619400000000 1.0
C      1  0.5118570000000  0.5207640000000  0.5667700000000 1.0
C      1  0.4674390000000  0.5034180000000  0.5576180000000 1.0
C      1  0.4457360000000  0.5120600000000  0.5385060000000 1.0
C      1  0.5581150000000  0.5030620000000  0.5368820000000 1.0
C      1  0.5251970000000  0.5531800000000  0.4909220000000 1.0
C      1  0.4752590000000  0.5575800000000  0.4884590000000 1.0
C      1  0.5493560000000  0.4461250000000  0.4950670000000 1.0
C      1  0.4532350000000  0.4452470000000  0.5022750000000 1.0
C      1  0.4713580000000  0.4761940000000  0.5695240000000 1.0
C      1  0.5192830000000  0.4931140000000  0.5667350000000 1.0
C      1  0.5485530000000  0.5297930000000  0.5325720000000 1.0
C      1  0.4530160000000  0.5381180000000  0.5308970000000 1.0
C      1  0.4753170000000  0.4546220000000  0.4592040000000 1.0
C      1  0.5310510000000  0.4482690000000  0.4500300000000 1.0
C      1  0.4451990000000  0.4584050000000  0.5508320000000 1.0
C      1  0.5413590000000  0.4594690000000  0.5424320000000 1.0
C      1  0.5620160000000  0.4838340000000  0.4656060000000 1.0
C      1  0.4459470000000  0.4855410000000  0.4734250000000 1.0
C      1  0.5217350000000  0.4929010000000  0.4394470000000 1.0
C      1  0.4754570000000  0.4941960000000  0.4342600000000 1.0
C      1  0.5436150000000  0.4855030000000  0.5546420000000 1.0
C      1  0.4505320000000  0.4583300000000  0.5763430000000 1.0
C      1  0.4737850000000  0.4791240000000  0.5144110000000 1.0
C      1  0.5134680000000  0.4863890000000  0.5151630000000 1.0
C      1  0.5678480000000  0.4869580000000  0.5151150000000 1.0
C      1  0.4332010000000  0.4941840000000  0.5203550000000 1.0
C      1  0.4323150000000  0.5028320000000  0.4934460000000 1.0
C      1  0.5702590000000  0.4981830000000  0.4893730000000 1.0
C      1  0.4767640000000  0.4312030000000  0.5102130000000 1.0
C      1  0.5262120000000  0.4300830000000  0.4968830000000 1.0
C      1  0.4845420000000  0.4671190000000  0.4352420000000 1.0
C      1  0.5151180000000  0.4656630000000  0.4326710000000 1.0
C      1  0.5153740000000  0.4494200000000  0.5446400000000 1.0
C      1  0.4986000000000  0.4592480000000  0.4763400000000 1.0
C      1  0.5106310000000  0.4860630000000  0.4696610000000 1.0
C      1  0.5163510000000  0.4362740000000  0.4704930000000 1.0
C      1  0.4924210000000  0.5074220000000  0.4792090000000 1.0
C      1  0.4839180000000  0.5255580000000  0.5647850000000 1.0
C      1  0.5033540000000  0.5603860000000  0.4101860000000 1.0
C      1  0.5048000000000  0.5880410000000  0.5180000000000 1.0
C      1  0.5012520000000  0.5670900000000  0.4997270000000 1.0
C      1  0.5055270000000  0.5790690000000  0.5444000000000 1.0
C      1  0.4991210000000  0.4730300000000  0.5577250000000 1.0
C      1  0.4965850000000  0.4622750000000  0.5048770000000 1.0
C      1  0.5028930000000  0.5357900000000  0.4139720000000 1.0
C      1  0.5046940000000  0.4360920000000  0.5184840000000 1.0
C      1  0.4994970000000  0.5135410000000  0.4322840000000 1.0
C      1  0.4974610000000  0.5302530000000  0.4576730000000 1.0
C      1  0.4910010000000  0.4921720000000  0.5344470000000 1.0
END
