TITL C-98502-9420-15 0.000874529884831419 125000 -241.467299219601 0 0 37 (C1) n - 1
REM
REM in /rds/project/t2_vol4/rds-t2-cs072/BORA/CARBON/from-Arr/AIRSS/Generating-Clusters/GAP-ML-2020/Higher-Symm/SD-CG/HFTN-CG
REM
REM
REM
REM
REM
REM ./C.cell (b20cbc046b6831c77cfcea5457e17084)
REM AIRSS Version 0.9.1 bugfix July 2018 build 013d7b7c2542+ Fri, 06 Jul 2018 19:26:36 +0100
REM compiler GCC version 9.3.0
REM options -cpp -mtune=generic -march=x86-64 -g -O0
REM seed -678656659 -63500000 797676980 474892774 430052032 -752857976 1390468550 -241123716 -1455514347 1845893147 -976333365 -970590674 -810390084 -286583975 1845690195 1219949322 1343104578 1767467633 -1035869280 -197544283 1403735704 217504014 -1766172086 1610432947 -1478549255 1365328753 -1535669706 242370485 660034590 -1238113174 1158482086 -331716150 1020023079
REM
CELL 1.54180   50.00000   50.00000   50.00000   90.00000   90.00000   90.00000
LATT -1
SFAC C  
C      1  0.4566640000000  0.4904350000000  0.5353470000000 1.0
C      1  0.5440100000000  0.5054570000000  0.5444050000000 1.0
C      1  0.4968390000000  0.5496090000000  0.5287440000000 1.0
C      1  0.5055050000000  0.4428970000000  0.5270320000000 1.0
C      1  0.4710140000000  0.5400370000000  0.5295580000000 1.0
C      1  0.5294260000000  0.4550360000000  0.5305180000000 1.0
C      1  0.5152670000000  0.4749090000000  0.4450070000000 1.0
C      1  0.4801620000000  0.5228930000000  0.4485120000000 1.0
C      1  0.4465890000000  0.4694900000000  0.5179050000000 1.0
C      1  0.5510140000000  0.5206070000000  0.5224530000000 1.0
C      1  0.4919630000000  0.4543710000000  0.4804400000000 1.0
C      1  0.5043860000000  0.5443490000000  0.4793780000000 1.0
C      1  0.5132230000000  0.5519340000000  0.5049090000000 1.0
C      1  0.4863230000000  0.4402210000000  0.5037310000000 1.0
C      1  0.5227770000000  0.4929770000000  0.4875620000000 1.0
C      1  0.4749500000000  0.5077170000000  0.4962010000000 1.0
C      1  0.5389430000000  0.5130220000000  0.4737510000000 1.0
C      1  0.4571310000000  0.4856070000000  0.4814040000000 1.0
C      1  0.5119200000000  0.5445970000000  0.5525710000000 1.0
C      1  0.4822740000000  0.4520810000000  0.5423080000000 1.0
C      1  0.5313140000000  0.4795200000000  0.5409190000000 1.0
C      1  0.4615430000000  0.5162790000000  0.5221410000000 1.0
C      1  0.4810520000000  0.4802840000000  0.5462610000000 1.0
C      1  0.5186390000000  0.5187820000000  0.5525750000000 1.0
C      1  0.4731300000000  0.4689280000000  0.4633940000000 1.0
C      1  0.5225320000000  0.5319270000000  0.4593460000000 1.0
C      1  0.5059000000000  0.5209090000000  0.4384790000000 1.0
C      1  0.4864010000000  0.4770910000000  0.4396020000000 1.0
C      1  0.4633180000000  0.4459950000000  0.5208700000000 1.0
C      1  0.5404790000000  0.5437300000000  0.5096770000000 1.0
C      1  0.5538510000000  0.5240760000000  0.4949360000000 1.0
C      1  0.4348090000000  0.4759920000000  0.4941740000000 1.0
C      1  0.5151260000000  0.4708770000000  0.4736530000000 1.0
C      1  0.4806570000000  0.5283500000000  0.4753730000000 1.0
C      1  0.5057540000000  0.5041320000000  0.5081260000000 1.0
C      1  0.5050770000000  0.4953620000000  0.5385940000000 1.0
C      1  0.5067930000000  0.4948430000000  0.4289610000000 1.0
END
