TITL C-98493-9052-9 -21.877790798103 125000 -365.333765371117 0 0 54 (C1) n - 1
REM
REM in /rds/project/t2_vol4/rds-t2-cs072/BORA/CARBON/from-Arr/AIRSS/Generating-Clusters/GAP-ML-2020/Higher-Symm/SD-CG/HFTN-CG
REM
REM
REM
REM
REM
REM ./C.cell (b20cbc046b6831c77cfcea5457e17084)
REM AIRSS Version 0.9.1 bugfix July 2018 build 013d7b7c2542+ Fri, 06 Jul 2018 19:26:36 +0100
REM compiler GCC version 9.3.0
REM options -cpp -mtune=generic -march=x86-64 -g -O0
REM seed -1579976962 -1832508958 -2085450922 -87783846 -132708133 1760554619 1573501036 2084933504 -1257597576 -553376644 -19618456 -1478988439 288007971 -425108804 -162654664 1338114754 1987298926 -457520335 900246237 -1243085462 150990133 -1643771332 -1576242492 -1362511619 -1899032053 2131031007 -1351232471 -2079332253 2027647050 -680530346 -680028444 -1354821534 -852966653
REM
CELL 1.54180   50.00000   50.00000   50.00000   90.00000   90.00000   90.00000
LATT -1
SFAC C  
C      1  0.5296460000000  0.4391380000000  0.5385760000000 1.0
C      1  0.5047970000000  0.4278250000000  0.5328590000000 1.0
C      1  0.4793470000000  0.4342530000000  0.5454620000000 1.0
C      1  0.4384510000000  0.4681570000000  0.5357890000000 1.0
C      1  0.4288840000000  0.4950640000000  0.5355190000000 1.0
C      1  0.4453080000000  0.5449330000000  0.5355120000000 1.0
C      1  0.4683020000000  0.5620350000000  0.5346560000000 1.0
C      1  0.5198140000000  0.5663300000000  0.5327690000000 1.0
C      1  0.5451740000000  0.5529180000000  0.5322160000000 1.0
C      1  0.5716420000000  0.5078350000000  0.5336290000000 1.0
C      1  0.5703270000000  0.4790000000000  0.5358330000000 1.0
C      1  0.4664260000000  0.4352220000000  0.5191090000000 1.0
C      1  0.4481850000000  0.4551340000000  0.5121270000000 1.0
C      1  0.4266660000000  0.5078210000000  0.5110890000000 1.0
C      1  0.4367920000000  0.5349040000000  0.5108530000000 1.0
C      1  0.4789850000000  0.5656450000000  0.5090520000000 1.0
C      1  0.5075440000000  0.5678170000000  0.5077980000000 1.0
C      1  0.5529900000000  0.5432380000000  0.5071720000000 1.0
C      1  0.5671710000000  0.5183840000000  0.5081610000000 1.0
C      1  0.5627100000000  0.4662690000000  0.5124610000000 1.0
C      1  0.5433460000000  0.4452840000000  0.5141720000000 1.0
C      1  0.4921160000000  0.4300620000000  0.5065240000000 1.0
C      1  0.5505790000000  0.4811600000000  0.5579760000000 1.0
C      1  0.5294540000000  0.4614220000000  0.5587890000000 1.0
C      1  0.5034150000000  0.4708870000000  0.5641890000000 1.0
C      1  0.4784760000000  0.4570180000000  0.5624140000000 1.0
C      1  0.4547760000000  0.4732670000000  0.5592830000000 1.0
C      1  0.4459510000000  0.5023680000000  0.5587400000000 1.0
C      1  0.4559700000000  0.5289530000000  0.5578700000000 1.0
C      1  0.4819310000000  0.5481240000000  0.5572120000000 1.0
C      1  0.5103840000000  0.5505650000000  0.5563590000000 1.0
C      1  0.5383990000000  0.5362760000000  0.5559170000000 1.0
C      1  0.5529490000000  0.5117710000000  0.5566690000000 1.0
C      1  0.4570430000000  0.4737840000000  0.4903880000000 1.0
C      1  0.4454290000000  0.5001470000000  0.4893070000000 1.0
C      1  0.4552680000000  0.5291380000000  0.4879060000000 1.0
C      1  0.4782410000000  0.5458520000000  0.4868300000000 1.0
C      1  0.5094990000000  0.5477440000000  0.4856540000000 1.0
C      1  0.5345430000000  0.5341160000000  0.4855550000000 1.0
C      1  0.5506130000000  0.5062240000000  0.4870640000000 1.0
C      1  0.5491790000000  0.4779550000000  0.4887590000000 1.0
C      1  0.5297930000000  0.4548430000000  0.4902740000000 1.0
C      1  0.5017430000000  0.4491320000000  0.4877160000000 1.0
C      1  0.4843060000000  0.4713660000000  0.4834210000000 1.0
C      1  0.5012240000000  0.5091300000000  0.6113130000000 1.0
C      1  0.5041590000000  0.5048180000000  0.4564180000000 1.0
C      1  0.4978860000000  0.5107770000000  0.5866550000000 1.0
C      1  0.5044820000000  0.5057300000000  0.4317990000000 1.0
C      1  0.5066780000000  0.5102020000000  0.3810930000000 1.0
C      1  0.5001340000000  0.4994790000000  0.5625200000000 1.0
C      1  0.5060570000000  0.5084650000000  0.4060000000000 1.0
C      1  0.5066750000000  0.5055440000000  0.5104590000000 1.0
C      1  0.4985610000000  0.4965830000000  0.4814380000000 1.0
C      1  0.4964310000000  0.5088740000000  0.5342450000000 1.0
END
