TITL C-98484-9369-8 137.064073908316 125000 -346.303699813162 0 0 53 (C1) n - 1
REM
REM in /rds/project/t2_vol4/rds-t2-cs072/BORA/CARBON/from-Arr/AIRSS/Generating-Clusters/GAP-ML-2020/Higher-Symm/SD-CG/HFTN-CG
REM
REM
REM
REM
REM
REM ./C.cell (b20cbc046b6831c77cfcea5457e17084)
REM AIRSS Version 0.9.1 bugfix July 2018 build 013d7b7c2542+ Fri, 06 Jul 2018 19:26:36 +0100
REM compiler GCC version 9.3.0
REM options -cpp -mtune=generic -march=x86-64 -g -O0
REM seed 1705285397 -210523629 -1573792860 -1997421608 357701584 -1503648909 -76234643 -1970747176 827795069 -18234255 426360298 -243996975 1873693150 -807732379 185051657 -966834242 551076769 -426284297 64971721 878974172 849218738 -54927134 -1461640967 -199789190 -43256028 1069951586 1080766576 -1422273858 -449035095 89469798 780914025 -1963900725 1086313672
REM
CELL 1.54180   50.00000   50.00000   50.00000   90.00000   90.00000   90.00000
LATT -1
SFAC C  
C      1  0.5326660000000  0.5062800000000  0.4906020000000 1.0
C      1  0.5118160000000  0.5079760000000  0.5375780000000 1.0
C      1  0.5081000000000  0.5443710000000  0.5069770000000 1.0
C      1  0.5439910000000  0.4792080000000  0.4884360000000 1.0
C      1  0.4591910000000  0.5101830000000  0.4880430000000 1.0
C      1  0.4626630000000  0.4811310000000  0.4936820000000 1.0
C      1  0.5144110000000  0.4918860000000  0.4301720000000 1.0
C      1  0.4856820000000  0.4988040000000  0.4318870000000 1.0
C      1  0.4806630000000  0.5128580000000  0.5466180000000 1.0
C      1  0.4850530000000  0.4611500000000  0.4885900000000 1.0
C      1  0.5148740000000  0.5544610000000  0.4759370000000 1.0
C      1  0.4990960000000  0.4593770000000  0.5149120000000 1.0
C      1  0.4951800000000  0.5890110000000  0.4970010000000 1.0
C      1  0.5697780000000  0.4976570000000  0.5182930000000 1.0
C      1  0.5017140000000  0.5004970000000  0.5831740000000 1.0
C      1  0.5074390000000  0.4200630000000  0.5084760000000 1.0
C      1  0.4771540000000  0.5798660000000  0.5137030000000 1.0
C      1  0.4846440000000  0.4148740000000  0.4961060000000 1.0
C      1  0.5667440000000  0.5243170000000  0.5109910000000 1.0
C      1  0.4151700000000  0.4808390000000  0.4977890000000 1.0
C      1  0.4224820000000  0.5024650000000  0.5104610000000 1.0
C      1  0.4652890000000  0.4788310000000  0.4361430000000 1.0
C      1  0.5331970000000  0.5133790000000  0.4293320000000 1.0
C      1  0.5206540000000  0.4832640000000  0.5779750000000 1.0
C      1  0.4809590000000  0.4633630000000  0.5359470000000 1.0
C      1  0.4701260000000  0.5279490000000  0.4701870000000 1.0
C      1  0.5185950000000  0.4695180000000  0.4470890000000 1.0
C      1  0.4914230000000  0.5438950000000  0.4611030000000 1.0
C      1  0.5048360000000  0.4569830000000  0.4669920000000 1.0
C      1  0.5278810000000  0.5528430000000  0.5276310000000 1.0
C      1  0.4586290000000  0.4748810000000  0.5233570000000 1.0
C      1  0.5513810000000  0.5389350000000  0.5315070000000 1.0
C      1  0.5322730000000  0.4627690000000  0.4702240000000 1.0
C      1  0.5297520000000  0.5304970000000  0.5460950000000 1.0
C      1  0.4687730000000  0.4860620000000  0.5458170000000 1.0
C      1  0.4831440000000  0.5229820000000  0.4461340000000 1.0
C      1  0.5236470000000  0.4810790000000  0.5501950000000 1.0
C      1  0.4804050000000  0.5526390000000  0.5176720000000 1.0
C      1  0.5530450000000  0.5265720000000  0.4860010000000 1.0
C      1  0.5440100000000  0.5337930000000  0.4391350000000 1.0
C      1  0.4544260000000  0.4589570000000  0.4470150000000 1.0
C      1  0.4815810000000  0.5152470000000  0.5770720000000 1.0
C      1  0.4695540000000  0.4354950000000  0.4852800000000 1.0
C      1  0.5118060000000  0.5846240000000  0.4779820000000 1.0
C      1  0.5204010000000  0.4408450000000  0.5202130000000 1.0
C      1  0.5564470000000  0.4740410000000  0.5138410000000 1.0
C      1  0.4431890000000  0.5205140000000  0.5107060000000 1.0
C      1  0.4364760000000  0.4677780000000  0.4857450000000 1.0
C      1  0.4644230000000  0.5311400000000  0.5280540000000 1.0
C      1  0.4459490000000  0.4450360000000  0.4703470000000 1.0
C      1  0.5372950000000  0.4611210000000  0.5326220000000 1.0
C      1  0.5420110000000  0.5427030000000  0.4662330000000 1.0
C      1  0.5116240000000  0.5141080000000  0.5084710000000 1.0
END
