TITL C-98018-4123-1 -8.71230107577704 125000 -38.3214657005951 0 0 7 (C3v) n - 1
REM
REM in /rds/project/t2_vol4/rds-t2-cs072/BORA/CARBON/from-Arr/AIRSS/Generating-Clusters/GAP-ML-2020/Higher-Symm/SD-CG/HFTN-CG
REM
REM
REM
REM
REM
REM ./C.cell (b20cbc046b6831c77cfcea5457e17084)
REM AIRSS Version 0.9.1 bugfix July 2018 build 013d7b7c2542+ Fri, 06 Jul 2018 19:26:36 +0100
REM compiler GCC version 9.3.0
REM options -cpp -mtune=generic -march=x86-64 -g -O0
REM seed -1574946512 -89202205 1341574642 -1157539880 1232153996 1381467139 -782631118 -191768976 1866980550 -730849658 -529065842 185949475 2049270666 -1512575170 -1295033024 -291468469 -856069337 283619232 -413974396 2106422277 575983981 1077390529 -1524200884 -1915627458 457953935 1763851474 950627438 459786780 -1895939847 -195924996 1888572801 1420547998 -374682837
REM
CELL 1.54180   50.00000   50.00000   50.00000   90.00000   90.00000   90.00000
LATT -1
SFAC C  
C      1  0.4850420000000  0.4762250000000  0.5063930000000 1.0
C      1  0.4849330000000  0.5199920000000  0.5064760000000 1.0
C      1  0.5228910000000  0.4982030000000  0.5064940000000 1.0
C      1  0.5124500000000  0.4725680000000  0.5140130000000 1.0
C      1  0.5123230000000  0.5237560000000  0.5141110000000 1.0
C      1  0.4680570000000  0.4980520000000  0.5139920000000 1.0
C      1  0.4976490000000  0.4981730000000  0.4891730000000 1.0
END
