TITL C-98494-9297-6 131.197703906825 125000 -206.475632678239 0 0 32 (C1) n - 1
REM
REM in /rds/project/t2_vol4/rds-t2-cs072/BORA/CARBON/from-Arr/AIRSS/Generating-Clusters/GAP-ML-2020/Higher-Symm/SD-CG/HFTN-CG
REM
REM
REM
REM
REM
REM ./C.cell (b20cbc046b6831c77cfcea5457e17084)
REM AIRSS Version 0.9.1 bugfix July 2018 build 013d7b7c2542+ Fri, 06 Jul 2018 19:26:36 +0100
REM compiler GCC version 9.3.0
REM options -cpp -mtune=generic -march=x86-64 -g -O0
REM seed 1418135174 1053473407 -27760198 -883313539 -959506062 1042224530 1087581872 -302135052 -84922726 -1990848937 -1770093658 1749708712 -1707876720 676536557 197426557 -1302558577 -681574948 855491695 1171260810 428205340 -1284363619 -1182692626 1901579354 -2095652604 -329710808 -1840919918 586927590 1607879392 2004299641 -1640672319 366625074 193839875 -1977512929
REM
CELL 1.54180   50.00000   50.00000   50.00000   90.00000   90.00000   90.00000
LATT -1
SFAC C  
C      1  0.4616990000000  0.5089760000000  0.5305680000000 1.0
C      1  0.4566010000000  0.5091950000000  0.4744300000000 1.0
C      1  0.4967100000000  0.4888670000000  0.4478270000000 1.0
C      1  0.5291800000000  0.5025680000000  0.4835840000000 1.0
C      1  0.4934220000000  0.5296840000000  0.5056290000000 1.0
C      1  0.4718960000000  0.4801470000000  0.5281950000000 1.0
C      1  0.4372920000000  0.5108840000000  0.5152010000000 1.0
C      1  0.5070610000000  0.5194140000000  0.5481760000000 1.0
C      1  0.5063850000000  0.4557500000000  0.4974920000000 1.0
C      1  0.5365470000000  0.5253440000000  0.4650960000000 1.0
C      1  0.4452130000000  0.4680210000000  0.5200980000000 1.0
C      1  0.5356060000000  0.4585180000000  0.4991520000000 1.0
C      1  0.5337970000000  0.5231790000000  0.4368370000000 1.0
C      1  0.5421740000000  0.5183190000000  0.5060620000000 1.0
C      1  0.4843470000000  0.5254460000000  0.5314400000000 1.0
C      1  0.5066760000000  0.5526690000000  0.5014380000000 1.0
C      1  0.4819120000000  0.5014070000000  0.4695820000000 1.0
C      1  0.5222370000000  0.4844430000000  0.5319110000000 1.0
C      1  0.4830870000000  0.4766480000000  0.5578840000000 1.0
C      1  0.5109010000000  0.4672760000000  0.4604860000000 1.0
C      1  0.5418150000000  0.4654060000000  0.5243320000000 1.0
C      1  0.5304050000000  0.5135050000000  0.5304030000000 1.0
C      1  0.5352130000000  0.4756650000000  0.4748720000000 1.0
C      1  0.4999900000000  0.5041910000000  0.4916490000000 1.0
C      1  0.4366030000000  0.5177930000000  0.4879210000000 1.0
C      1  0.5404650000000  0.5424970000000  0.4880980000000 1.0
C      1  0.5146430000000  0.5057910000000  0.4365140000000 1.0
C      1  0.4257270000000  0.4845280000000  0.5177560000000 1.0
C      1  0.5059650000000  0.4906170000000  0.5575530000000 1.0
C      1  0.5006790000000  0.4451920000000  0.4725210000000 1.0
C      1  0.4980980000000  0.4808550000000  0.5118270000000 1.0
C      1  0.5276500000000  0.5672020000000  0.4954680000000 1.0
END
