TITL C-98491-9379-6 0.0148198334045646 125000 -451.289382543125 0 0 67 (C1) n - 1
REM
REM in /rds/project/t2_vol4/rds-t2-cs072/BORA/CARBON/from-Arr/AIRSS/Generating-Clusters/GAP-ML-2020/Higher-Symm/SD-CG/HFTN-CG
REM
REM
REM
REM
REM
REM ./C.cell (b20cbc046b6831c77cfcea5457e17084)
REM AIRSS Version 0.9.1 bugfix July 2018 build 013d7b7c2542+ Fri, 06 Jul 2018 19:26:36 +0100
REM compiler GCC version 9.3.0
REM options -cpp -mtune=generic -march=x86-64 -g -O0
REM seed 123567030 -1328232058 -932930600 806493346 -639363064 -300365172 -1123141122 -21284609 1835712619 -1582610106 -1765215947 -441607191 -1439548622 1475965885 -1704184560 -1264584741 1755355924 -1445792362 -1500330380 -1833348362 -1274277394 605396595 1568144142 1572554625 1706526264 -1568892572 -156433950 -1519457570 1630240272 -1852368343 -1489265588 631942971 -905017602
REM
CELL 1.54180   50.00000   50.00000   50.00000   90.00000   90.00000   90.00000
LATT -1
SFAC C  
C      1  0.4423890000000  0.4596270000000  0.5175550000000 1.0
C      1  0.4391640000000  0.5350410000000  0.5255570000000 1.0
C      1  0.4405040000000  0.5038710000000  0.4573350000000 1.0
C      1  0.4798540000000  0.5128130000000  0.4917610000000 1.0
C      1  0.4814720000000  0.4840930000000  0.4987210000000 1.0
C      1  0.4800550000000  0.5043160000000  0.5188750000000 1.0
C      1  0.5334500000000  0.4640230000000  0.5393870000000 1.0
C      1  0.5262930000000  0.5543900000000  0.5082870000000 1.0
C      1  0.5333480000000  0.4881510000000  0.4537760000000 1.0
C      1  0.5057320000000  0.4821970000000  0.4375920000000 1.0
C      1  0.5060700000000  0.4530960000000  0.5501400000000 1.0
C      1  0.5005970000000  0.5690530000000  0.5113130000000 1.0
C      1  0.5055630000000  0.5080690000000  0.5301570000000 1.0
C      1  0.5049030000000  0.5223190000000  0.4842720000000 1.0
C      1  0.5081510000000  0.4760080000000  0.4956080000000 1.0
C      1  0.4650230000000  0.4581420000000  0.4502320000000 1.0
C      1  0.4645170000000  0.4770680000000  0.5614610000000 1.0
C      1  0.4589430000000  0.5654780000000  0.4874250000000 1.0
C      1  0.4791110000000  0.5616850000000  0.5298360000000 1.0
C      1  0.4815100000000  0.4982780000000  0.4330580000000 1.0
C      1  0.4829550000000  0.4417450000000  0.5362470000000 1.0
C      1  0.4547490000000  0.4414960000000  0.4980250000000 1.0
C      1  0.4530430000000  0.5274820000000  0.5505600000000 1.0
C      1  0.4506190000000  0.5303690000000  0.4501320000000 1.0
C      1  0.4933010000000  0.4563890000000  0.4409720000000 1.0
C      1  0.4929510000000  0.4717440000000  0.5678910000000 1.0
C      1  0.4868480000000  0.5765260000000  0.4873810000000 1.0
C      1  0.5289760000000  0.5666810000000  0.4625910000000 1.0
C      1  0.5325650000000  0.4370380000000  0.4599940000000 1.0
C      1  0.5338420000000  0.4973100000000  0.5778390000000 1.0
C      1  0.5039300000000  0.5785470000000  0.4648830000000 1.0
C      1  0.5084320000000  0.4336580000000  0.4470040000000 1.0
C      1  0.5077870000000  0.4900760000000  0.5828830000000 1.0
C      1  0.5508710000000  0.5110560000000  0.4564920000000 1.0
C      1  0.5565380000000  0.4555190000000  0.5194490000000 1.0
C      1  0.5708460000000  0.5172720000000  0.5279390000000 1.0
C      1  0.5460610000000  0.4605970000000  0.4647540000000 1.0
C      1  0.5480100000000  0.4838770000000  0.5583640000000 1.0
C      1  0.5421680000000  0.5524770000000  0.4828240000000 1.0
C      1  0.4478210000000  0.5525830000000  0.4660520000000 1.0
C      1  0.4537840000000  0.4440640000000  0.4707410000000 1.0
C      1  0.4536220000000  0.5020950000000  0.5610520000000 1.0
C      1  0.4583380000000  0.4855020000000  0.4440030000000 1.0
C      1  0.4588480000000  0.4568770000000  0.5413080000000 1.0
C      1  0.4542530000000  0.5576920000000  0.5151870000000 1.0
C      1  0.5587370000000  0.5292880000000  0.4761650000000 1.0
C      1  0.5600870000000  0.4622540000000  0.4889920000000 1.0
C      1  0.5698570000000  0.4942530000000  0.5427190000000 1.0
C      1  0.4999570000000  0.5383540000000  0.5686260000000 1.0
C      1  0.4933210000000  0.5463430000000  0.4267900000000 1.0
C      1  0.4983240000000  0.4163990000000  0.4955230000000 1.0
C      1  0.5690110000000  0.5124110000000  0.4991060000000 1.0
C      1  0.5783470000000  0.4833590000000  0.4971650000000 1.0
C      1  0.5766600000000  0.4741550000000  0.5244110000000 1.0
C      1  0.5218440000000  0.4976780000000  0.4803100000000 1.0
C      1  0.5220530000000  0.4846480000000  0.5211570000000 1.0
C      1  0.5206840000000  0.5267330000000  0.5124940000000 1.0
C      1  0.4281640000000  0.5129800000000  0.5091710000000 1.0
C      1  0.4285670000000  0.4998000000000  0.4839930000000 1.0
C      1  0.4298700000000  0.4844950000000  0.5079710000000 1.0
C      1  0.5134030000000  0.5191690000000  0.5808870000000 1.0
C      1  0.5086390000000  0.5626610000000  0.4412330000000 1.0
C      1  0.5121150000000  0.4207320000000  0.4734620000000 1.0
C      1  0.4791930000000  0.4286730000000  0.5109780000000 1.0
C      1  0.4783640000000  0.5452060000000  0.5531680000000 1.0
C      1  0.4750970000000  0.5264660000000  0.4316150000000 1.0
C      1  0.5390020000000  0.5047650000000  0.5051340000000 1.0
END
