TITL C-98024-4325-1 8.4000824383407 125000 -119.844268739449 0 0 19 (C1) n - 1
REM
REM in /rds/project/t2_vol4/rds-t2-cs072/BORA/CARBON/from-Arr/AIRSS/Generating-Clusters/GAP-ML-2020/Higher-Symm/SD-CG/HFTN-CG
REM
REM
REM
REM
REM
REM ./C.cell (b20cbc046b6831c77cfcea5457e17084)
REM AIRSS Version 0.9.1 bugfix July 2018 build 013d7b7c2542+ Fri, 06 Jul 2018 19:26:36 +0100
REM compiler GCC version 9.3.0
REM options -cpp -mtune=generic -march=x86-64 -g -O0
REM seed 1719719314 910637080 -1806168727 -51536196 -1170007681 -1117451989 -2126729357 1104171005 -2139969210 -1979761442 -1900785509 -478363090 -1980783818 2029931295 518857597 -4291620 2018853345 515145957 -249527290 1912598353 -248345125 1831404128 1194738223 796774725 849156372 1152097713 453079170 -539610700 793858800 907324975 1538308949 -989383645 1514862788
REM
CELL 1.54180   50.00000   50.00000   50.00000   90.00000   90.00000   90.00000
LATT -1
SFAC C  
C      1  0.4737190000000  0.5233060000000  0.5383060000000 1.0
C      1  0.5240210000000  0.5008410000000  0.4702360000000 1.0
C      1  0.4950790000000  0.5059270000000  0.5374220000000 1.0
C      1  0.5440640000000  0.4891470000000  0.4843950000000 1.0
C      1  0.4700800000000  0.5504450000000  0.5001780000000 1.0
C      1  0.5076790000000  0.4395570000000  0.5063950000000 1.0
C      1  0.4939890000000  0.4789900000000  0.4544580000000 1.0
C      1  0.5142780000000  0.5025980000000  0.5159500000000 1.0
C      1  0.4975270000000  0.5427200000000  0.4942290000000 1.0
C      1  0.4843100000000  0.4726150000000  0.4801410000000 1.0
C      1  0.5046290000000  0.5149770000000  0.4920590000000 1.0
C      1  0.4816940000000  0.4968560000000  0.4959350000000 1.0
C      1  0.5146540000000  0.4923900000000  0.4457100000000 1.0
C      1  0.5013670000000  0.5564570000000  0.5193950000000 1.0
C      1  0.4888950000000  0.4480560000000  0.4907670000000 1.0
C      1  0.5309330000000  0.4802370000000  0.5082120000000 1.0
C      1  0.5276070000000  0.4540220000000  0.5150860000000 1.0
C      1  0.4744420000000  0.5497710000000  0.5290100000000 1.0
C      1  0.4710340000000  0.5010890000000  0.5221150000000 1.0
END
