TITL C-98481-9214-5 -0.00172974157294071 125000 -22.9478494942341 0 0 4 (D(inf)h) n - 1
REM
REM in /rds/project/t2_vol4/rds-t2-cs072/BORA/CARBON/from-Arr/AIRSS/Generating-Clusters/GAP-ML-2020/Higher-Symm/SD-CG/HFTN-CG
REM
REM
REM
REM
REM
REM ./C.cell (b20cbc046b6831c77cfcea5457e17084)
REM AIRSS Version 0.9.1 bugfix July 2018 build 013d7b7c2542+ Fri, 06 Jul 2018 19:26:36 +0100
REM compiler GCC version 9.3.0
REM options -cpp -mtune=generic -march=x86-64 -g -O0
REM seed -1054162018 723058339 -1128342270 490259926 -803138894 -86234867 1588638169 1148537743 1061683085 -1353526851 -1155312633 2128344440 34872956 -1584378621 1407202330 1122501302 1084445697 1993694227 1621444110 -1579152856 -449343675 -451894842 -2066432274 -1642096484 -1656268884 -1465108014 1800395196 2101174843 -2125286112 -1364790581 -1281723074 688465999 -280290842
REM
CELL 1.54180   50.00000   50.00000   50.00000   90.00000   90.00000   90.00000
LATT -1
SFAC C  
C      1  0.5021260000000  0.4985460000000  0.5388630000000 1.0
C      1  0.5021260000000  0.4985460000000  0.4611370000000 1.0
C      1  0.5021260000000  0.4985460000000  0.5134660000000 1.0
C      1  0.5021260000000  0.4985460000000  0.4865340000000 1.0
END
