TITL C-98484-9369-1 37.8608810531593 125000 -634.484588757897 0 0 92 (C1) n - 1
REM
REM in /rds/project/t2_vol4/rds-t2-cs072/BORA/CARBON/from-Arr/AIRSS/Generating-Clusters/GAP-ML-2020/Higher-Symm/SD-CG/HFTN-CG
REM
REM
REM
REM
REM
REM ./C.cell (b20cbc046b6831c77cfcea5457e17084)
REM AIRSS Version 0.9.1 bugfix July 2018 build 013d7b7c2542+ Fri, 06 Jul 2018 19:26:36 +0100
REM compiler GCC version 9.3.0
REM options -cpp -mtune=generic -march=x86-64 -g -O0
REM seed 1653699368 -2109154049 -994996903 599436471 2044696905 -1773878106 -430379289 1230564747 718448152 -1403975986 -1538029358 42392318 1669377390 -836388034 1631169713 76103826 815977771 713239064 -1226524927 1246426439 -332466311 800977360 478920374 1803400845 389644779 1397561724 -844535662 958711554 -1512277 -1703118083 -1417455251 454361751 -171447344
REM
CELL 1.54180   50.00000   50.00000   50.00000   90.00000   90.00000   90.00000
LATT -1
SFAC C  
C      1  0.5145540000000  0.5236610000000  0.4214120000000 1.0
C      1  0.4260650000000  0.5227840000000  0.5242740000000 1.0
C      1  0.5623120000000  0.5222790000000  0.5508080000000 1.0
C      1  0.5103630000000  0.4784580000000  0.5811340000000 1.0
C      1  0.4292260000000  0.4755890000000  0.4745500000000 1.0
C      1  0.5620260000000  0.4758670000000  0.4426370000000 1.0
C      1  0.4817860000000  0.4782000000000  0.5812810000000 1.0
C      1  0.5772540000000  0.4760270000000  0.4667570000000 1.0
C      1  0.4442150000000  0.4757210000000  0.4502920000000 1.0
C      1  0.4861520000000  0.5226720000000  0.4233280000000 1.0
C      1  0.5742160000000  0.5209900000000  0.5246520000000 1.0
C      1  0.4348990000000  0.5254920000000  0.5514880000000 1.0
C      1  0.5781280000000  0.5308250000000  0.4770350000000 1.0
C      1  0.4458180000000  0.5299540000000  0.4440130000000 1.0
C      1  0.4730980000000  0.5344240000000  0.5787370000000 1.0
C      1  0.5755010000000  0.4672180000000  0.5158380000000 1.0
C      1  0.4377160000000  0.4661070000000  0.5612680000000 1.0
C      1  0.4804940000000  0.4675350000000  0.4215150000000 1.0
C      1  0.4208740000000  0.4672380000000  0.5204010000000 1.0
C      1  0.5528680000000  0.4681360000000  0.5569310000000 1.0
C      1  0.5220180000000  0.4680020000000  0.4187840000000 1.0
C      1  0.4246930000000  0.5303540000000  0.4798130000000 1.0
C      1  0.5564210000000  0.5323420000000  0.4407670000000 1.0
C      1  0.5206400000000  0.5320800000000  0.5762070000000 1.0
C      1  0.5370320000000  0.5590020000000  0.5390970000000 1.0
C      1  0.5144670000000  0.5608990000000  0.4517690000000 1.0
C      1  0.4506720000000  0.5608680000000  0.5131710000000 1.0
C      1  0.5356130000000  0.4386860000000  0.4615620000000 1.0
C      1  0.5134440000000  0.4412110000000  0.5527460000000 1.0
C      1  0.4520180000000  0.4382870000000  0.4886560000000 1.0
C      1  0.4665300000000  0.4377780000000  0.4639430000000 1.0
C      1  0.4847180000000  0.4402490000000  0.5509690000000 1.0
C      1  0.5515700000000  0.4391660000000  0.4852800000000 1.0
C      1  0.4611970000000  0.5622580000000  0.5401660000000 1.0
C      1  0.4861750000000  0.5597660000000  0.4531650000000 1.0
C      1  0.5492110000000  0.5584840000000  0.5126180000000 1.0
C      1  0.5662330000000  0.4934970000000  0.5536710000000 1.0
C      1  0.5156270000000  0.4962800000000  0.4133590000000 1.0
C      1  0.4199610000000  0.4953300000000  0.5273310000000 1.0
C      1  0.5654830000000  0.5046150000000  0.4397460000000 1.0
C      1  0.5102930000000  0.5073350000000  0.5859470000000 1.0
C      1  0.4217740000000  0.5027830000000  0.4712090000000 1.0
C      1  0.4363210000000  0.5025230000000  0.4455900000000 1.0
C      1  0.4810300000000  0.5077980000000  0.5855090000000 1.0
C      1  0.5810230000000  0.5043220000000  0.4649820000000 1.0
C      1  0.4380610000000  0.4957940000000  0.5519410000000 1.0
C      1  0.4858210000000  0.4955830000000  0.4147280000000 1.0
C      1  0.5793670000000  0.4926520000000  0.5277510000000 1.0
C      1  0.5155670000000  0.4240140000000  0.4768480000000 1.0
C      1  0.4728300000000  0.4217630000000  0.5017450000000 1.0
C      1  0.5168190000000  0.4265760000000  0.5269530000000 1.0
C      1  0.5136410000000  0.5736410000000  0.5283820000000 1.0
C      1  0.4723410000000  0.5767070000000  0.5025230000000 1.0
C      1  0.5147640000000  0.5764490000000  0.4767720000000 1.0
C      1  0.4852930000000  0.5760960000000  0.5292670000000 1.0
C      1  0.5272430000000  0.5739810000000  0.5021820000000 1.0
C      1  0.4856910000000  0.5763720000000  0.4775330000000 1.0
C      1  0.4874940000000  0.4212410000000  0.4764540000000 1.0
C      1  0.5309970000000  0.4268400000000  0.5021400000000 1.0
C      1  0.4871990000000  0.4245240000000  0.5262740000000 1.0
C      1  0.5361300000000  0.4635500000000  0.4443440000000 1.0
C      1  0.4407470000000  0.4643010000000  0.4985570000000 1.0
C      1  0.5275780000000  0.4609480000000  0.5673850000000 1.0
C      1  0.5424020000000  0.5401530000000  0.5597170000000 1.0
C      1  0.4426930000000  0.5341580000000  0.5030890000000 1.0
C      1  0.5273740000000  0.5356450000000  0.4443900000000 1.0
C      1  0.4535680000000  0.5439820000000  0.5604220000000 1.0
C      1  0.5613240000000  0.5334510000000  0.5019120000000 1.0
C      1  0.4749430000000  0.5330490000000  0.4479430000000 1.0
C      1  0.4703580000000  0.4635070000000  0.4492130000000 1.0
C      1  0.5646870000000  0.4641380000000  0.4894960000000 1.0
C      1  0.4678260000000  0.4635550000000  0.5600400000000 1.0
C      1  0.5364380000000  0.4835040000000  0.4905210000000 1.0
C      1  0.4917030000000  0.4824150000000  0.4692130000000 1.0
C      1  0.4663810000000  0.4877200000000  0.5388290000000 1.0
C      1  0.5342040000000  0.5145090000000  0.4946810000000 1.0
C      1  0.4855880000000  0.5088000000000  0.5430510000000 1.0
C      1  0.4868180000000  0.5136750000000  0.4722720000000 1.0
C      1  0.4710350000000  0.5143640000000  0.4984280000000 1.0
C      1  0.5161160000000  0.5083270000000  0.5180850000000 1.0
C      1  0.5179450000000  0.5162080000000  0.4697000000000 1.0
C      1  0.4657030000000  0.4843150000000  0.5087190000000 1.0
C      1  0.5212090000000  0.4843380000000  0.4649320000000 1.0
C      1  0.5150530000000  0.4806920000000  0.5106130000000 1.0
C      1  0.4974380000000  0.5463120000000  0.5737980000000 1.0
C      1  0.4192050000000  0.4533210000000  0.5450450000000 1.0
C      1  0.5618230000000  0.4535760000000  0.5353000000000 1.0
C      1  0.5006050000000  0.4535120000000  0.4077240000000 1.0
C      1  0.5773460000000  0.5465150000000  0.4538610000000 1.0
C      1  0.4248210000000  0.5445990000000  0.4554770000000 1.0
C      1  0.4904640000000  0.4748730000000  0.4974930000000 1.0
C      1  0.4912520000000  0.5206650000000  0.5191490000000 1.0
END
