TITL C-98491-9379-4 80.7510925231798 125000 -701.479061253192 0 0 99 (C1) n - 1
REM
REM in /rds/project/t2_vol4/rds-t2-cs072/BORA/CARBON/from-Arr/AIRSS/Generating-Clusters/GAP-ML-2020/Higher-Symm/SD-CG/HFTN-CG
REM
REM
REM
REM
REM
REM ./C.cell (b20cbc046b6831c77cfcea5457e17084)
REM AIRSS Version 0.9.1 bugfix July 2018 build 013d7b7c2542+ Fri, 06 Jul 2018 19:26:36 +0100
REM compiler GCC version 9.3.0
REM options -cpp -mtune=generic -march=x86-64 -g -O0
REM seed 1474802265 1277133451 -1699052985 -689422801 1455863516 2118197737 -881175511 1691564227 1297134564 1173872722 403150221 -1069849022 -1276963679 -472271785 427209345 26659874 -578334221 1105985079 1522680085 -1809023353 -1777751400 -82226564 761668184 -677559571 -450080975 41121901 1289928726 107294908 -1019845258 -2069002255 2010965542 -208689388 442455534
REM
CELL 1.54180   50.00000   50.00000   50.00000   90.00000   90.00000   90.00000
LATT -1
SFAC C  
C      1  0.4517900000000  0.5470840000000  0.5534610000000 1.0
C      1  0.4770850000000  0.5471230000000  0.4318780000000 1.0
C      1  0.5688150000000  0.5484920000000  0.5152250000000 1.0
C      1  0.4524910000000  0.4528590000000  0.5528190000000 1.0
C      1  0.4787640000000  0.4528140000000  0.4318910000000 1.0
C      1  0.5712120000000  0.4543850000000  0.5150020000000 1.0
C      1  0.4531920000000  0.5465950000000  0.4462010000000 1.0
C      1  0.4755600000000  0.5472150000000  0.5679140000000 1.0
C      1  0.5683790000000  0.5478640000000  0.4874470000000 1.0
C      1  0.4538510000000  0.4519820000000  0.4444260000000 1.0
C      1  0.4766000000000  0.4541190000000  0.5665060000000 1.0
C      1  0.5703980000000  0.4544940000000  0.4869980000000 1.0
C      1  0.5001660000000  0.5566060000000  0.5575420000000 1.0
C      1  0.4498010000000  0.5554110000000  0.4727880000000 1.0
C      1  0.5463860000000  0.5556260000000  0.4717030000000 1.0
C      1  0.5007480000000  0.4506800000000  0.5506360000000 1.0
C      1  0.4501290000000  0.4423620000000  0.4708990000000 1.0
C      1  0.5497330000000  0.4447920000000  0.4702650000000 1.0
C      1  0.5012910000000  0.5564450000000  0.4430630000000 1.0
C      1  0.4490330000000  0.5559180000000  0.5267260000000 1.0
C      1  0.5467140000000  0.5568350000000  0.5309300000000 1.0
C      1  0.5034580000000  0.4438430000000  0.4423200000000 1.0
C      1  0.4521170000000  0.4446350000000  0.5257890000000 1.0
C      1  0.5497340000000  0.4447410000000  0.5309470000000 1.0
C      1  0.4402760000000  0.4676910000000  0.5113570000000 1.0
C      1  0.5234520000000  0.4631140000000  0.4333140000000 1.0
C      1  0.5471560000000  0.4643300000000  0.5531780000000 1.0
C      1  0.4315680000000  0.5366050000000  0.5139280000000 1.0
C      1  0.5216590000000  0.5375060000000  0.4340130000000 1.0
C      1  0.5452580000000  0.5378610000000  0.5532200000000 1.0
C      1  0.4326300000000  0.4623290000000  0.4833500000000 1.0
C      1  0.5221200000000  0.4649630000000  0.5664900000000 1.0
C      1  0.5479890000000  0.4635320000000  0.4480160000000 1.0
C      1  0.4321570000000  0.5359370000000  0.4853020000000 1.0
C      1  0.5203880000000  0.5377430000000  0.5670550000000 1.0
C      1  0.5455770000000  0.5373070000000  0.4493370000000 1.0
C      1  0.4770760000000  0.3975660000000  0.5141790000000 1.0
C      1  0.5023890000000  0.3965680000000  0.4716410000000 1.0
C      1  0.5261040000000  0.3979750000000  0.5146100000000 1.0
C      1  0.4739460000000  0.6027940000000  0.5142350000000 1.0
C      1  0.4991370000000  0.6031760000000  0.4719270000000 1.0
C      1  0.5229730000000  0.6023340000000  0.5147590000000 1.0
C      1  0.4773790000000  0.3965320000000  0.4857500000000 1.0
C      1  0.5016930000000  0.3988070000000  0.5287920000000 1.0
C      1  0.5266180000000  0.3974020000000  0.4861300000000 1.0
C      1  0.4740900000000  0.6031850000000  0.4859830000000 1.0
C      1  0.4985230000000  0.6026250000000  0.5286290000000 1.0
C      1  0.5234950000000  0.6023660000000  0.4863490000000 1.0
C      1  0.4813500000000  0.4783930000000  0.4198300000000 1.0
C      1  0.5800810000000  0.4800110000000  0.5233960000000 1.0
C      1  0.4397950000000  0.4779920000000  0.5573810000000 1.0
C      1  0.4803410000000  0.5216630000000  0.4195160000000 1.0
C      1  0.5791000000000  0.5234890000000  0.5237540000000 1.0
C      1  0.4396240000000  0.5218410000000  0.5578190000000 1.0
C      1  0.4786950000000  0.4788360000000  0.5798580000000 1.0
C      1  0.5797230000000  0.4797720000000  0.4784030000000 1.0
C      1  0.4414670000000  0.4776490000000  0.4404210000000 1.0
C      1  0.4781870000000  0.5219020000000  0.5806380000000 1.0
C      1  0.5789270000000  0.5230070000000  0.4787470000000 1.0
C      1  0.4415270000000  0.5210850000000  0.4419220000000 1.0
C      1  0.5653920000000  0.5156500000000  0.4547550000000 1.0
C      1  0.5061550000000  0.5152680000000  0.5805140000000 1.0
C      1  0.4278910000000  0.5135740000000  0.4658000000000 1.0
C      1  0.5661420000000  0.4864200000000  0.4543360000000 1.0
C      1  0.5065010000000  0.4861490000000  0.5803700000000 1.0
C      1  0.4275930000000  0.4843940000000  0.4644670000000 1.0
C      1  0.5650200000000  0.5160150000000  0.5474070000000 1.0
C      1  0.5080380000000  0.5150430000000  0.4199400000000 1.0
C      1  0.4268540000000  0.5146500000000  0.5335360000000 1.0
C      1  0.5657370000000  0.4868930000000  0.5472520000000 1.0
C      1  0.5088230000000  0.4858380000000  0.4205960000000 1.0
C      1  0.4274320000000  0.4858190000000  0.5333170000000 1.0
C      1  0.5183240000000  0.4761250000000  0.5091210000000 1.0
C      1  0.4832430000000  0.4965610000000  0.5244080000000 1.0
C      1  0.4784050000000  0.4851240000000  0.4818520000000 1.0
C      1  0.5296710000000  0.5010220000000  0.5002120000000 1.0
C      1  0.4935600000000  0.5213010000000  0.5169920000000 1.0
C      1  0.4902410000000  0.5094950000000  0.4730350000000 1.0
C      1  0.5039030000000  0.4728270000000  0.4844850000000 1.0
C      1  0.4649210000000  0.4865940000000  0.5056900000000 1.0
C      1  0.5011480000000  0.4763580000000  0.5302720000000 1.0
C      1  0.5169660000000  0.4987930000000  0.4742900000000 1.0
C      1  0.4877680000000  0.5289820000000  0.4912370000000 1.0
C      1  0.5208040000000  0.5233020000000  0.5124610000000 1.0
C      1  0.5021000000000  0.4276040000000  0.4680000000000 1.0
C      1  0.5286650000000  0.4288170000000  0.5156110000000 1.0
C      1  0.4741350000000  0.4283920000000  0.5138970000000 1.0
C      1  0.4991350000000  0.5719910000000  0.4690760000000 1.0
C      1  0.5248740000000  0.5714480000000  0.5166450000000 1.0
C      1  0.4715910000000  0.5716990000000  0.5153080000000 1.0
C      1  0.5014890000000  0.4294090000000  0.5292720000000 1.0
C      1  0.5286430000000  0.4283030000000  0.4834740000000 1.0
C      1  0.4736790000000  0.4271590000000  0.4831730000000 1.0
C      1  0.4986880000000  0.5716720000000  0.5318060000000 1.0
C      1  0.5248810000000  0.5711580000000  0.4849590000000 1.0
C      1  0.4717790000000  0.5719990000000  0.4847380000000 1.0
C      1  0.5852260000000  0.5016680000000  0.5010410000000 1.0
C      1  0.4562360000000  0.4999900000000  0.5745370000000 1.0
C      1  0.4584340000000  0.4997810000000  0.4255070000000 1.0
END
