TITL C-98510-9441-7 -192.065624586565 125000 -1248.83674112387 0 0 172 (C1) n - 1
REM
REM in /rds/project/t2_vol4/rds-t2-cs072/BORA/CARBON/from-Arr/AIRSS/Generating-Clusters/GAP-ML-2020/Higher-Symm/SD-CG/HFTN-CG
REM
REM
REM
REM
REM
REM ./C.cell (b20cbc046b6831c77cfcea5457e17084)
REM AIRSS Version 0.9.1 bugfix July 2018 build 013d7b7c2542+ Fri, 06 Jul 2018 19:26:36 +0100
REM compiler GCC version 9.3.0
REM options -cpp -mtune=generic -march=x86-64 -g -O0
REM seed 248189926 -1248017346 1659485326 -409630837 -719656255 -1055624235 -1633719301 1265718729 2027624186 -816372715 -1935523684 -1138640162 100777059 -1939323897 1174594965 982665131 -1569649731 -270591525 319913348 -1386340275 -977579873 -958076860 -1241675427 197221714 156690329 948515909 74267505 2090041853 1893097216 -1379158774 125728794 1340417773 209291533
REM
CELL 1.54180   50.00000   50.00000   50.00000   90.00000   90.00000   90.00000
LATT -1
SFAC C  
C      1  0.5487560000000  0.4298610000000  0.4435380000000 1.0
C      1  0.5360790000000  0.5765260000000  0.4435490000000 1.0
C      1  0.4156200000000  0.4921210000000  0.4438070000000 1.0
C      1  0.4574340000000  0.4040310000000  0.4556620000000 1.0
C      1  0.6043420000000  0.5105830000000  0.4542330000000 1.0
C      1  0.4387030000000  0.5844510000000  0.4541640000000 1.0
C      1  0.4260710000000  0.4484410000000  0.5053540000000 1.0
C      1  0.5824970000000  0.4609460000000  0.5036560000000 1.0
C      1  0.4925370000000  0.5900920000000  0.5042940000000 1.0
C      1  0.5727180000000  0.4809290000000  0.4246730000000 1.0
C      1  0.4799970000000  0.5717540000000  0.4247810000000 1.0
C      1  0.4477210000000  0.4459140000000  0.4256860000000 1.0
C      1  0.4962700000000  0.5174600000000  0.5594400000000 1.0
C      1  0.4876340000000  0.4896920000000  0.5594190000000 1.0
C      1  0.5175100000000  0.4939220000000  0.5586960000000 1.0
C      1  0.4861640000000  0.5885070000000  0.4469060000000 1.0
C      1  0.4303740000000  0.4430880000000  0.4480070000000 1.0
C      1  0.5842170000000  0.4672640000000  0.4467430000000 1.0
C      1  0.4986300000000  0.5282100000000  0.5316240000000 1.0
C      1  0.4768950000000  0.4851430000000  0.5318590000000 1.0
C      1  0.5256090000000  0.4874070000000  0.5307780000000 1.0
C      1  0.4516930000000  0.5010090000000  0.5269000000000 1.0
C      1  0.5245420000000  0.4576440000000  0.5270120000000 1.0
C      1  0.5251340000000  0.5411660000000  0.5262870000000 1.0
C      1  0.4070280000000  0.5414110000000  0.5490250000000 1.0
C      1  0.5113980000000  0.4001610000000  0.5505650000000 1.0
C      1  0.5811830000000  0.5585260000000  0.5501130000000 1.0
C      1  0.5125550000000  0.6071350000000  0.5174480000000 1.0
C      1  0.4010330000000  0.4569890000000  0.5181430000000 1.0
C      1  0.5874270000000  0.4349720000000  0.5166400000000 1.0
C      1  0.4456690000000  0.4420340000000  0.5280640000000 1.0
C      1  0.5786090000000  0.4815340000000  0.5259640000000 1.0
C      1  0.4766290000000  0.5767290000000  0.5268180000000 1.0
C      1  0.4222450000000  0.5637650000000  0.4667820000000 1.0
C      1  0.4835580000000  0.4006190000000  0.4683120000000 1.0
C      1  0.5946410000000  0.5351350000000  0.4670110000000 1.0
C      1  0.3918720000000  0.5341210000000  0.5264460000000 1.0
C      1  0.5246990000000  0.3897810000000  0.5276670000000 1.0
C      1  0.5830580000000  0.5754660000000  0.5275850000000 1.0
C      1  0.5027950000000  0.4704450000000  0.4013480000000 1.0
C      1  0.5236770000000  0.5163260000000  0.4011810000000 1.0
C      1  0.4736140000000  0.5113870000000  0.4012380000000 1.0
C      1  0.4323760000000  0.4220660000000  0.4930700000000 1.0
C      1  0.6022330000000  0.4795240000000  0.4913310000000 1.0
C      1  0.4667880000000  0.5979910000000  0.4915550000000 1.0
C      1  0.5824900000000  0.4645120000000  0.5500320000000 1.0
C      1  0.4901840000000  0.5875980000000  0.5513860000000 1.0
C      1  0.4297170000000  0.4485570000000  0.5524190000000 1.0
C      1  0.3968000000000  0.4935290000000  0.5499820000000 1.0
C      1  0.5579690000000  0.4140760000000  0.5499150000000 1.0
C      1  0.5452290000000  0.5911000000000  0.5506850000000 1.0
C      1  0.4344840000000  0.4930450000000  0.4219850000000 1.0
C      1  0.5383270000000  0.4457610000000  0.4218000000000 1.0
C      1  0.5274200000000  0.5595830000000  0.4217030000000 1.0
C      1  0.5880570000000  0.4250160000000  0.4722990000000 1.0
C      1  0.5206930000000  0.6128520000000  0.4727890000000 1.0
C      1  0.3921280000000  0.4605050000000  0.4734700000000 1.0
C      1  0.5478120000000  0.5259290000000  0.5364390000000 1.0
C      1  0.4532100000000  0.5281750000000  0.5371020000000 1.0
C      1  0.5004100000000  0.4466910000000  0.5389230000000 1.0
C      1  0.4739890000000  0.5435090000000  0.5222010000000 1.0
C      1  0.4761560000000  0.4562280000000  0.5233530000000 1.0
C      1  0.5510600000000  0.5005610000000  0.5211860000000 1.0
C      1  0.5293800000000  0.5529550000000  0.5009250000000 1.0
C      1  0.4392610000000  0.4987280000000  0.5015010000000 1.0
C      1  0.5319760000000  0.4475740000000  0.5014600000000 1.0
C      1  0.5923780000000  0.5316130000000  0.5463390000000 1.0
C      1  0.4257020000000  0.5640480000000  0.5458450000000 1.0
C      1  0.4831110000000  0.4066950000000  0.5482550000000 1.0
C      1  0.4573710000000  0.4678170000000  0.5893790000000 1.0
C      1  0.5552170000000  0.4773540000000  0.5871720000000 1.0
C      1  0.4915820000000  0.5546700000000  0.5898450000000 1.0
C      1  0.5821760000000  0.5085700000000  0.4236520000000 1.0
C      1  0.4513840000000  0.5661860000000  0.4236160000000 1.0
C      1  0.4666860000000  0.4238230000000  0.4245740000000 1.0
C      1  0.5521440000000  0.3968930000000  0.5279420000000 1.0
C      1  0.5629140000000  0.5952680000000  0.5284100000000 1.0
C      1  0.3848150000000  0.5066020000000  0.5274640000000 1.0
C      1  0.4349780000000  0.5881780000000  0.4269100000000 1.0
C      1  0.4559180000000  0.3986930000000  0.4284770000000 1.0
C      1  0.6093830000000  0.5119710000000  0.4269900000000 1.0
C      1  0.4630610000000  0.4678640000000  0.4776870000000 1.0
C      1  0.5465550000000  0.4831730000000  0.4763410000000 1.0
C      1  0.4910170000000  0.5480270000000  0.4767620000000 1.0
C      1  0.6006020000000  0.4834570000000  0.4639030000000 1.0
C      1  0.4640420000000  0.5946870000000  0.4640770000000 1.0
C      1  0.4361820000000  0.4210360000000  0.4655370000000 1.0
C      1  0.5093040000000  0.4865670000000  0.4478300000000 1.0
C      1  0.5063880000000  0.5140920000000  0.4476660000000 1.0
C      1  0.4839840000000  0.4977810000000  0.4478070000000 1.0
C      1  0.5000090000000  0.5555630000000  0.4131470000000 1.0
C      1  0.4516110000000  0.4712360000000  0.4136670000000 1.0
C      1  0.5486160000000  0.4715150000000  0.4131930000000 1.0
C      1  0.5576570000000  0.4576820000000  0.4865740000000 1.0
C      1  0.5077120000000  0.5702850000000  0.4868460000000 1.0
C      1  0.4353870000000  0.4712050000000  0.4875780000000 1.0
C      1  0.4822800000000  0.4549320000000  0.4933970000000 1.0
C      1  0.5485450000000  0.5065220000000  0.4915130000000 1.0
C      1  0.4700900000000  0.5381770000000  0.4923650000000 1.0
C      1  0.5427280000000  0.4535900000000  0.5912230000000 1.0
C      1  0.5184640000000  0.5425480000000  0.5945890000000 1.0
C      1  0.4482750000000  0.4951450000000  0.5946850000000 1.0
C      1  0.3963600000000  0.5412840000000  0.4993600000000 1.0
C      1  0.5160300000000  0.3897370000000  0.5006850000000 1.0
C      1  0.5874780000000  0.5683690000000  0.5002930000000 1.0
C      1  0.5110500000000  0.5295440000000  0.4687170000000 1.0
C      1  0.4686510000000  0.4944330000000  0.4692030000000 1.0
C      1  0.5204160000000  0.4749310000000  0.4689130000000 1.0
C      1  0.4969720000000  0.4450490000000  0.5734070000000 1.0
C      1  0.5530660000000  0.5222190000000  0.5694820000000 1.0
C      1  0.4515820000000  0.5345310000000  0.5692890000000 1.0
C      1  0.5982560000000  0.5428710000000  0.4946950000000 1.0
C      1  0.4135420000000  0.5631690000000  0.4942850000000 1.0
C      1  0.4885360000000  0.3940550000000  0.4960940000000 1.0
C      1  0.4764500000000  0.5307290000000  0.5841300000000 1.0
C      1  0.4860760000000  0.4715870000000  0.5848120000000 1.0
C      1  0.5367050000000  0.5003260000000  0.5819230000000 1.0
C      1  0.3920670000000  0.5183870000000  0.4823720000000 1.0
C      1  0.5378430000000  0.3967920000000  0.4830050000000 1.0
C      1  0.5700970000000  0.5835540000000  0.4830640000000 1.0
C      1  0.5094270000000  0.4549210000000  0.4847410000000 1.0
C      1  0.5341500000000  0.5298940000000  0.4840070000000 1.0
C      1  0.4567650000000  0.5143460000000  0.4845150000000 1.0
C      1  0.5108290000000  0.4447960000000  0.4146610000000 1.0
C      1  0.5418970000000  0.5362590000000  0.4143300000000 1.0
C      1  0.4473520000000  0.5172810000000  0.4143900000000 1.0
C      1  0.4482050000000  0.5632340000000  0.5654190000000 1.0
C      1  0.4736770000000  0.4276200000000  0.5681620000000 1.0
C      1  0.5804610000000  0.5125990000000  0.5654140000000 1.0
C      1  0.5137240000000  0.5889430000000  0.4594330000000 1.0
C      1  0.4162560000000  0.4667890000000  0.4601900000000 1.0
C      1  0.5708290000000  0.4430770000000  0.4591520000000 1.0
C      1  0.5792190000000  0.4831880000000  0.5715110000000 1.0
C      1  0.4771720000000  0.5739430000000  0.5728460000000 1.0
C      1  0.4493090000000  0.4450210000000  0.5734910000000 1.0
C      1  0.5617490000000  0.5728620000000  0.4573060000000 1.0
C      1  0.4059370000000  0.5163550000000  0.4570520000000 1.0
C      1  0.5326910000000  0.4096370000000  0.4575230000000 1.0
C      1  0.4322700000000  0.5150510000000  0.5807550000000 1.0
C      1  0.5242240000000  0.4356590000000  0.5820490000000 1.0
C      1  0.5441960000000  0.5477670000000  0.5813410000000 1.0
C      1  0.5264470000000  0.4873310000000  0.4010400000000 1.0
C      1  0.4972890000000  0.5283750000000  0.4009360000000 1.0
C      1  0.4763480000000  0.4824770000000  0.4011710000000 1.0
C      1  0.4197520000000  0.5405730000000  0.4495890000000 1.0
C      1  0.5047600000000  0.4096120000000  0.4505280000000 1.0
C      1  0.5758070000000  0.5488200000000  0.4497990000000 1.0
C      1  0.5833820000000  0.4146320000000  0.4968030000000 1.0
C      1  0.5319460000000  0.6138880000000  0.4973690000000 1.0
C      1  0.3853800000000  0.4700270000000  0.4978020000000 1.0
C      1  0.4268710000000  0.5752900000000  0.5181110000000 1.0
C      1  0.4722390000000  0.4004610000000  0.5204970000000 1.0
C      1  0.6020140000000  0.5253470000000  0.5184630000000 1.0
C      1  0.5170080000000  0.5982580000000  0.5442040000000 1.0
C      1  0.4063000000000  0.4656570000000  0.5447600000000 1.0
C      1  0.5778350000000  0.4356610000000  0.5433950000000 1.0
C      1  0.5664960000000  0.5326240000000  0.4276310000000 1.0
C      1  0.4383550000000  0.5405430000000  0.4275380000000 1.0
C      1  0.4953600000000  0.4254810000000  0.4282760000000 1.0
C      1  0.5323290000000  0.4142930000000  0.5649770000000 1.0
C      1  0.5570080000000  0.5679330000000  0.5653420000000 1.0
C      1  0.4094630000000  0.5159500000000  0.5644330000000 1.0
C      1  0.4719030000000  0.5095150000000  0.6034930000000 1.0
C      1  0.4952180000000  0.4951950000000  0.6046030000000 1.0
C      1  0.5180090000000  0.5127140000000  0.6010480000000 1.0
C      1  0.3820590000000  0.4977640000000  0.5006440000000 1.0
C      1  0.5609040000000  0.3983370000000  0.5008790000000 1.0
C      1  0.5571340000000  0.6022810000000  0.5013660000000 1.0
C      1  0.4482660000000  0.4140970000000  0.5159040000000 1.0
C      1  0.6016100000000  0.4976620000000  0.5138980000000 1.0
C      1  0.4512950000000  0.5885980000000  0.5140830000000 1.0
C      1  0.5002830000000  0.5001500000000  0.5176780000000 1.0
END
