TITL C-98483-9326-9 41.2517591088155 125000 -33.2671972550891 0 0 6 (D6h) n - 1
REM
REM in /rds/project/t2_vol4/rds-t2-cs072/BORA/CARBON/from-Arr/AIRSS/Generating-Clusters/GAP-ML-2020/Higher-Symm/SD-CG/HFTN-CG
REM
REM
REM
REM
REM
REM ./C.cell (b20cbc046b6831c77cfcea5457e17084)
REM AIRSS Version 0.9.1 bugfix July 2018 build 013d7b7c2542+ Fri, 06 Jul 2018 19:26:36 +0100
REM compiler GCC version 9.3.0
REM options -cpp -mtune=generic -march=x86-64 -g -O0
REM seed 186912194 -339492501 1834848635 521378354 -883066764 1479694497 1319108998 344786109 182612558 55970648 -926583819 159770986 -1388632719 -1733213650 1243201128 1985022529 -1430393168 1267243098 -183330957 630694887 -608733399 655131703 -702202429 -594259499 -1683867472 1481729928 976567769 1899956500 -907001397 -1886595689 223392935 -1154666441 1024366290
REM
CELL 1.54180   50.00000   50.00000   50.00000   90.00000   90.00000   90.00000
LATT -1
SFAC C  
C      1  0.5000000000000  0.5014530000000  0.5273420000000 1.0
C      1  0.5000000000000  0.4770480000000  0.5149290000000 1.0
C      1  0.5000000000000  0.4755950000000  0.4875870000000 1.0
C      1  0.5000000000000  0.4985470000000  0.4726580000000 1.0
C      1  0.5000000000000  0.5229520000000  0.4850710000000 1.0
C      1  0.5000000000000  0.5244050000000  0.5124130000000 1.0
END
