TITL C-98497-9341-6 37.6041587739009 125000 -1088.20123375494 0 0 157 (C1) n - 1
REM
REM in /rds/project/t2_vol4/rds-t2-cs072/BORA/CARBON/from-Arr/AIRSS/Generating-Clusters/GAP-ML-2020/Higher-Symm/SD-CG/HFTN-CG
REM
REM
REM
REM
REM
REM ./C.cell (b20cbc046b6831c77cfcea5457e17084)
REM AIRSS Version 0.9.1 bugfix July 2018 build 013d7b7c2542+ Fri, 06 Jul 2018 19:26:36 +0100
REM compiler GCC version 9.3.0
REM options -cpp -mtune=generic -march=x86-64 -g -O0
REM seed -461439572 -349691807 -1033504268 -1754367829 -648442828 -955274898 1249068833 1672230531 -144341659 -2008337296 -703099969 -1904305876 -1957145889 -98885609 1538757315 -2035390327 1710662245 1567029953 -44216085 -721211708 -2085804006 1999954680 -892605292 -1345732703 -1986311860 -1896112653 5531353 2100428368 -1489633 322556447 26398301 442613840 119241266
REM
CELL 1.54180   50.00000   50.00000   50.00000   90.00000   90.00000   90.00000
LATT -1
SFAC C  
C      1  0.4363970000000  0.4837720000000  0.4831770000000 1.0
C      1  0.4368710000000  0.5155740000000  0.5151690000000 1.0
C      1  0.4371800000000  0.4835160000000  0.5149990000000 1.0
C      1  0.4364360000000  0.5156380000000  0.4833360000000 1.0
C      1  0.5384750000000  0.4448560000000  0.4139670000000 1.0
C      1  0.5391120000000  0.5544350000000  0.5888340000000 1.0
C      1  0.5389740000000  0.4447300000000  0.5882630000000 1.0
C      1  0.5387960000000  0.5544120000000  0.4134890000000 1.0
C      1  0.5450320000000  0.4844110000000  0.4320460000000 1.0
C      1  0.5461630000000  0.5151980000000  0.5675760000000 1.0
C      1  0.5458730000000  0.4846480000000  0.5665680000000 1.0
C      1  0.5452920000000  0.5148850000000  0.4317330000000 1.0
C      1  0.4229530000000  0.4715650000000  0.5615680000000 1.0
C      1  0.4224270000000  0.5278270000000  0.4367530000000 1.0
C      1  0.4222550000000  0.4717420000000  0.4366250000000 1.0
C      1  0.4228770000000  0.5275450000000  0.5618410000000 1.0
C      1  0.5005660000000  0.5267860000000  0.3999240000000 1.0
C      1  0.5006710000000  0.4723580000000  0.5989210000000 1.0
C      1  0.5006320000000  0.5264960000000  0.5991390000000 1.0
C      1  0.5004480000000  0.4725310000000  0.3998280000000 1.0
C      1  0.4772290000000  0.6016310000000  0.4647880000000 1.0
C      1  0.4770690000000  0.3977070000000  0.5344780000000 1.0
C      1  0.4772480000000  0.6012910000000  0.5345620000000 1.0
C      1  0.4767600000000  0.3977340000000  0.4647680000000 1.0
C      1  0.4766460000000  0.4853280000000  0.3866110000000 1.0
C      1  0.4767300000000  0.5137570000000  0.6121070000000 1.0
C      1  0.4767690000000  0.4850760000000  0.6119250000000 1.0
C      1  0.4766800000000  0.5141370000000  0.3866580000000 1.0
C      1  0.5038540000000  0.5535100000000  0.5116590000000 1.0
C      1  0.5038870000000  0.4465830000000  0.4813560000000 1.0
C      1  0.5039850000000  0.5531610000000  0.4823150000000 1.0
C      1  0.5040650000000  0.4449810000000  0.5106130000000 1.0
C      1  0.4467780000000  0.5694110000000  0.4463570000000 1.0
C      1  0.4473940000000  0.4301920000000  0.5516350000000 1.0
C      1  0.4474670000000  0.5687900000000  0.5519730000000 1.0
C      1  0.4464340000000  0.4300500000000  0.4461810000000 1.0
C      1  0.4449550000000  0.5146380000000  0.4234570000000 1.0
C      1  0.4454620000000  0.4846780000000  0.5748260000000 1.0
C      1  0.4454470000000  0.5143710000000  0.5749930000000 1.0
C      1  0.4448300000000  0.4848810000000  0.4233610000000 1.0
C      1  0.4638900000000  0.5280930000000  0.5262790000000 1.0
C      1  0.4631630000000  0.4711580000000  0.4721460000000 1.0
C      1  0.4634100000000  0.5282580000000  0.4723570000000 1.0
C      1  0.4645450000000  0.4706310000000  0.5260670000000 1.0
C      1  0.4535900000000  0.4715840000000  0.3968960000000 1.0
C      1  0.4537840000000  0.5274520000000  0.6016050000000 1.0
C      1  0.4537850000000  0.4714390000000  0.6014210000000 1.0
C      1  0.4536870000000  0.5279610000000  0.3970020000000 1.0
C      1  0.5603420000000  0.5753120000000  0.4852270000000 1.0
C      1  0.5592680000000  0.4226100000000  0.5165350000000 1.0
C      1  0.5599680000000  0.5764590000000  0.5163300000000 1.0
C      1  0.5593510000000  0.4242250000000  0.4856780000000 1.0
C      1  0.4968880000000  0.5698210000000  0.5697290000000 1.0
C      1  0.4967730000000  0.4301060000000  0.4311760000000 1.0
C      1  0.4971730000000  0.5691910000000  0.4312110000000 1.0
C      1  0.4966980000000  0.4292210000000  0.5696280000000 1.0
C      1  0.5109150000000  0.4429990000000  0.4081420000000 1.0
C      1  0.5106640000000  0.5557110000000  0.5930320000000 1.0
C      1  0.5105410000000  0.4432890000000  0.5928670000000 1.0
C      1  0.5111660000000  0.5562370000000  0.4080940000000 1.0
C      1  0.4992760000000  0.5955950000000  0.5528400000000 1.0
C      1  0.4991930000000  0.4035600000000  0.4470660000000 1.0
C      1  0.4996280000000  0.5958720000000  0.4470480000000 1.0
C      1  0.4989910000000  0.4033150000000  0.5528880000000 1.0
C      1  0.4712000000000  0.5558400000000  0.4834380000000 1.0
C      1  0.4721960000000  0.4430540000000  0.5133890000000 1.0
C      1  0.4719080000000  0.5558640000000  0.5137820000000 1.0
C      1  0.4709900000000  0.4436110000000  0.4830860000000 1.0
C      1  0.4587060000000  0.4193870000000  0.4691470000000 1.0
C      1  0.4595930000000  0.5796150000000  0.5290360000000 1.0
C      1  0.4596030000000  0.4194060000000  0.5287090000000 1.0
C      1  0.4590620000000  0.5800790000000  0.4693300000000 1.0
C      1  0.4260430000000  0.4475100000000  0.5494390000000 1.0
C      1  0.4255800000000  0.5518860000000  0.4488550000000 1.0
C      1  0.4253170000000  0.4476690000000  0.4487170000000 1.0
C      1  0.4260740000000  0.5515270000000  0.5496860000000 1.0
C      1  0.4944390000000  0.5148590000000  0.5682760000000 1.0
C      1  0.4936370000000  0.4843180000000  0.4298020000000 1.0
C      1  0.4938010000000  0.5149880000000  0.4299270000000 1.0
C      1  0.4944390000000  0.4839720000000  0.5679190000000 1.0
C      1  0.4684750000000  0.4715770000000  0.5577200000000 1.0
C      1  0.4678540000000  0.5275090000000  0.4405580000000 1.0
C      1  0.4676020000000  0.4718920000000  0.4403890000000 1.0
C      1  0.4683890000000  0.5273920000000  0.5579960000000 1.0
C      1  0.5181290000000  0.5263880000000  0.5533380000000 1.0
C      1  0.5169810000000  0.4742240000000  0.4456520000000 1.0
C      1  0.5174280000000  0.5251050000000  0.4458290000000 1.0
C      1  0.5180030000000  0.4726920000000  0.5528320000000 1.0
C      1  0.4679530000000  0.4412710000000  0.5695090000000 1.0
C      1  0.4678110000000  0.5579090000000  0.4292660000000 1.0
C      1  0.4675120000000  0.4415000000000  0.4291180000000 1.0
C      1  0.4680800000000  0.5576830000000  0.5697530000000 1.0
C      1  0.5457220000000  0.4352190000000  0.5611370000000 1.0
C      1  0.5449820000000  0.5618000000000  0.4423320000000 1.0
C      1  0.5442960000000  0.4373290000000  0.4427780000000 1.0
C      1  0.5464610000000  0.5633430000000  0.5613480000000 1.0
C      1  0.5390980000000  0.4840530000000  0.5129940000000 1.0
C      1  0.5372050000000  0.5150190000000  0.4817850000000 1.0
C      1  0.5347860000000  0.4868310000000  0.4847550000000 1.0
C      1  0.5521870000000  0.5281970000000  0.5023650000000 1.0
C      1  0.5659840000000  0.5572800000000  0.4624220000000 1.0
C      1  0.5651390000000  0.4386200000000  0.5402510000000 1.0
C      1  0.5657500000000  0.5600300000000  0.5401260000000 1.0
C      1  0.5649380000000  0.4424520000000  0.4633740000000 1.0
C      1  0.5904580000000  0.5145880000000  0.4856820000000 1.0
C      1  0.5713560000000  0.4777400000000  0.5128580000000 1.0
C      1  0.5806330000000  0.5277930000000  0.5088170000000 1.0
C      1  0.5853670000000  0.4851860000000  0.4880300000000 1.0
C      1  0.4568630000000  0.5541540000000  0.4021780000000 1.0
C      1  0.4563890000000  0.4452240000000  0.5963010000000 1.0
C      1  0.4564960000000  0.5536980000000  0.5965900000000 1.0
C      1  0.4566680000000  0.4453780000000  0.4020040000000 1.0
C      1  0.5453880000000  0.4717580000000  0.5929950000000 1.0
C      1  0.5447880000000  0.5280380000000  0.4057410000000 1.0
C      1  0.5446630000000  0.4711670000000  0.4061450000000 1.0
C      1  0.5453090000000  0.5275640000000  0.5941210000000 1.0
C      1  0.4859940000000  0.5141480000000  0.4843070000000 1.0
C      1  0.4876420000000  0.4844270000000  0.5147940000000 1.0
C      1  0.4866710000000  0.5138030000000  0.5151640000000 1.0
C      1  0.4859230000000  0.4850750000000  0.4840950000000 1.0
C      1  0.4184530000000  0.4694670000000  0.5338840000000 1.0
C      1  0.4178290000000  0.5299350000000  0.4644320000000 1.0
C      1  0.4176170000000  0.4696030000000  0.4642940000000 1.0
C      1  0.4182160000000  0.5295540000000  0.5341820000000 1.0
C      1  0.5387400000000  0.4022530000000  0.5149580000000 1.0
C      1  0.5397440000000  0.5960420000000  0.4851420000000 1.0
C      1  0.5389570000000  0.4031730000000  0.4852710000000 1.0
C      1  0.5394810000000  0.5967360000000  0.5148170000000 1.0
C      1  0.5256130000000  0.4855860000000  0.6082030000000 1.0
C      1  0.5253990000000  0.5135880000000  0.3906390000000 1.0
C      1  0.5253860000000  0.4855620000000  0.3908020000000 1.0
C      1  0.5255110000000  0.5133120000000  0.6086780000000 1.0
C      1  0.5811010000000  0.5353360000000  0.5365320000000 1.0
C      1  0.5797750000000  0.4682090000000  0.4649360000000 1.0
C      1  0.5820290000000  0.5314200000000  0.4627740000000 1.0
C      1  0.5784870000000  0.4638800000000  0.5364440000000 1.0
C      1  0.4940700000000  0.3864980000000  0.4858570000000 1.0
C      1  0.4945890000000  0.6126870000000  0.5138600000000 1.0
C      1  0.4942870000000  0.3863740000000  0.5137870000000 1.0
C      1  0.4945570000000  0.6127540000000  0.4858700000000 1.0
C      1  0.5115420000000  0.5254800000000  0.4745500000000 1.0
C      1  0.5141620000000  0.4705070000000  0.5236010000000 1.0
C      1  0.5115760000000  0.5268980000000  0.5247380000000 1.0
C      1  0.5114740000000  0.4748450000000  0.4742680000000 1.0
C      1  0.5732790000000  0.5145710000000  0.5544930000000 1.0
C      1  0.5726510000000  0.4851370000000  0.4439490000000 1.0
C      1  0.5730990000000  0.5137470000000  0.4435070000000 1.0
C      1  0.5728370000000  0.4856880000000  0.5536950000000 1.0
C      1  0.5194210000000  0.5559940000000  0.5554750000000 1.0
C      1  0.5162250000000  0.4433070000000  0.4510480000000 1.0
C      1  0.5168540000000  0.5558700000000  0.4503960000000 1.0
C      1  0.5189300000000  0.4431060000000  0.5548920000000 1.0
C      1  0.5173810000000  0.6048130000000  0.5307690000000 1.0
C      1  0.5171770000000  0.3946820000000  0.4693030000000 1.0
C      1  0.5177650000000  0.6047380000000  0.4693060000000 1.0
C      1  0.5169210000000  0.3939500000000  0.5309540000000 1.0
C      1  0.5361200000000  0.5135400000000  0.5193370000000 1.0
END
