TITL C-98489-9197-8 68.8665155128021 125000 -755.783696277229 0 0 106 (Cs) n - 1
REM
REM in /rds/project/t2_vol4/rds-t2-cs072/BORA/CARBON/from-Arr/AIRSS/Generating-Clusters/GAP-ML-2020/Higher-Symm/SD-CG/HFTN-CG
REM
REM
REM
REM
REM
REM ./C.cell (b20cbc046b6831c77cfcea5457e17084)
REM AIRSS Version 0.9.1 bugfix July 2018 build 013d7b7c2542+ Fri, 06 Jul 2018 19:26:36 +0100
REM compiler GCC version 9.3.0
REM options -cpp -mtune=generic -march=x86-64 -g -O0
REM seed 890295718 1084234088 -1621944508 705120579 -851396950 2104412126 -131376253 946967570 1086180245 -2088112661 1359754669 -1024913137 -1248477390 1224437740 174136447 -995441053 1906983753 1994382688 337879102 -334570297 1769543472 1713561381 -1970815335 -886856271 312216233 -1504555865 1580032221 -1742158542 1780065890 -485647957 -390255371 262141860 1501217754
REM
CELL 1.54180   50.00000   50.00000   50.00000   90.00000   90.00000   90.00000
LATT -1
SFAC C  
C      1  0.5859440000000  0.4616850000000  0.5065050000000 1.0
C      1  0.4141060000000  0.4615730000000  0.5065030000000 1.0
C      1  0.4429490000000  0.5629970000000  0.4616710000000 1.0
C      1  0.5569700000000  0.5630720000000  0.4616720000000 1.0
C      1  0.5148780000000  0.5392820000000  0.4792600000000 1.0
C      1  0.4850710000000  0.5392620000000  0.4792590000000 1.0
C      1  0.5265770000000  0.4322720000000  0.5247290000000 1.0
C      1  0.4735110000000  0.4322370000000  0.5247290000000 1.0
C      1  0.4859740000000  0.5469750000000  0.4341630000000 1.0
C      1  0.5139660000000  0.5469930000000  0.4341630000000 1.0
C      1  0.4734110000000  0.5619170000000  0.4584050000000 1.0
C      1  0.5265090000000  0.5619520000000  0.4584060000000 1.0
C      1  0.5835870000000  0.4816970000000  0.5271240000000 1.0
C      1  0.4164360000000  0.4815880000000  0.5271220000000 1.0
C      1  0.5269320000000  0.4831890000000  0.5036400000000 1.0
C      1  0.4730900000000  0.4831540000000  0.5036400000000 1.0
C      1  0.4704060000000  0.5440870000000  0.5545780000000 1.0
C      1  0.5295350000000  0.5441260000000  0.5545790000000 1.0
C      1  0.5711120000000  0.5291430000000  0.5255880000000 1.0
C      1  0.4288490000000  0.5290500000000  0.5255860000000 1.0
C      1  0.4861430000000  0.5776470000000  0.5907230000000 1.0
C      1  0.5137530000000  0.5776650000000  0.5907240000000 1.0
C      1  0.4461460000000  0.5020240000000  0.5610320000000 1.0
C      1  0.5538500000000  0.5020940000000  0.5610340000000 1.0
C      1  0.5135150000000  0.5234220000000  0.5687650000000 1.0
C      1  0.4864530000000  0.5234040000000  0.5687650000000 1.0
C      1  0.5555550000000  0.5271850000000  0.5489110000000 1.0
C      1  0.4444090000000  0.5271120000000  0.5489100000000 1.0
C      1  0.4742240000000  0.5346700000000  0.5069740000000 1.0
C      1  0.5257300000000  0.5347040000000  0.5069750000000 1.0
C      1  0.4310170000000  0.5419290000000  0.4757730000000 1.0
C      1  0.5689280000000  0.5420190000000  0.4757740000000 1.0
C      1  0.4840000000000  0.4703020000000  0.4572180000000 1.0
C      1  0.5160400000000  0.4703230000000  0.4572180000000 1.0
C      1  0.5805170000000  0.5186810000000  0.4661760000000 1.0
C      1  0.4194600000000  0.5185750000000  0.4661740000000 1.0
C      1  0.5139330000000  0.4192320000000  0.4596570000000 1.0
C      1  0.4861730000000  0.4192140000000  0.4596560000000 1.0
C      1  0.4864620000000  0.4339030000000  0.5502070000000 1.0
C      1  0.5136230000000  0.4339210000000  0.5502070000000 1.0
C      1  0.5723310000000  0.5005600000000  0.4446480000000 1.0
C      1  0.4276700000000  0.5004660000000  0.4446460000000 1.0
C      1  0.4717710000000  0.5213890000000  0.4373780000000 1.0
C      1  0.5282030000000  0.5214260000000  0.4373790000000 1.0
C      1  0.5277630000000  0.4998020000000  0.5725720000000 1.0
C      1  0.4722360000000  0.4997660000000  0.5725720000000 1.0
C      1  0.4714930000000  0.4528290000000  0.5653680000000 1.0
C      1  0.5285670000000  0.4528660000000  0.5653690000000 1.0
C      1  0.4857340000000  0.4753180000000  0.5748800000000 1.0
C      1  0.5142970000000  0.4753370000000  0.5748800000000 1.0
C      1  0.4451190000000  0.4293120000000  0.4351200000000 1.0
C      1  0.5549750000000  0.4293840000000  0.4351210000000 1.0
C      1  0.5735620000000  0.4362020000000  0.5104140000000 1.0
C      1  0.4265210000000  0.4361060000000  0.5104120000000 1.0
C      1  0.5693230000000  0.4182710000000  0.4890280000000 1.0
C      1  0.4307840000000  0.4181810000000  0.4890270000000 1.0
C      1  0.5545370000000  0.4364450000000  0.5313060000000 1.0
C      1  0.4455450000000  0.4363740000000  0.5313040000000 1.0
C      1  0.4215970000000  0.4735830000000  0.4532630000000 1.0
C      1  0.5784390000000  0.4736850000000  0.4532650000000 1.0
C      1  0.5248440000000  0.5157810000000  0.4649590000000 1.0
C      1  0.4751360000000  0.5157480000000  0.4649580000000 1.0
C      1  0.4459410000000  0.4547040000000  0.5528590000000 1.0
C      1  0.5541170000000  0.4547740000000  0.5528600000000 1.0
C      1  0.4414360000000  0.4554740000000  0.4390760000000 1.0
C      1  0.5586230000000  0.4555510000000  0.4390770000000 1.0
C      1  0.5463520000000  0.5006780000000  0.4306440000000 1.0
C      1  0.4536490000000  0.5006180000000  0.4306430000000 1.0
C      1  0.5675120000000  0.4793560000000  0.5502960000000 1.0
C      1  0.4325140000000  0.4792680000000  0.5502940000000 1.0
C      1  0.4835850000000  0.4449180000000  0.4743510000000 1.0
C      1  0.5164870000000  0.4449390000000  0.4743520000000 1.0
C      1  0.5278900000000  0.5797310000000  0.5170020000000 1.0
C      1  0.4720050000000  0.5796950000000  0.5170020000000 1.0
C      1  0.5887090000000  0.4752850000000  0.4809230000000 1.0
C      1  0.4113240000000  0.4751690000000  0.4809210000000 1.0
C      1  0.4144870000000  0.5070710000000  0.5155630000000 1.0
C      1  0.5855030000000  0.5071830000000  0.5155650000000 1.0
C      1  0.5577240000000  0.5442100000000  0.5043990000000 1.0
C      1  0.4422180000000  0.5441350000000  0.5043980000000 1.0
C      1  0.4844510000000  0.5544670000000  0.5286070000000 1.0
C      1  0.5154780000000  0.5544870000000  0.5286070000000 1.0
C      1  0.5546520000000  0.5855020000000  0.4797710000000 1.0
C      1  0.4452370000000  0.5854300000000  0.4797690000000 1.0
C      1  0.4863120000000  0.5942520000000  0.4970590000000 1.0
C      1  0.5135650000000  0.5942690000000  0.4970590000000 1.0
C      1  0.4852380000000  0.5059200000000  0.5156490000000 1.0
C      1  0.5147540000000  0.5059390000000  0.5156490000000 1.0
C      1  0.5578630000000  0.4065310000000  0.4705870000000 1.0
C      1  0.4422600000000  0.4064550000000  0.4705850000000 1.0
C      1  0.4711840000000  0.5654280000000  0.5743010000000 1.0
C      1  0.5287280000000  0.5654650000000  0.5743020000000 1.0
C      1  0.5393390000000  0.4112270000000  0.4496400000000 1.0
C      1  0.4607780000000  0.4111760000000  0.4496390000000 1.0
C      1  0.4730860000000  0.4903420000000  0.4760420000000 1.0
C      1  0.5269270000000  0.4903770000000  0.4760430000000 1.0
C      1  0.4641560000000  0.4737070000000  0.4345910000000 1.0
C      1  0.5358800000000  0.4737540000000  0.4345920000000 1.0
C      1  0.5271380000000  0.5899300000000  0.4715060000000 1.0
C      1  0.4727450000000  0.5898940000000  0.4715060000000 1.0
C      1  0.5159930000000  0.4528270000000  0.5040520000000 1.0
C      1  0.4840690000000  0.4528060000000  0.5040520000000 1.0
C      1  0.4466300000000  0.5741010000000  0.5055060000000 1.0
C      1  0.5532730000000  0.5741710000000  0.5055070000000 1.0
C      1  0.5902820000000  0.5028990000000  0.4875430000000 1.0
C      1  0.4097150000000  0.5027810000000  0.4875410000000 1.0
END
