TITL C-98485-9155-7 -57.7096908662655 125000 -991.186018951085 0 0 144 (C1) n - 1
REM
REM in /rds/project/t2_vol4/rds-t2-cs072/BORA/CARBON/from-Arr/AIRSS/Generating-Clusters/GAP-ML-2020/Higher-Symm/SD-CG/HFTN-CG
REM
REM
REM
REM
REM
REM ./C.cell (b20cbc046b6831c77cfcea5457e17084)
REM AIRSS Version 0.9.1 bugfix July 2018 build 013d7b7c2542+ Fri, 06 Jul 2018 19:26:36 +0100
REM compiler GCC version 9.3.0
REM options -cpp -mtune=generic -march=x86-64 -g -O0
REM seed -642434604 -434421308 -1878148265 -896623828 1637620576 -1586048488 -189991927 5328795 -912422948 -2035522390 2072816739 1059039324 -872668917 -144765345 -1334095104 -1502247507 -1545273619 921920730 -394193194 44616134 958294285 1232764871 1449401907 -1977784481 142086889 1486110449 -1005669065 493981665 -1734400893 307383307 -686752407 1820024778 613526555
REM
CELL 1.54180   50.00000   50.00000   50.00000   90.00000   90.00000   90.00000
LATT -1
SFAC C  
C      1  0.4895370000000  0.5696460000000  0.4355060000000 1.0
C      1  0.4904410000000  0.5190940000000  0.5924430000000 1.0
C      1  0.4893870000000  0.4095700000000  0.4728160000000 1.0
C      1  0.4487680000000  0.5240610000000  0.5787370000000 1.0
C      1  0.4476830000000  0.4200980000000  0.4821520000000 1.0
C      1  0.4481340000000  0.5555250000000  0.4394600000000 1.0
C      1  0.4088670000000  0.5322720000000  0.4271540000000 1.0
C      1  0.4092620000000  0.5462070000000  0.5643730000000 1.0
C      1  0.4082810000000  0.4214030000000  0.5079690000000 1.0
C      1  0.6077100000000  0.5130800000000  0.4901990000000 1.0
C      1  0.6080040000000  0.5025480000000  0.5160930000000 1.0
C      1  0.6077000000000  0.4853960000000  0.4940130000000 1.0
C      1  0.4417100000000  0.4605070000000  0.5531640000000 1.0
C      1  0.4417480000000  0.4733090000000  0.4388210000000 1.0
C      1  0.4418780000000  0.5662110000000  0.5073660000000 1.0
C      1  0.4934960000000  0.5212020000000  0.4471010000000 1.0
C      1  0.4937550000000  0.5348440000000  0.5445160000000 1.0
C      1  0.4929520000000  0.4441610000000  0.5078900000000 1.0
C      1  0.4923050000000  0.5752540000000  0.5144110000000 1.0
C      1  0.4926070000000  0.4500900000000  0.5570810000000 1.0
C      1  0.4922580000000  0.4745000000000  0.4273770000000 1.0
C      1  0.4847080000000  0.5214740000000  0.5191790000000 1.0
C      1  0.4845920000000  0.4727750000000  0.5085110000000 1.0
C      1  0.4845770000000  0.5062260000000  0.4715590000000 1.0
C      1  0.4686000000000  0.4662980000000  0.5647940000000 1.0
C      1  0.4681580000000  0.4600650000000  0.4380020000000 1.0
C      1  0.4683480000000  0.5733900000000  0.4964390000000 1.0
C      1  0.4476220000000  0.5271870000000  0.4001050000000 1.0
C      1  0.4478000000000  0.5723020000000  0.5736540000000 1.0
C      1  0.4465450000000  0.3999830000000  0.5262980000000 1.0
C      1  0.4087290000000  0.4786990000000  0.4796100000000 1.0
C      1  0.4088630000000  0.5284840000000  0.4913310000000 1.0
C      1  0.4088770000000  0.4934890000000  0.5286470000000 1.0
C      1  0.5320400000000  0.5606380000000  0.4505290000000 1.0
C      1  0.5324990000000  0.5110460000000  0.5752960000000 1.0
C      1  0.5320340000000  0.4268190000000  0.4731000000000 1.0
C      1  0.5176470000000  0.4683330000000  0.4413240000000 1.0
C      1  0.5176380000000  0.5663910000000  0.5022000000000 1.0
C      1  0.5199110000000  0.4631040000000  0.5517210000000 1.0
C      1  0.5067780000000  0.4194050000000  0.4311660000000 1.0
C      1  0.5064860000000  0.6002720000000  0.4657740000000 1.0
C      1  0.5067960000000  0.4768510000000  0.5975580000000 1.0
C      1  0.4933690000000  0.4801350000000  0.4794700000000 1.0
C      1  0.4936120000000  0.5274360000000  0.4925190000000 1.0
C      1  0.4933990000000  0.4927390000000  0.5270820000000 1.0
C      1  0.4608710000000  0.5087990000000  0.4142630000000 1.0
C      1  0.4609050000000  0.5694580000000  0.5505380000000 1.0
C      1  0.4598220000000  0.4216120000000  0.5347930000000 1.0
C      1  0.4747650000000  0.4592810000000  0.4686630000000 1.0
C      1  0.4750570000000  0.5474100000000  0.4800930000000 1.0
C      1  0.4750750000000  0.4932860000000  0.5503910000000 1.0
C      1  0.5634680000000  0.5109460000000  0.4194540000000 1.0
C      1  0.5632500000000  0.5639870000000  0.5503440000000 1.0
C      1  0.5607200000000  0.4297630000000  0.5314240000000 1.0
C      1  0.5220930000000  0.4458610000000  0.4974120000000 1.0
C      1  0.5225620000000  0.5289840000000  0.4536080000000 1.0
C      1  0.5230500000000  0.5250660000000  0.5475060000000 1.0
C      1  0.5600670000000  0.4233930000000  0.4831900000000 1.0
C      1  0.5604460000000  0.5545320000000  0.4424050000000 1.0
C      1  0.5605180000000  0.5222480000000  0.5757890000000 1.0
C      1  0.5271510000000  0.5553800000000  0.5803770000000 1.0
C      1  0.5267640000000  0.4039630000000  0.5113300000000 1.0
C      1  0.5273510000000  0.5409740000000  0.4107240000000 1.0
C      1  0.5796180000000  0.5000070000000  0.4385120000000 1.0
C      1  0.5793760000000  0.5529500000000  0.5312960000000 1.0
C      1  0.5792570000000  0.4487960000000  0.5299630000000 1.0
C      1  0.5225220000000  0.4841050000000  0.4729600000000 1.0
C      1  0.5226640000000  0.5306090000000  0.4988770000000 1.0
C      1  0.5219840000000  0.4843480000000  0.5256480000000 1.0
C      1  0.4294150000000  0.4873820000000  0.5518100000000 1.0
C      1  0.4291670000000  0.4615450000000  0.4628900000000 1.0
C      1  0.4293390000000  0.5513870000000  0.4849970000000 1.0
C      1  0.4427780000000  0.4480000000000  0.5276980000000 1.0
C      1  0.4433590000000  0.5016900000000  0.4405880000000 1.0
C      1  0.4434120000000  0.5505260000000  0.5310530000000 1.0
C      1  0.4148220000000  0.5413880000000  0.5382790000000 1.0
C      1  0.4142340000000  0.4464990000000  0.5164090000000 1.0
C      1  0.4146650000000  0.5125030000000  0.4448640000000 1.0
C      1  0.5852990000000  0.4697080000000  0.5447970000000 1.0
C      1  0.5846170000000  0.4770770000000  0.4507260000000 1.0
C      1  0.5845050000000  0.5544360000000  0.5053960000000 1.0
C      1  0.5160620000000  0.4157100000000  0.5359880000000 1.0
C      1  0.5170520000000  0.5134600000000  0.4069440000000 1.0
C      1  0.5167760000000  0.5728580000000  0.5586840000000 1.0
C      1  0.4052070000000  0.4728870000000  0.5087050000000 1.0
C      1  0.4054090000000  0.5062420000000  0.4716100000000 1.0
C      1  0.4054790000000  0.5216160000000  0.5192310000000 1.0
C      1  0.4607880000000  0.4810450000000  0.5890370000000 1.0
C      1  0.4605190000000  0.4316490000000  0.4399470000000 1.0
C      1  0.4605880000000  0.5861820000000  0.4710220000000 1.0
C      1  0.5157350000000  0.5627110000000  0.4259100000000 1.0
C      1  0.5162440000000  0.5306850000000  0.5910040000000 1.0
C      1  0.5154910000000  0.4053410000000  0.4845230000000 1.0
C      1  0.5768420000000  0.4771980000000  0.5708980000000 1.0
C      1  0.5744850000000  0.4504920000000  0.4457190000000 1.0
C      1  0.5744680000000  0.5724420000000  0.4851930000000 1.0
C      1  0.4764860000000  0.5201320000000  0.5662120000000 1.0
C      1  0.4756110000000  0.4324930000000  0.4849910000000 1.0
C      1  0.4760340000000  0.5470360000000  0.4487350000000 1.0
C      1  0.5621850000000  0.5053680000000  0.5169220000000 1.0
C      1  0.5621150000000  0.4822060000000  0.4969140000000 1.0
C      1  0.5622960000000  0.5123470000000  0.4863680000000 1.0
C      1  0.4840420000000  0.5913540000000  0.4539830000000 1.0
C      1  0.4851560000000  0.4921070000000  0.6009430000000 1.0
C      1  0.4840670000000  0.4142310000000  0.4445970000000 1.0
C      1  0.4550030000000  0.5234700000000  0.5177610000000 1.0
C      1  0.4546960000000  0.4730310000000  0.5109840000000 1.0
C      1  0.4548580000000  0.5039680000000  0.4706370000000 1.0
C      1  0.4389870000000  0.4326850000000  0.4586550000000 1.0
C      1  0.4392860000000  0.5694300000000  0.4622010000000 1.0
C      1  0.4397330000000  0.4975250000000  0.5791960000000 1.0
C      1  0.5514330000000  0.5879370000000  0.4908320000000 1.0
C      1  0.5542600000000  0.4636510000000  0.5826430000000 1.0
C      1  0.5516240000000  0.4474420000000  0.4291440000000 1.0
C      1  0.5281560000000  0.4795480000000  0.5786770000000 1.0
C      1  0.5267380000000  0.4365850000000  0.4436460000000 1.0
C      1  0.5265610000000  0.5806790000000  0.4740140000000 1.0
C      1  0.5803590000000  0.5057650000000  0.5653050000000 1.0
C      1  0.5791400000000  0.4410990000000  0.4729780000000 1.0
C      1  0.5793360000000  0.5539660000000  0.4630730000000 1.0
C      1  0.5859390000000  0.5000640000000  0.5351930000000 1.0
C      1  0.5855830000000  0.4702720000000  0.4819400000000 1.0
C      1  0.5856300000000  0.5312060000000  0.4834420000000 1.0
C      1  0.4904110000000  0.5033380000000  0.4203640000000 1.0
C      1  0.4903380000000  0.5667890000000  0.5428630000000 1.0
C      1  0.4889930000000  0.4296630000000  0.5362150000000 1.0
C      1  0.5399730000000  0.4964700000000  0.4096370000000 1.0
C      1  0.5396810000000  0.5794760000000  0.5428020000000 1.0
C      1  0.5361620000000  0.4338770000000  0.5489550000000 1.0
C      1  0.5553340000000  0.5383160000000  0.4196010000000 1.0
C      1  0.5550740000000  0.5499100000000  0.5738420000000 1.0
C      1  0.5540810000000  0.4135600000000  0.5093180000000 1.0
C      1  0.5468490000000  0.4379770000000  0.5758560000000 1.0
C      1  0.5379780000000  0.4709460000000  0.4201930000000 1.0
C      1  0.5377550000000  0.5832560000000  0.5154690000000 1.0
C      1  0.4495530000000  0.4746990000000  0.4809430000000 1.0
C      1  0.4497390000000  0.5292040000000  0.4872060000000 1.0
C      1  0.4496090000000  0.4965820000000  0.5312700000000 1.0
C      1  0.4329270000000  0.5443240000000  0.4176820000000 1.0
C      1  0.4333810000000  0.5483590000000  0.5795410000000 1.0
C      1  0.4321730000000  0.4068240000000  0.5025370000000 1.0
C      1  0.5343520000000  0.5139440000000  0.4749380000000 1.0
C      1  0.5341940000000  0.5138500000000  0.5238430000000 1.0
C      1  0.5339070000000  0.4721060000000  0.4989490000000 1.0
END
