TITL C-98483-9326-6 -0.0941312823043633 125000 -416.745273471107 0 0 61 (C1) n - 1
REM
REM in /rds/project/t2_vol4/rds-t2-cs072/BORA/CARBON/from-Arr/AIRSS/Generating-Clusters/GAP-ML-2020/Higher-Symm/SD-CG/HFTN-CG
REM
REM
REM
REM
REM
REM ./C.cell (b20cbc046b6831c77cfcea5457e17084)
REM AIRSS Version 0.9.1 bugfix July 2018 build 013d7b7c2542+ Fri, 06 Jul 2018 19:26:36 +0100
REM compiler GCC version 9.3.0
REM options -cpp -mtune=generic -march=x86-64 -g -O0
REM seed -1831782951 -1271555687 766495005 -1732750801 -1736576200 223156173 -1999980137 633377313 -1901117514 -1218699131 -445114142 -930826095 44160450 -399344290 1118132986 -1682471045 -1224037821 287171323 -436151812 -44309902 -1405968258 324595385 -1024103365 -1084507636 -1884556342 27148945 -203670577 578700720 320049586 1396611500 -824516943 -1980917261 -1126750377
REM
CELL 1.54180   50.00000   50.00000   50.00000   90.00000   90.00000   90.00000
LATT -1
SFAC C  
C      1  0.5300060000000  0.4571070000000  0.4724170000000 1.0
C      1  0.5023380000000  0.4629950000000  0.4634430000000 1.0
C      1  0.4762950000000  0.4571320000000  0.4767940000000 1.0
C      1  0.4712630000000  0.4489440000000  0.5061870000000 1.0
C      1  0.4896970000000  0.4626290000000  0.5258800000000 1.0
C      1  0.5181610000000  0.4594750000000  0.5221870000000 1.0
C      1  0.5363200000000  0.4564500000000  0.5001000000000 1.0
C      1  0.5111920000000  0.5137320000000  0.4423440000000 1.0
C      1  0.4627810000000  0.5197460000000  0.4562460000000 1.0
C      1  0.4473800000000  0.5254280000000  0.5046580000000 1.0
C      1  0.4640430000000  0.5236440000000  0.5509450000000 1.0
C      1  0.5137790000000  0.5243440000000  0.5572990000000 1.0
C      1  0.5478240000000  0.5320470000000  0.5192060000000 1.0
C      1  0.5516500000000  0.5277480000000  0.4697600000000 1.0
C      1  0.4528000000000  0.5401050000000  0.5297510000000 1.0
C      1  0.4874280000000  0.5378810000000  0.5597680000000 1.0
C      1  0.5326100000000  0.5450190000000  0.5423890000000 1.0
C      1  0.5508730000000  0.5456020000000  0.4926480000000 1.0
C      1  0.5315100000000  0.5340670000000  0.4514160000000 1.0
C      1  0.4859920000000  0.5312170000000  0.4424000000000 1.0
C      1  0.4518670000000  0.5384820000000  0.4767360000000 1.0
C      1  0.4838550000000  0.4699640000000  0.5551230000000 1.0
C      1  0.5281770000000  0.4786690000000  0.5408620000000 1.0
C      1  0.5608240000000  0.4683530000000  0.5097530000000 1.0
C      1  0.5476860000000  0.4759550000000  0.4580070000000 1.0
C      1  0.4980120000000  0.4685390000000  0.4342610000000 1.0
C      1  0.4576100000000  0.4787100000000  0.4716790000000 1.0
C      1  0.4443450000000  0.4625220000000  0.5129360000000 1.0
C      1  0.5188370000000  0.5572870000000  0.4616700000000 1.0
C      1  0.4912520000000  0.5548750000000  0.4567420000000 1.0
C      1  0.4714700000000  0.5591540000000  0.4770890000000 1.0
C      1  0.4696470000000  0.5628530000000  0.5267130000000 1.0
C      1  0.4898520000000  0.5625330000000  0.5462590000000 1.0
C      1  0.5160090000000  0.5657450000000  0.5345190000000 1.0
C      1  0.5300450000000  0.5642070000000  0.4872760000000 1.0
C      1  0.5151660000000  0.5030110000000  0.5777280000000 1.0
C      1  0.5647290000000  0.5085750000000  0.5221270000000 1.0
C      1  0.5533030000000  0.4993090000000  0.4758410000000 1.0
C      1  0.5182890000000  0.4895880000000  0.4267970000000 1.0
C      1  0.4556520000000  0.4925160000000  0.4453860000000 1.0
C      1  0.4318440000000  0.5017230000000  0.5094120000000 1.0
C      1  0.4637310000000  0.4934020000000  0.5476150000000 1.0
C      1  0.5090760000000  0.4794220000000  0.5650150000000 1.0
C      1  0.5558740000000  0.4832650000000  0.5339420000000 1.0
C      1  0.5701480000000  0.4930580000000  0.4981720000000 1.0
C      1  0.5436120000000  0.4799030000000  0.4317250000000 1.0
C      1  0.4751930000000  0.4821110000000  0.4310250000000 1.0
C      1  0.4361180000000  0.4790170000000  0.4913520000000 1.0
C      1  0.4412390000000  0.4843960000000  0.5314470000000 1.0
C      1  0.4778740000000  0.5022970000000  0.4770620000000 1.0
C      1  0.4757470000000  0.5121780000000  0.5038030000000 1.0
C      1  0.4850470000000  0.4936780000000  0.5253260000000 1.0
C      1  0.5113050000000  0.5042250000000  0.5335680000000 1.0
C      1  0.5207650000000  0.5184540000000  0.5097250000000 1.0
C      1  0.5249740000000  0.5013950000000  0.4880390000000 1.0
C      1  0.5043820000000  0.4960420000000  0.4684370000000 1.0
C      1  0.4959130000000  0.5319800000000  0.5071000000000 1.0
C      1  0.5123230000000  0.5730520000000  0.5069610000000 1.0
C      1  0.4866070000000  0.3999690000000  0.5163070000000 1.0
C      1  0.4840570000000  0.5650040000000  0.5020870000000 1.0
C      1  0.4745370000000  0.4211730000000  0.5118160000000 1.0
END
