TITL C-98505-9853-2 76.8463562190504 125000 -438.131414829161 0 0 62 (C1) n - 1
REM
REM in /rds/project/t2_vol4/rds-t2-cs072/BORA/CARBON/from-Arr/AIRSS/Generating-Clusters/GAP-ML-2020/Higher-Symm/SD-CG/HFTN-CG
REM
REM
REM
REM
REM
REM ./C.cell (b20cbc046b6831c77cfcea5457e17084)
REM AIRSS Version 0.9.1 bugfix July 2018 build 013d7b7c2542+ Fri, 06 Jul 2018 19:26:36 +0100
REM compiler GCC version 9.3.0
REM options -cpp -mtune=generic -march=x86-64 -g -O0
REM seed 1016879470 1620028064 499254949 -2122482334 668305817 -1495553423 -1290805062 1901990069 -1656414038 -380388596 -45150282 -422386 -731506967 -1037508901 -514637203 1267022692 219995237 -1438915115 -800792533 1190632595 -897897665 -110130837 119025864 -960900019 -2137322176 1741767504 537319214 1450931541 -1811916257 -86454032 780463201 -1984798441 1854963391
REM
CELL 1.54180   50.00000   50.00000   50.00000   90.00000   90.00000   90.00000
LATT -1
SFAC C  
C      1  0.4449390000000  0.5677630000000  0.5321950000000 1.0
C      1  0.4674430000000  0.5705650000000  0.4906670000000 1.0
C      1  0.4901740000000  0.5694050000000  0.4734860000000 1.0
C      1  0.5176770000000  0.5669190000000  0.4807340000000 1.0
C      1  0.5312770000000  0.5676070000000  0.5059500000000 1.0
C      1  0.5202480000000  0.5680130000000  0.5323950000000 1.0
C      1  0.4920480000000  0.5661580000000  0.5377920000000 1.0
C      1  0.5290670000000  0.4331100000000  0.5363460000000 1.0
C      1  0.5008910000000  0.4333230000000  0.5404130000000 1.0
C      1  0.4656170000000  0.4351440000000  0.5070540000000 1.0
C      1  0.4628460000000  0.4369260000000  0.4784670000000 1.0
C      1  0.4839900000000  0.4309730000000  0.4608090000000 1.0
C      1  0.5097300000000  0.4226830000000  0.4702220000000 1.0
C      1  0.5363010000000  0.4249420000000  0.5099410000000 1.0
C      1  0.4476000000000  0.5527450000000  0.4800590000000 1.0
C      1  0.4854460000000  0.5531830000000  0.4506690000000 1.0
C      1  0.5290470000000  0.5459590000000  0.4649240000000 1.0
C      1  0.5528650000000  0.5488770000000  0.5047760000000 1.0
C      1  0.5349380000000  0.5495220000000  0.5487060000000 1.0
C      1  0.4887760000000  0.5431460000000  0.5546340000000 1.0
C      1  0.4461090000000  0.5410850000000  0.5282400000000 1.0
C      1  0.5579990000000  0.5402620000000  0.5321370000000 1.0
C      1  0.5154340000000  0.5313080000000  0.5604830000000 1.0
C      1  0.4658030000000  0.5266800000000  0.5453510000000 1.0
C      1  0.4400350000000  0.5320450000000  0.5003090000000 1.0
C      1  0.4569660000000  0.5461350000000  0.4518460000000 1.0
C      1  0.5085510000000  0.5353280000000  0.4472820000000 1.0
C      1  0.5491120000000  0.5323340000000  0.4811400000000 1.0
C      1  0.4469720000000  0.5057120000000  0.4913910000000 1.0
C      1  0.4545070000000  0.5228930000000  0.4382910000000 1.0
C      1  0.5238620000000  0.4866380000000  0.4440520000000 1.0
C      1  0.5460120000000  0.4840880000000  0.4642040000000 1.0
C      1  0.5668660000000  0.5148780000000  0.5327730000000 1.0
C      1  0.5222530000000  0.5034230000000  0.5565840000000 1.0
C      1  0.4755100000000  0.5018960000000  0.5372260000000 1.0
C      1  0.4741340000000  0.5013270000000  0.4466090000000 1.0
C      1  0.5049690000000  0.5077180000000  0.4415670000000 1.0
C      1  0.5526430000000  0.5040210000000  0.4835150000000 1.0
C      1  0.5528180000000  0.4957360000000  0.5131420000000 1.0
C      1  0.5249910000000  0.5051910000000  0.5278890000000 1.0
C      1  0.4996330000000  0.5125950000000  0.5169090000000 1.0
C      1  0.4713720000000  0.5115250000000  0.4767120000000 1.0
C      1  0.4939840000000  0.4597780000000  0.5499890000000 1.0
C      1  0.4562800000000  0.4609350000000  0.5174790000000 1.0
C      1  0.4521040000000  0.4626950000000  0.4710830000000 1.0
C      1  0.4867490000000  0.4532970000000  0.4421570000000 1.0
C      1  0.5285630000000  0.4409000000000  0.4572430000000 1.0
C      1  0.5529290000000  0.4464880000000  0.4982600000000 1.0
C      1  0.5392700000000  0.4589830000000  0.5416450000000 1.0
C      1  0.4455870000000  0.4774490000000  0.4949000000000 1.0
C      1  0.4671870000000  0.4731560000000  0.4483720000000 1.0
C      1  0.5142570000000  0.4596860000000  0.4403730000000 1.0
C      1  0.5484400000000  0.4556410000000  0.4714660000000 1.0
C      1  0.5540940000000  0.4671370000000  0.5185860000000 1.0
C      1  0.5190590000000  0.4754770000000  0.5539170000000 1.0
C      1  0.4716450000000  0.4737680000000  0.5384080000000 1.0
C      1  0.5068710000000  0.4636160000000  0.5019680000000 1.0
C      1  0.4692340000000  0.5722770000000  0.5201300000000 1.0
C      1  0.5119990000000  0.4152490000000  0.4976770000000 1.0
C      1  0.4888780000000  0.4213310000000  0.5168960000000 1.0
C      1  0.5005460000000  0.4792300000000  0.4847860000000 1.0
C      1  0.4958500000000  0.5067290000000  0.4903870000000 1.0
END
