TITL C-98505-9853-8 0.0564592084646997 125000 -876.185515091162 0 0 126 (Cs) n - 1
REM
REM in /rds/project/t2_vol4/rds-t2-cs072/BORA/CARBON/from-Arr/AIRSS/Generating-Clusters/GAP-ML-2020/Higher-Symm/SD-CG/HFTN-CG
REM
REM
REM
REM
REM
REM ./C.cell (b20cbc046b6831c77cfcea5457e17084)
REM AIRSS Version 0.9.1 bugfix July 2018 build 013d7b7c2542+ Fri, 06 Jul 2018 19:26:36 +0100
REM compiler GCC version 9.3.0
REM options -cpp -mtune=generic -march=x86-64 -g -O0
REM seed 1135318391 -936551677 1681971369 -1073905813 -1013937274 1638517516 686898597 -656071068 -469143711 1562123141 1282179915 823340214 -388301153 836366895 636684906 532040251 520087396 -1353183175 -49468944 1364919267 1544932090 1615155463 547531188 2009819585 -1204740177 1187162973 -1461840188 -2107034546 1343371115 -221727934 1470032027 -1677501386 -1660703652
REM
CELL 1.54180   50.00000   50.00000   50.00000   90.00000   90.00000   90.00000
LATT -1
SFAC C  
C      1  0.5308720000000  0.6002920000000  0.4711830000000 1.0
C      1  0.5304580000000  0.4737560000000  0.6015120000000 1.0
C      1  0.5307660000000  0.4263710000000  0.4277890000000 1.0
C      1  0.4694270000000  0.6003670000000  0.4711240000000 1.0
C      1  0.4692830000000  0.4738300000000  0.6014530000000 1.0
C      1  0.4691950000000  0.4264450000000  0.4277290000000 1.0
C      1  0.5308070000000  0.5997830000000  0.5281320000000 1.0
C      1  0.5302650000000  0.4743520000000  0.3974010000000 1.0
C      1  0.5300100000000  0.4241880000000  0.5733560000000 1.0
C      1  0.4693810000000  0.5998570000000  0.5280730000000 1.0
C      1  0.4698700000000  0.4744250000000  0.3973420000000 1.0
C      1  0.4696650000000  0.4242610000000  0.5732980000000 1.0
C      1  0.5140110000000  0.5029520000000  0.5566060000000 1.0
C      1  0.5139040000000  0.4543710000000  0.4774060000000 1.0
C      1  0.5141870000000  0.5468990000000  0.4692410000000 1.0
C      1  0.4858880000000  0.5029860000000  0.5565790000000 1.0
C      1  0.4860290000000  0.4544050000000  0.4773790000000 1.0
C      1  0.4859860000000  0.5469330000000  0.4692130000000 1.0
C      1  0.5136140000000  0.5031970000000  0.4460150000000 1.0
C      1  0.5136420000000  0.4525800000000  0.5245100000000 1.0
C      1  0.5136330000000  0.5452780000000  0.5303580000000 1.0
C      1  0.4864980000000  0.5032290000000  0.4459890000000 1.0
C      1  0.4861960000000  0.4526130000000  0.5244840000000 1.0
C      1  0.4864180000000  0.5453110000000  0.5303310000000 1.0
C      1  0.4850050000000  0.4521900000000  0.3886740000000 1.0
C      1  0.4850900000000  0.6183550000000  0.5138900000000 1.0
C      1  0.4848260000000  0.4273540000000  0.5968330000000 1.0
C      1  0.5150940000000  0.4521540000000  0.3887030000000 1.0
C      1  0.5151700000000  0.6183190000000  0.5139190000000 1.0
C      1  0.5148120000000  0.4273180000000  0.5968610000000 1.0
C      1  0.4847310000000  0.4520980000000  0.6107290000000 1.0
C      1  0.4850810000000  0.6186820000000  0.4855970000000 1.0
C      1  0.4848950000000  0.4286060000000  0.4044760000000 1.0
C      1  0.5149390000000  0.4520610000000  0.6107580000000 1.0
C      1  0.5152350000000  0.6186450000000  0.4856270000000 1.0
C      1  0.5151160000000  0.4285690000000  0.4045050000000 1.0
C      1  0.4752280000000  0.4768780000000  0.5155460000000 1.0
C      1  0.4705870000000  0.5014940000000  0.4708280000000 1.0
C      1  0.4737450000000  0.5246880000000  0.5146000000000 1.0
C      1  0.5246860000000  0.4768180000000  0.5155930000000 1.0
C      1  0.5294730000000  0.5014230000000  0.4708840000000 1.0
C      1  0.5262870000000  0.5246250000000  0.5146500000000 1.0
C      1  0.4685270000000  0.4763820000000  0.4871370000000 1.0
C      1  0.4844080000000  0.5002960000000  0.5270650000000 1.0
C      1  0.4837680000000  0.5232710000000  0.4868520000000 1.0
C      1  0.5314410000000  0.4763060000000  0.4871980000000 1.0
C      1  0.5155400000000  0.5002580000000  0.5270950000000 1.0
C      1  0.5163140000000  0.5232320000000  0.4868830000000 1.0
C      1  0.5476820000000  0.4456690000000  0.5623570000000 1.0
C      1  0.5477330000000  0.4742790000000  0.4219630000000 1.0
C      1  0.5482720000000  0.5787610000000  0.5146160000000 1.0
C      1  0.4520660000000  0.4457850000000  0.5622650000000 1.0
C      1  0.4523550000000  0.4743950000000  0.4218710000000 1.0
C      1  0.4518910000000  0.5788780000000  0.5145240000000 1.0
C      1  0.5485500000000  0.4490080000000  0.4386130000000 1.0
C      1  0.5477440000000  0.4722860000000  0.5765910000000 1.0
C      1  0.5480940000000  0.5792460000000  0.4843700000000 1.0
C      1  0.4514450000000  0.4491260000000  0.4385190000000 1.0
C      1  0.4520420000000  0.4724020000000  0.5764990000000 1.0
C      1  0.4521280000000  0.5793630000000  0.4842770000000 1.0
C      1  0.5153020000000  0.5947860000000  0.5514100000000 1.0
C      1  0.5148940000000  0.4069390000000  0.5564310000000 1.0
C      1  0.5152180000000  0.4972630000000  0.3898440000000 1.0
C      1  0.4848280000000  0.5948230000000  0.5513810000000 1.0
C      1  0.4847710000000  0.4069750000000  0.5564020000000 1.0
C      1  0.4849870000000  0.4973000000000  0.3898150000000 1.0
C      1  0.5153500000000  0.5955830000000  0.4479640000000 1.0
C      1  0.5150820000000  0.4091830000000  0.4439220000000 1.0
C      1  0.5150110000000  0.4966760000000  0.6079310000000 1.0
C      1  0.4849820000000  0.5956200000000  0.4479350000000 1.0
C      1  0.4848060000000  0.4092200000000  0.4438920000000 1.0
C      1  0.4847730000000  0.4967130000000  0.6079020000000 1.0
C      1  0.4463810000000  0.5566630000000  0.4659160000000 1.0
C      1  0.4456180000000  0.4995160000000  0.5649510000000 1.0
C      1  0.4442870000000  0.4453990000000  0.4667770000000 1.0
C      1  0.5538220000000  0.5565330000000  0.4660190000000 1.0
C      1  0.5542550000000  0.4993840000000  0.5650550000000 1.0
C      1  0.5556440000000  0.4452640000000  0.4668840000000 1.0
C      1  0.4455140000000  0.5561150000000  0.5319000000000 1.0
C      1  0.4467260000000  0.5017450000000  0.4303810000000 1.0
C      1  0.4450580000000  0.4404380000000  0.5335880000000 1.0
C      1  0.5545600000000  0.5559820000000  0.5320050000000 1.0
C      1  0.5534120000000  0.5016160000000  0.4304840000000 1.0
C      1  0.5547330000000  0.4403050000000  0.5336930000000 1.0
C      1  0.5316200000000  0.4286470000000  0.5156940000000 1.0
C      1  0.5305020000000  0.5229020000000  0.4283710000000 1.0
C      1  0.5323050000000  0.5491240000000  0.5541580000000 1.0
C      1  0.4681770000000  0.4287230000000  0.5156330000000 1.0
C      1  0.4696910000000  0.5229760000000  0.4283120000000 1.0
C      1  0.4677100000000  0.5492020000000  0.5540960000000 1.0
C      1  0.5315210000000  0.4296900000000  0.4849730000000 1.0
C      1  0.5327420000000  0.5224580000000  0.5696090000000 1.0
C      1  0.5314110000000  0.5495060000000  0.4442270000000 1.0
C      1  0.4683380000000  0.4297660000000  0.4849130000000 1.0
C      1  0.4671790000000  0.5225380000000  0.5695460000000 1.0
C      1  0.4688170000000  0.5495810000000  0.4441670000000 1.0
C      1  0.4303630000000  0.4574400000000  0.5173000000000 1.0
C      1  0.4419640000000  0.5087280000000  0.4570720000000 1.0
C      1  0.4409950000000  0.5277480000000  0.5214150000000 1.0
C      1  0.5695000000000  0.4572710000000  0.5174340000000 1.0
C      1  0.5581390000000  0.5085880000000  0.4571830000000 1.0
C      1  0.5590310000000  0.5276050000000  0.5215290000000 1.0
C      1  0.4374430000000  0.4654630000000  0.4881360000000 1.0
C      1  0.4320550000000  0.5047290000000  0.5405060000000 1.0
C      1  0.4327060000000  0.5320800000000  0.4707940000000 1.0
C      1  0.5624960000000  0.4653120000000  0.4882560000000 1.0
C      1  0.5678780000000  0.5045640000000  0.5406360000000 1.0
C      1  0.5674280000000  0.5319170000000  0.4709240000000 1.0
C      1  0.4846960000000  0.4077690000000  0.5282910000000 1.0
C      1  0.4849270000000  0.5220710000000  0.4032410000000 1.0
C      1  0.4845240000000  0.5706760000000  0.5654730000000 1.0
C      1  0.5150250000000  0.4077330000000  0.5283200000000 1.0
C      1  0.5153130000000  0.5220340000000  0.4032700000000 1.0
C      1  0.5155210000000  0.5706380000000  0.5655030000000 1.0
C      1  0.4845130000000  0.4089880000000  0.4719910000000 1.0
C      1  0.4845160000000  0.5208460000000  0.5937790000000 1.0
C      1  0.4850310000000  0.5718640000000  0.4331950000000 1.0
C      1  0.5153200000000  0.4089510000000  0.4720200000000 1.0
C      1  0.5153540000000  0.5208090000000  0.5938080000000 1.0
C      1  0.5152720000000  0.5718270000000  0.4332250000000 1.0
C      1  0.4266040000000  0.5197700000000  0.4959810000000 1.0
C      1  0.5734510000000  0.5195920000000  0.4961220000000 1.0
C      1  0.4213380000000  0.4842360000000  0.5237960000000 1.0
C      1  0.5781310000000  0.4917300000000  0.4964720000000 1.0
C      1  0.5785770000000  0.4840460000000  0.5239470000000 1.0
C      1  0.4218560000000  0.4919190000000  0.4963220000000 1.0
END
