TITL C-98496-9324-3 -0.000760742157569338 125000 -22.9478494916147 0 0 4 (D(inf)h) n - 1
REM
REM in /rds/project/t2_vol4/rds-t2-cs072/BORA/CARBON/from-Arr/AIRSS/Generating-Clusters/GAP-ML-2020/Higher-Symm/SD-CG/HFTN-CG
REM
REM
REM
REM
REM
REM ./C.cell (b20cbc046b6831c77cfcea5457e17084)
REM AIRSS Version 0.9.1 bugfix July 2018 build 013d7b7c2542+ Fri, 06 Jul 2018 19:26:36 +0100
REM compiler GCC version 9.3.0
REM options -cpp -mtune=generic -march=x86-64 -g -O0
REM seed 2124542700 1969399271 1975089988 1950731230 1553966215 -1517094035 357633139 -1239350484 1153860201 1790529774 775800147 418804744 5732542 879241795 1586887321 1235887353 -2068455323 -2010728536 -1518621449 872391606 1158399342 -1605996217 581543382 -1056748902 1438562170 -879080178 1894102795 -1710438175 2110963608 -123705523 893429614 203099663 -1776288975
REM
CELL 1.54180   50.00000   50.00000   50.00000   90.00000   90.00000   90.00000
LATT -1
SFAC C  
C      1  0.5013790000000  0.4994600000000  0.4611370000000 1.0
C      1  0.5013790000000  0.4994600000000  0.4865340000000 1.0
C      1  0.5013790000000  0.4994600000000  0.5388630000000 1.0
C      1  0.5013790000000  0.4994600000000  0.5134660000000 1.0
END
