TITL C-98491-9379-3 0.05714896753809 125000 -253.310403371705 0 0 36 (Cs) n - 1
REM
REM in /rds/project/t2_vol4/rds-t2-cs072/BORA/CARBON/from-Arr/AIRSS/Generating-Clusters/GAP-ML-2020/Higher-Symm/SD-CG/HFTN-CG
REM
REM
REM
REM
REM
REM ./C.cell (b20cbc046b6831c77cfcea5457e17084)
REM AIRSS Version 0.9.1 bugfix July 2018 build 013d7b7c2542+ Fri, 06 Jul 2018 19:26:36 +0100
REM compiler GCC version 9.3.0
REM options -cpp -mtune=generic -march=x86-64 -g -O0
REM seed 1511856760 1045330945 297626448 -1813478400 47276787 593126319 -404851330 58962027 -2117483919 -163104084 -254735435 810299688 -861103610 1530908664 -1164618889 -209072585 936739718 757414214 278265277 -555893449 1293449342 120422327 1046059696 1759952076 1302712092 -955369639 362284280 -1125917938 1774489687 860434096 2097745223 1035920048 -1652875089
REM
CELL 1.54180   50.00000   50.00000   50.00000   90.00000   90.00000   90.00000
LATT -1
SFAC C  
C      1  0.5570310000000  0.4900400000000  0.5084370000000 1.0
C      1  0.5294160000000  0.4712370000000  0.5416180000000 1.0
C      1  0.4898810000000  0.4916580000000  0.5570170000000 1.0
C      1  0.4649510000000  0.4938680000000  0.5444030000000 1.0
C      1  0.4484630000000  0.4764850000000  0.5040540000000 1.0
C      1  0.4537750000000  0.4941110000000  0.4603720000000 1.0
C      1  0.4766280000000  0.4935610000000  0.4438390000000 1.0
C      1  0.5192030000000  0.4747800000000  0.4528760000000 1.0
C      1  0.5529120000000  0.4917480000000  0.4807660000000 1.0
C      1  0.4588500000000  0.5163930000000  0.5276590000000 1.0
C      1  0.4453920000000  0.5056080000000  0.5047810000000 1.0
C      1  0.4494370000000  0.5162950000000  0.4785730000000 1.0
C      1  0.4959660000000  0.5151740000000  0.4449120000000 1.0
C      1  0.5217740000000  0.5037670000000  0.4495220000000 1.0
C      1  0.5396320000000  0.5144460000000  0.4692160000000 1.0
C      1  0.5497010000000  0.5111800000000  0.5258920000000 1.0
C      1  0.5343170000000  0.4995910000000  0.5474490000000 1.0
C      1  0.5094120000000  0.5121510000000  0.5550390000000 1.0
C      1  0.4539080000000  0.4690870000000  0.4763930000000 1.0
C      1  0.4728210000000  0.4521240000000  0.4640260000000 1.0
C      1  0.4910060000000  0.4681930000000  0.4495540000000 1.0
C      1  0.5393180000000  0.4668660000000  0.4722370000000 1.0
C      1  0.5399880000000  0.4498000000000  0.4945340000000 1.0
C      1  0.5450140000000  0.4645620000000  0.5178990000000 1.0
C      1  0.5018130000000  0.4656040000000  0.5491540000000 1.0
C      1  0.4807320000000  0.4512280000000  0.5374030000000 1.0
C      1  0.4603120000000  0.4687700000000  0.5293950000000 1.0
C      1  0.4656110000000  0.5388920000000  0.4761150000000 1.0
C      1  0.4892950000000  0.5383220000000  0.4589810000000 1.0
C      1  0.5058790000000  0.5480450000000  0.4810790000000 1.0
C      1  0.5311160000000  0.5365660000000  0.4863000000000 1.0
C      1  0.5393260000000  0.5359140000000  0.5143140000000 1.0
C      1  0.5245310000000  0.5506660000000  0.5322200000000 1.0
C      1  0.5024420000000  0.5368030000000  0.5409980000000 1.0
C      1  0.4784300000000  0.5378360000000  0.5244160000000 1.0
C      1  0.4817190000000  0.5486280000000  0.4985580000000 1.0
END
