TITL C-98499-9075-6 426.436983796655 125000 -820.758935298605 0 0 118 (C1) n - 1
REM
REM in /rds/project/t2_vol4/rds-t2-cs072/BORA/CARBON/from-Arr/AIRSS/Generating-Clusters/GAP-ML-2020/Higher-Symm/SD-CG/HFTN-CG
REM
REM
REM
REM
REM
REM ./C.cell (b20cbc046b6831c77cfcea5457e17084)
REM AIRSS Version 0.9.1 bugfix July 2018 build 013d7b7c2542+ Fri, 06 Jul 2018 19:26:36 +0100
REM compiler GCC version 9.3.0
REM options -cpp -mtune=generic -march=x86-64 -g -O0
REM seed 1147993665 1762946541 751139382 776730467 1940481359 121024997 -1881567287 524581399 1634020748 1483244096 -223011721 -163515668 1833064479 -562450944 745840159 -1768342119 1039917908 -1417880702 461494647 -93037932 -1176539554 -894523119 -1368739805 740593426 -1095546910 838369704 -38487712 1651354493 -893378520 1747078893 1834525982 -551672834 -436662897
REM
CELL 1.54180   50.00000   50.00000   50.00000   90.00000   90.00000   90.00000
LATT -1
SFAC C  
C      1  0.4939760000000  0.5828570000000  0.5642000000000 1.0
C      1  0.4933810000000  0.5638820000000  0.4168400000000 1.0
C      1  0.4841040000000  0.4297510000000  0.4229950000000 1.0
C      1  0.4846430000000  0.4222790000000  0.5680830000000 1.0
C      1  0.5151060000000  0.5692810000000  0.5781190000000 1.0
C      1  0.5155960000000  0.5773310000000  0.4295910000000 1.0
C      1  0.5063990000000  0.4174760000000  0.4356690000000 1.0
C      1  0.5067510000000  0.4354030000000  0.5814020000000 1.0
C      1  0.5426000000000  0.4222940000000  0.4972850000000 1.0
C      1  0.5418280000000  0.4993420000000  0.5766270000000 1.0
C      1  0.5423360000000  0.5766630000000  0.5006680000000 1.0
C      1  0.5432810000000  0.5050350000000  0.4223350000000 1.0
C      1  0.4571750000000  0.4240620000000  0.4970570000000 1.0
C      1  0.4569350000000  0.4945990000000  0.5768840000000 1.0
C      1  0.4582050000000  0.5781510000000  0.5016900000000 1.0
C      1  0.4587550000000  0.4997140000000  0.4233730000000 1.0
C      1  0.4862120000000  0.4101540000000  0.5406250000000 1.0
C      1  0.4900160000000  0.5293620000000  0.5957180000000 1.0
C      1  0.4899900000000  0.5950630000000  0.4672100000000 1.0
C      1  0.4862990000000  0.4569170000000  0.4106340000000 1.0
C      1  0.5105920000000  0.4050350000000  0.5310130000000 1.0
C      1  0.5134020000000  0.5415480000000  0.5902400000000 1.0
C      1  0.5140560000000  0.5899170000000  0.4567340000000 1.0
C      1  0.5101390000000  0.4686480000000  0.4060550000000 1.0
C      1  0.5709440000000  0.5240550000000  0.5444730000000 1.0
C      1  0.5709750000000  0.5444250000000  0.4751800000000 1.0
C      1  0.5690550000000  0.4746350000000  0.4530670000000 1.0
C      1  0.5694780000000  0.4539990000000  0.5242840000000 1.0
C      1  0.4318480000000  0.5256650000000  0.5460810000000 1.0
C      1  0.4313570000000  0.5463390000000  0.4749800000000 1.0
C      1  0.4294800000000  0.4764490000000  0.4554890000000 1.0
C      1  0.4296290000000  0.4563390000000  0.5234950000000 1.0
C      1  0.4657950000000  0.5210010000000  0.5867990000000 1.0
C      1  0.4653860000000  0.5873340000000  0.4749680000000 1.0
C      1  0.4624470000000  0.4714110000000  0.4169000000000 1.0
C      1  0.4625740000000  0.4169970000000  0.5253310000000 1.0
C      1  0.5376720000000  0.5270640000000  0.5842790000000 1.0
C      1  0.5376730000000  0.5833310000000  0.4720580000000 1.0
C      1  0.5344580000000  0.4784360000000  0.4129910000000 1.0
C      1  0.5353340000000  0.4129140000000  0.5237690000000 1.0
C      1  0.5274600000000  0.5293500000000  0.5204830000000 1.0
C      1  0.5268920000000  0.5210080000000  0.4712390000000 1.0
C      1  0.5271930000000  0.4715650000000  0.4785200000000 1.0
C      1  0.5273960000000  0.4796270000000  0.5280830000000 1.0
C      1  0.4742650000000  0.5292750000000  0.5208990000000 1.0
C      1  0.4737660000000  0.5212160000000  0.4713190000000 1.0
C      1  0.4739190000000  0.4719380000000  0.4789850000000 1.0
C      1  0.4742490000000  0.4796980000000  0.5277880000000 1.0
C      1  0.4393670000000  0.4987370000000  0.5533600000000 1.0
C      1  0.4395190000000  0.5545970000000  0.5013420000000 1.0
C      1  0.4389100000000  0.5020120000000  0.4464400000000 1.0
C      1  0.4388150000000  0.4475820000000  0.4977150000000 1.0
C      1  0.5618200000000  0.4981570000000  0.5530520000000 1.0
C      1  0.5619000000000  0.5533700000000  0.5010620000000 1.0
C      1  0.5613520000000  0.5015050000000  0.4457060000000 1.0
C      1  0.5615280000000  0.4458700000000  0.4978820000000 1.0
C      1  0.4730640000000  0.5633270000000  0.5605360000000 1.0
C      1  0.4720570000000  0.5599560000000  0.4355270000000 1.0
C      1  0.4635550000000  0.4318700000000  0.4425400000000 1.0
C      1  0.4637150000000  0.4411610000000  0.5667030000000 1.0
C      1  0.5345850000000  0.5641530000000  0.5584210000000 1.0
C      1  0.5364640000000  0.5583600000000  0.4315670000000 1.0
C      1  0.5275590000000  0.4371020000000  0.4390680000000 1.0
C      1  0.5283350000000  0.4398990000000  0.5631190000000 1.0
C      1  0.4734060000000  0.4690580000000  0.5770910000000 1.0
C      1  0.4776090000000  0.5791750000000  0.5220170000000 1.0
C      1  0.4782930000000  0.5204410000000  0.4209380000000 1.0
C      1  0.4735770000000  0.4220040000000  0.4711070000000 1.0
C      1  0.5222140000000  0.4786970000000  0.5784410000000 1.0
C      1  0.5250020000000  0.5796700000000  0.5244540000000 1.0
C      1  0.5268860000000  0.5303250000000  0.4215380000000 1.0
C      1  0.5228960000000  0.4214080000000  0.4772180000000 1.0
C      1  0.5737700000000  0.4562760000000  0.4328620000000 1.0
C      1  0.5742450000000  0.4347030000000  0.5433770000000 1.0
C      1  0.5804810000000  0.5431520000000  0.5621570000000 1.0
C      1  0.5810410000000  0.5618990000000  0.4560160000000 1.0
C      1  0.4192100000000  0.4567010000000  0.4389070000000 1.0
C      1  0.4193870000000  0.4384740000000  0.5421690000000 1.0
C      1  0.4271930000000  0.5439200000000  0.5663640000000 1.0
C      1  0.4263810000000  0.5654180000000  0.4557200000000 1.0
C      1  0.4869710000000  0.5057820000000  0.5316440000000 1.0
C      1  0.4867600000000  0.5322050000000  0.4943590000000 1.0
C      1  0.4866910000000  0.4949020000000  0.4682060000000 1.0
C      1  0.4869530000000  0.4681500000000  0.5048460000000 1.0
C      1  0.5146450000000  0.5059950000000  0.5308980000000 1.0
C      1  0.5143720000000  0.5321840000000  0.4942830000000 1.0
C      1  0.5142900000000  0.4949340000000  0.4678930000000 1.0
C      1  0.5145630000000  0.4688000000000  0.5049590000000 1.0
C      1  0.4460860000000  0.4312560000000  0.5452020000000 1.0
C      1  0.4539980000000  0.5455620000000  0.5739180000000 1.0
C      1  0.4526390000000  0.5735990000000  0.4521630000000 1.0
C      1  0.4456130000000  0.4526220000000  0.4317430000000 1.0
C      1  0.5479800000000  0.4264180000000  0.5467220000000 1.0
C      1  0.5542160000000  0.5460190000000  0.5697770000000 1.0
C      1  0.5542870000000  0.5687320000000  0.4527720000000 1.0
C      1  0.5469130000000  0.4543650000000  0.4256470000000 1.0
C      1  0.5166060000000  0.4652490000000  0.5515900000000 1.0
C      1  0.5175370000000  0.5528410000000  0.5349550000000 1.0
C      1  0.5150500000000  0.5349880000000  0.4491560000000 1.0
C      1  0.5161530000000  0.4483210000000  0.4642310000000 1.0
C      1  0.4858230000000  0.4655260000000  0.5497320000000 1.0
C      1  0.4849760000000  0.5525850000000  0.5355680000000 1.0
C      1  0.4841910000000  0.5349580000000  0.4473890000000 1.0
C      1  0.4853420000000  0.4492930000000  0.4657660000000 1.0
C      1  0.4430000000000  0.5183290000000  0.4708810000000 1.0
C      1  0.4430900000000  0.4721900000000  0.4822690000000 1.0
C      1  0.4431320000000  0.4833220000000  0.5282660000000 1.0
C      1  0.4434580000000  0.5303990000000  0.5179140000000 1.0
C      1  0.5578700000000  0.5172550000000  0.4707810000000 1.0
C      1  0.5578800000000  0.4701210000000  0.4813360000000 1.0
C      1  0.5580920000000  0.4821310000000  0.5285540000000 1.0
C      1  0.5581370000000  0.5288650000000  0.5170880000000 1.0
C      1  0.5004160000000  0.4628340000000  0.5903930000000 1.0
C      1  0.5000060000000  0.5919340000000  0.5351900000000 1.0
C      1  0.4997380000000  0.5360780000000  0.4084440000000 1.0
C      1  0.5004220000000  0.4089020000000  0.4637610000000 1.0
C      1  0.4379720000000  0.5008050000000  0.5002470000000 1.0
C      1  0.5631880000000  0.4999900000000  0.4990190000000 1.0
END
