TITL C-98485-9155-5 -0.0528549112706712 125000 -288.973451056049 0 0 42 (Cs) n - 1
REM
REM in /rds/project/t2_vol4/rds-t2-cs072/BORA/CARBON/from-Arr/AIRSS/Generating-Clusters/GAP-ML-2020/Higher-Symm/SD-CG/HFTN-CG
REM
REM
REM
REM
REM
REM ./C.cell (b20cbc046b6831c77cfcea5457e17084)
REM AIRSS Version 0.9.1 bugfix July 2018 build 013d7b7c2542+ Fri, 06 Jul 2018 19:26:36 +0100
REM compiler GCC version 9.3.0
REM options -cpp -mtune=generic -march=x86-64 -g -O0
REM seed -1783508350 613986961 -131062323 -1294950674 48418005 1050551060 1953277217 747315451 -1294925345 1738586756 -901939274 1602785767 1893371763 1151407243 -1735834827 -1686401090 -668679829 1716371654 1241096572 -507877011 976320812 -1661668677 -249278766 38569123 1150230772 -1068766706 -1836816100 -2123020487 -11502100 -780071516 1151343398 -2103681684 -688766220
REM
CELL 1.54180   50.00000   50.00000   50.00000   90.00000   90.00000   90.00000
LATT -1
SFAC C  
C      1  0.4708770000000  0.5571030000000  0.4856750000000 1.0
C      1  0.4711970000000  0.5570200000000  0.5152720000000 1.0
C      1  0.4557740000000  0.5392000000000  0.4697980000000 1.0
C      1  0.4564390000000  0.5390260000000  0.5313700000000 1.0
C      1  0.5419090000000  0.5346710000000  0.5273440000000 1.0
C      1  0.5413110000000  0.5348270000000  0.4719530000000 1.0
C      1  0.5206810000000  0.4423260000000  0.4711590000000 1.0
C      1  0.5212960000000  0.4421660000000  0.5280620000000 1.0
C      1  0.4998530000000  0.5566650000000  0.5150740000000 1.0
C      1  0.4995310000000  0.5567480000000  0.4852520000000 1.0
C      1  0.4961060000000  0.4511640000000  0.4848380000000 1.0
C      1  0.4964310000000  0.4510790000000  0.5149680000000 1.0
C      1  0.5623940000000  0.5207000000000  0.5269920000000 1.0
C      1  0.5617980000000  0.5208560000000  0.4717840000000 1.0
C      1  0.5138090000000  0.5387550000000  0.4682130000000 1.0
C      1  0.5144950000000  0.5385760000000  0.5316990000000 1.0
C      1  0.5076520000000  0.4889730000000  0.5450360000000 1.0
C      1  0.5066760000000  0.4892270000000  0.4547480000000 1.0
C      1  0.4287380000000  0.5346390000000  0.4733820000000 1.0
C      1  0.4293320000000  0.5344840000000  0.5283460000000 1.0
C      1  0.4221710000000  0.5120890000000  0.5156940000000 1.0
C      1  0.4218510000000  0.5121720000000  0.4860590000000 1.0
C      1  0.5245910000000  0.4486730000000  0.4450500000000 1.0
C      1  0.5257690000000  0.4483660000000  0.5541160000000 1.0
C      1  0.4702030000000  0.5160540000000  0.4605800000000 1.0
C      1  0.4710630000000  0.5158300000000  0.5401440000000 1.0
C      1  0.4388490000000  0.4877720000000  0.4858120000000 1.0
C      1  0.4391690000000  0.4876890000000  0.5154370000000 1.0
C      1  0.5654130000000  0.4954320000000  0.5138350000000 1.0
C      1  0.5650990000000  0.4955140000000  0.4847300000000 1.0
C      1  0.5315970000000  0.4750750000000  0.4501490000000 1.0
C      1  0.5326650000000  0.4747960000000  0.5490160000000 1.0
C      1  0.5462730000000  0.4494910000000  0.5132910000000 1.0
C      1  0.5459720000000  0.4495690000000  0.4854280000000 1.0
C      1  0.4628070000000  0.4891280000000  0.5314930000000 1.0
C      1  0.4621350000000  0.4893040000000  0.4692570000000 1.0
C      1  0.4862370000000  0.4726460000000  0.5317100000000 1.0
C      1  0.4855530000000  0.4728240000000  0.4684420000000 1.0
C      1  0.5539070000000  0.4734190000000  0.4710470000000 1.0
C      1  0.5545190000000  0.4732600000000  0.5276320000000 1.0
C      1  0.4993920000000  0.5162260000000  0.5428390000000 1.0
C      1  0.4984670000000  0.5164660000000  0.4572760000000 1.0
END
