TITL C-99191-6319-2 3.32466925597211 125000 -797.235968720031 0 0 113 (C1) n - 1
REM
REM in /rds/project/t2_vol4/rds-t2-cs072/BORA/CARBON/from-Arr/AIRSS/Generating-Clusters/GAP-ML-2020/Higher-Symm/SD-CG/HFTN-CG
REM
REM
REM
REM
REM
REM ./C.cell (b20cbc046b6831c77cfcea5457e17084)
REM AIRSS Version 0.9.1 bugfix July 2018 build 013d7b7c2542+ Fri, 06 Jul 2018 19:26:36 +0100
REM compiler GCC version 9.3.0
REM options -cpp -mtune=generic -march=x86-64 -g -O0
REM seed -803811257 1657618022 427306314 2101767317 -1582126071 1455243627 -1870788452 312179341 177634838 -91489049 778935848 -241431639 -943431109 -348275698 475493062 -1245514657 884976028 -1434105653 -490425411 149687483 -332212177 -613297611 192745309 -468015942 1584575370 1029961167 1606331004 1790800691 -1188348647 523821635 1074281275 -1287722826 -254433782
REM
CELL 1.54180   50.00000   50.00000   50.00000   90.00000   90.00000   90.00000
LATT -1
SFAC C  
C      1  0.5255900000000  0.5674180000000  0.5523310000000 1.0
C      1  0.5506830000000  0.5303090000000  0.5724960000000 1.0
C      1  0.5647920000000  0.5463600000000  0.5290060000000 1.0
C      1  0.4736020000000  0.5681550000000  0.4506310000000 1.0
C      1  0.5254100000000  0.4313260000000  0.4501210000000 1.0
C      1  0.4725270000000  0.4321450000000  0.5504240000000 1.0
C      1  0.4524930000000  0.5291850000000  0.4303300000000 1.0
C      1  0.5473380000000  0.4705450000000  0.4304710000000 1.0
C      1  0.4536080000000  0.4734310000000  0.5662620000000 1.0
C      1  0.4326880000000  0.5487410000000  0.4696480000000 1.0
C      1  0.5660100000000  0.4502260000000  0.4699560000000 1.0
C      1  0.4341050000000  0.4511450000000  0.5268330000000 1.0
C      1  0.5457510000000  0.5666860000000  0.5327780000000 1.0
C      1  0.5659540000000  0.5262970000000  0.5485590000000 1.0
C      1  0.5303690000000  0.5506970000000  0.5745130000000 1.0
C      1  0.4528920000000  0.5678870000000  0.4699190000000 1.0
C      1  0.4509600000000  0.4288790000000  0.5320810000000 1.0
C      1  0.5457370000000  0.4311290000000  0.4698280000000 1.0
C      1  0.4325780000000  0.5290000000000  0.4495890000000 1.0
C      1  0.4341860000000  0.4718810000000  0.5459140000000 1.0
C      1  0.5667370000000  0.4702120000000  0.4501590000000 1.0
C      1  0.4730410000000  0.5488120000000  0.4306870000000 1.0
C      1  0.4738160000000  0.4537000000000  0.5678700000000 1.0
C      1  0.5266880000000  0.4510290000000  0.4304390000000 1.0
C      1  0.5671260000000  0.5230650000000  0.4516350000000 1.0
C      1  0.4518700000000  0.5670570000000  0.5231850000000 1.0
C      1  0.5264360000000  0.4514640000000  0.5653490000000 1.0
C      1  0.4315470000000  0.5247600000000  0.5430580000000 1.0
C      1  0.5676590000000  0.4710210000000  0.5439560000000 1.0
C      1  0.4330670000000  0.4757770000000  0.4508780000000 1.0
C      1  0.5492450000000  0.5837550000000  0.4865140000000 1.0
C      1  0.4496500000000  0.4142350000000  0.4857940000000 1.0
C      1  0.5446110000000  0.4323840000000  0.5230470000000 1.0
C      1  0.4738380000000  0.4549420000000  0.4301040000000 1.0
C      1  0.5259850000000  0.5448150000000  0.4307600000000 1.0
C      1  0.4834760000000  0.5500970000000  0.5864830000000 1.0
C      1  0.4497070000000  0.5258290000000  0.5648760000000 1.0
C      1  0.5266790000000  0.5656180000000  0.4500810000000 1.0
C      1  0.5659730000000  0.4518570000000  0.5228540000000 1.0
C      1  0.5464320000000  0.5237350000000  0.4310100000000 1.0
C      1  0.5544170000000  0.4833970000000  0.5900400000000 1.0
C      1  0.4538290000000  0.4758650000000  0.4307640000000 1.0
C      1  0.4696700000000  0.5683830000000  0.5451760000000 1.0
C      1  0.4727090000000  0.4336620000000  0.4488760000000 1.0
C      1  0.5251760000000  0.4321260000000  0.5445660000000 1.0
C      1  0.4316290000000  0.4548020000000  0.4699630000000 1.0
C      1  0.4320930000000  0.5458240000000  0.5226160000000 1.0
C      1  0.5677910000000  0.5434910000000  0.4716100000000 1.0
C      1  0.5014380000000  0.4654620000000  0.4261820000000 1.0
C      1  0.4289360000000  0.5027640000000  0.4628890000000 1.0
C      1  0.4609680000000  0.4130490000000  0.5099570000000 1.0
C      1  0.5002930000000  0.4676120000000  0.5690550000000 1.0
C      1  0.5078710000000  0.5399290000000  0.5894230000000 1.0
C      1  0.4985210000000  0.5347120000000  0.4263410000000 1.0
C      1  0.5687420000000  0.5000760000000  0.5339990000000 1.0
C      1  0.4280530000000  0.4972270000000  0.5319950000000 1.0
C      1  0.5711980000000  0.4963180000000  0.4636270000000 1.0
C      1  0.5322210000000  0.4280090000000  0.4961270000000 1.0
C      1  0.4654050000000  0.5715230000000  0.4962660000000 1.0
C      1  0.5339310000000  0.5754230000000  0.5076530000000 1.0
C      1  0.4299770000000  0.4645750000000  0.4992930000000 1.0
C      1  0.4655090000000  0.5028880000000  0.4266970000000 1.0
C      1  0.4990120000000  0.4289600000000  0.4637890000000 1.0
C      1  0.5705290000000  0.4637640000000  0.4958590000000 1.0
C      1  0.5702000000000  0.5339080000000  0.5013390000000 1.0
C      1  0.4282350000000  0.5348630000000  0.4955690000000 1.0
C      1  0.5413810000000  0.5072960000000  0.5883800000000 1.0
C      1  0.5348460000000  0.4970660000000  0.4261060000000 1.0
C      1  0.4661870000000  0.4999170000000  0.5700430000000 1.0
C      1  0.4974510000000  0.4279440000000  0.5344810000000 1.0
C      1  0.4996580000000  0.5713660000000  0.4646430000000 1.0
C      1  0.4991430000000  0.5704870000000  0.5368550000000 1.0
C      1  0.5219860000000  0.5437620000000  0.4989770000000 1.0
C      1  0.4991170000000  0.5209000000000  0.5376490000000 1.0
C      1  0.5420810000000  0.4990810000000  0.5174780000000 1.0
C      1  0.4782320000000  0.5430220000000  0.4979260000000 1.0
C      1  0.5213270000000  0.4564310000000  0.4980060000000 1.0
C      1  0.4789480000000  0.4601170000000  0.4975760000000 1.0
C      1  0.5009970000000  0.5222780000000  0.4559150000000 1.0
C      1  0.5000570000000  0.4789570000000  0.4556760000000 1.0
C      1  0.4975410000000  0.4776310000000  0.5397440000000 1.0
C      1  0.4581210000000  0.5011040000000  0.4765780000000 1.0
C      1  0.5427700000000  0.4996260000000  0.4757160000000 1.0
C      1  0.4563760000000  0.5011110000000  0.5202850000000 1.0
C      1  0.4990680000000  0.5434860000000  0.5203130000000 1.0
C      1  0.5430500000000  0.5224420000000  0.4969300000000 1.0
C      1  0.5147840000000  0.4994020000000  0.5275290000000 1.0
C      1  0.5011980000000  0.5433740000000  0.4767410000000 1.0
C      1  0.4980550000000  0.4565350000000  0.5196930000000 1.0
C      1  0.4992330000000  0.4581750000000  0.4760680000000 1.0
C      1  0.4573110000000  0.5225080000000  0.4982270000000 1.0
C      1  0.4577380000000  0.4790900000000  0.4979270000000 1.0
C      1  0.5425430000000  0.4769070000000  0.4967310000000 1.0
C      1  0.4788820000000  0.5009810000000  0.4561380000000 1.0
C      1  0.4762380000000  0.5011200000000  0.5419200000000 1.0
C      1  0.5221030000000  0.5000940000000  0.4552810000000 1.0
C      1  0.5070520000000  0.5864120000000  0.5132830000000 1.0
C      1  0.5124160000000  0.5112860000000  0.5933810000000 1.0
C      1  0.5842340000000  0.5083240000000  0.5089910000000 1.0
C      1  0.4909840000000  0.5852990000000  0.4909670000000 1.0
C      1  0.5062450000000  0.4144420000000  0.4896720000000 1.0
C      1  0.4898100000000  0.4108430000000  0.5116480000000 1.0
C      1  0.4906170000000  0.5097080000000  0.4124720000000 1.0
C      1  0.5094800000000  0.4902400000000  0.4120360000000 1.0
C      1  0.4932800000000  0.4929940000000  0.5841250000000 1.0
C      1  0.4147200000000  0.5090980000000  0.4879770000000 1.0
C      1  0.5847350000000  0.4893130000000  0.4892810000000 1.0
C      1  0.4145430000000  0.4890780000000  0.5066590000000 1.0
C      1  0.4639750000000  0.5509580000000  0.5680530000000 1.0
C      1  0.5518880000000  0.4659900000000  0.5685000000000 1.0
C      1  0.5511750000000  0.5666100000000  0.4656230000000 1.0
C      1  0.4485620000000  0.4314770000000  0.4650950000000 1.0
C      1  0.5016800000000  0.5002310000000  0.5005810000000 1.0
END
