TITL C-99202-9419-3 -0.0383241522345528 125000 -534.473838211867 0 0 79 (C1) n - 1
REM
REM in /rds/project/t2_vol4/rds-t2-cs072/BORA/CARBON/from-Arr/AIRSS/Generating-Clusters/GAP-ML-2020/Higher-Symm/SD-CG/HFTN-CG
REM
REM
REM
REM
REM
REM ./C.cell (b20cbc046b6831c77cfcea5457e17084)
REM AIRSS Version 0.9.1 bugfix July 2018 build 013d7b7c2542+ Fri, 06 Jul 2018 19:26:36 +0100
REM compiler GCC version 9.3.0
REM options -cpp -mtune=generic -march=x86-64 -g -O0
REM seed 2056765523 -830511902 1693489230 1836587767 1409346412 895633350 2036076284 1409351487 -1453927610 1705260423 1152581464 -1644310076 2132595906 2042985220 -407900215 -633407812 -2030368356 512923928 283873718 2079670721 1357971709 1694528314 175783289 -634299629 -103755221 -2003089757 1228022186 1075909462 1232233568 -1501915959 731870314 240802244 -1411213390
REM
CELL 1.54180   50.00000   50.00000   50.00000   90.00000   90.00000   90.00000
LATT -1
SFAC C  
C      1  0.5336940000000  0.5106250000000  0.4324700000000 1.0
C      1  0.4659760000000  0.5124740000000  0.5697220000000 1.0
C      1  0.5352310000000  0.4855130000000  0.5693380000000 1.0
C      1  0.4660080000000  0.4880560000000  0.4326990000000 1.0
C      1  0.4317540000000  0.5123100000000  0.5355450000000 1.0
C      1  0.5682980000000  0.5104190000000  0.4662410000000 1.0
C      1  0.5689800000000  0.4854830000000  0.5346120000000 1.0
C      1  0.4318390000000  0.4876510000000  0.4668630000000 1.0
C      1  0.4790730000000  0.4933380000000  0.4582170000000 1.0
C      1  0.5216460000000  0.4928670000000  0.5446910000000 1.0
C      1  0.4792950000000  0.5051670000000  0.5449280000000 1.0
C      1  0.5208350000000  0.5052670000000  0.4580830000000 1.0
C      1  0.4567870000000  0.4943940000000  0.4803060000000 1.0
C      1  0.5434800000000  0.4913700000000  0.5218440000000 1.0
C      1  0.5434360000000  0.5036230000000  0.4798270000000 1.0
C      1  0.4571100000000  0.5064820000000  0.5224360000000 1.0
C      1  0.4766740000000  0.4349460000000  0.4858570000000 1.0
C      1  0.5388500000000  0.4214590000000  0.5181140000000 1.0
C      1  0.4619220000000  0.5754330000000  0.5178400000000 1.0
C      1  0.5238520000000  0.5630880000000  0.4854990000000 1.0
C      1  0.4826620000000  0.4239760000000  0.4613820000000 1.0
C      1  0.5149980000000  0.4343500000000  0.5235100000000 1.0
C      1  0.5184780000000  0.5754780000000  0.4614080000000 1.0
C      1  0.4861320000000  0.5637990000000  0.5237540000000 1.0
C      1  0.5410100000000  0.5173740000000  0.5064500000000 1.0
C      1  0.4603990000000  0.5200720000000  0.4958960000000 1.0
C      1  0.5397500000000  0.4778850000000  0.4952300000000 1.0
C      1  0.4595270000000  0.4805590000000  0.5069020000000 1.0
C      1  0.5063620000000  0.5186760000000  0.5417940000000 1.0
C      1  0.4947090000000  0.5191190000000  0.4614440000000 1.0
C      1  0.4945860000000  0.4793430000000  0.5418520000000 1.0
C      1  0.5051760000000  0.4794890000000  0.4610810000000 1.0
C      1  0.4497870000000  0.4465780000000  0.4874690000000 1.0
C      1  0.5557140000000  0.4424900000000  0.5137630000000 1.0
C      1  0.4439410000000  0.5552270000000  0.5143830000000 1.0
C      1  0.5507520000000  0.5513960000000  0.4870770000000 1.0
C      1  0.4863970000000  0.4445920000000  0.4439390000000 1.0
C      1  0.5135700000000  0.4452270000000  0.5507660000000 1.0
C      1  0.5137230000000  0.5542280000000  0.4449480000000 1.0
C      1  0.4875420000000  0.5527980000000  0.5509200000000 1.0
C      1  0.5386540000000  0.4588550000000  0.5586360000000 1.0
C      1  0.4616370000000  0.4612510000000  0.4414840000000 1.0
C      1  0.5382600000000  0.5372680000000  0.4414570000000 1.0
C      1  0.4624680000000  0.5391280000000  0.5589640000000 1.0
C      1  0.5595250000000  0.4589870000000  0.5386640000000 1.0
C      1  0.4421300000000  0.4608630000000  0.4627660000000 1.0
C      1  0.4411550000000  0.5388900000000  0.5394350000000 1.0
C      1  0.5582220000000  0.5372940000000  0.4622940000000 1.0
C      1  0.4500920000000  0.5105700000000  0.4309900000000 1.0
C      1  0.5505600000000  0.5085910000000  0.5709160000000 1.0
C      1  0.4507630000000  0.4893000000000  0.5713980000000 1.0
C      1  0.5497530000000  0.4881920000000  0.4304820000000 1.0
C      1  0.4297490000000  0.5104950000000  0.4513650000000 1.0
C      1  0.5706500000000  0.5082980000000  0.5502370000000 1.0
C      1  0.5702670000000  0.4876380000000  0.4506660000000 1.0
C      1  0.4303080000000  0.4894570000000  0.5510690000000 1.0
C      1  0.5127260000000  0.5408280000000  0.5591240000000 1.0
C      1  0.4881520000000  0.5403130000000  0.4432570000000 1.0
C      1  0.5115390000000  0.4589180000000  0.4420390000000 1.0
C      1  0.4884730000000  0.4571110000000  0.5591770000000 1.0
C      1  0.5588130000000  0.5393900000000  0.5122260000000 1.0
C      1  0.4417430000000  0.5408320000000  0.4892720000000 1.0
C      1  0.4418420000000  0.4584830000000  0.5127590000000 1.0
C      1  0.5576540000000  0.4566400000000  0.4883170000000 1.0
C      1  0.4388500000000  0.5378410000000  0.4614700000000 1.0
C      1  0.5614820000000  0.5353030000000  0.5399180000000 1.0
C      1  0.4394620000000  0.4625180000000  0.5405210000000 1.0
C      1  0.5606920000000  0.4600830000000  0.4605470000000 1.0
C      1  0.4603330000000  0.5377230000000  0.4403070000000 1.0
C      1  0.5403910000000  0.5359790000000  0.5615700000000 1.0
C      1  0.5393790000000  0.4611610000000  0.4392600000000 1.0
C      1  0.4608530000000  0.4619470000000  0.5618780000000 1.0
C      1  0.4877800000000  0.5246210000000  0.4886870000000 1.0
C      1  0.5123670000000  0.4735920000000  0.4882740000000 1.0
C      1  0.5138450000000  0.5234650000000  0.5143170000000 1.0
C      1  0.4868120000000  0.4745640000000  0.5144590000000 1.0
C      1  0.4983100000000  0.4495370000000  0.5022480000000 1.0
C      1  0.5022830000000  0.5485860000000  0.5023440000000 1.0
C      1  0.5001970000000  0.4990460000000  0.5014770000000 1.0
END
