TITL C-99215-1436-14 -26.8613605007868 125000 -811.632895871741 0 0 118 (C1) n - 1
REM
REM in /rds/project/t2_vol4/rds-t2-cs072/BORA/CARBON/from-Arr/AIRSS/Generating-Clusters/GAP-ML-2020/Higher-Symm/SD-CG/HFTN-CG
REM
REM
REM
REM
REM
REM ./C.cell (b20cbc046b6831c77cfcea5457e17084)
REM AIRSS Version 0.9.1 bugfix July 2018 build 013d7b7c2542+ Fri, 06 Jul 2018 19:26:36 +0100
REM compiler GCC version 9.3.0
REM options -cpp -mtune=generic -march=x86-64 -g -O0
REM seed -976209689 -423631174 1329492643 -2002655870 -1911125495 974393756 -98827329 648973342 1477126567 2000413437 1397723550 -2010980547 -1988495285 -1644079356 2013686403 -1388776495 -366144485 767575205 1367099588 -729279815 531852950 552321510 1883566286 1018951339 136814187 -1015715353 1874209125 -1992192776 272293136 -723107152 2032797299 1171373391 -1207653256
REM
CELL 1.54180   50.00000   50.00000   50.00000   90.00000   90.00000   90.00000
LATT -1
SFAC C  
C      1  0.4139890000000  0.5280200000000  0.4712930000000 1.0
C      1  0.4300740000000  0.4325170000000  0.4738370000000 1.0
C      1  0.5529890000000  0.4165190000000  0.4756140000000 1.0
C      1  0.5884470000000  0.5301380000000  0.4680520000000 1.0
C      1  0.5164600000000  0.5985860000000  0.4750120000000 1.0
C      1  0.5873710000000  0.5271240000000  0.5288640000000 1.0
C      1  0.5696570000000  0.4323170000000  0.5256140000000 1.0
C      1  0.4469790000000  0.4166030000000  0.5238330000000 1.0
C      1  0.4104620000000  0.5301930000000  0.5318430000000 1.0
C      1  0.4868110000000  0.5944280000000  0.5220620000000 1.0
C      1  0.4898140000000  0.4503060000000  0.5096090000000 1.0
C      1  0.5449360000000  0.4770680000000  0.5116250000000 1.0
C      1  0.5356910000000  0.5324110000000  0.5119280000000 1.0
C      1  0.4770560000000  0.5427780000000  0.5128380000000 1.0
C      1  0.4491670000000  0.4930930000000  0.5146410000000 1.0
C      1  0.5101040000000  0.4492820000000  0.4884170000000 1.0
C      1  0.4542910000000  0.4771450000000  0.4884980000000 1.0
C      1  0.4643210000000  0.5305290000000  0.4888080000000 1.0
C      1  0.5217030000000  0.5430260000000  0.4876270000000 1.0
C      1  0.5493140000000  0.4930260000000  0.4858850000000 1.0
C      1  0.5405240000000  0.4259710000000  0.5194170000000 1.0
C      1  0.5849530000000  0.5054640000000  0.5103200000000 1.0
C      1  0.5127090000000  0.5803880000000  0.5159300000000 1.0
C      1  0.4293290000000  0.5445290000000  0.5146420000000 1.0
C      1  0.4386720000000  0.4443400000000  0.5177120000000 1.0
C      1  0.4593230000000  0.4261410000000  0.4799810000000 1.0
C      1  0.4141910000000  0.5058110000000  0.4895110000000 1.0
C      1  0.4733690000000  0.5741860000000  0.4796240000000 1.0
C      1  0.5703360000000  0.5448760000000  0.4856130000000 1.0
C      1  0.5609940000000  0.4443850000000  0.4818570000000 1.0
C      1  0.5163780000000  0.5310010000000  0.4146360000000 1.0
C      1  0.4881160000000  0.5361750000000  0.4192160000000 1.0
C      1  0.4826160000000  0.5071340000000  0.4196620000000 1.0
C      1  0.5041920000000  0.4555610000000  0.4223300000000 1.0
C      1  0.5223520000000  0.4760730000000  0.4197740000000 1.0
C      1  0.4839450000000  0.5316480000000  0.5842190000000 1.0
C      1  0.5121340000000  0.5367240000000  0.5795420000000 1.0
C      1  0.5175630000000  0.5076830000000  0.5806280000000 1.0
C      1  0.4957940000000  0.4556950000000  0.5775970000000 1.0
C      1  0.4778010000000  0.4764410000000  0.5796520000000 1.0
C      1  0.5532190000000  0.5460970000000  0.5548800000000 1.0
C      1  0.4641920000000  0.5667880000000  0.5523110000000 1.0
C      1  0.4295070000000  0.4949200000000  0.5564410000000 1.0
C      1  0.4870370000000  0.4214460000000  0.5486160000000 1.0
C      1  0.5722850000000  0.4723670000000  0.5487280000000 1.0
C      1  0.4486160000000  0.5461670000000  0.4464700000000 1.0
C      1  0.5348340000000  0.5666190000000  0.4480720000000 1.0
C      1  0.5698820000000  0.4947540000000  0.4436110000000 1.0
C      1  0.5130020000000  0.4204790000000  0.4503570000000 1.0
C      1  0.4276500000000  0.4729430000000  0.4512410000000 1.0
C      1  0.4384460000000  0.4970920000000  0.4395080000000 1.0
C      1  0.4659540000000  0.4339570000000  0.4505190000000 1.0
C      1  0.5524930000000  0.4525820000000  0.4531850000000 1.0
C      1  0.5656420000000  0.5388750000000  0.4231750000000 1.0
C      1  0.4842970000000  0.5756330000000  0.4519720000000 1.0
C      1  0.5619170000000  0.4962970000000  0.5611740000000 1.0
C      1  0.5341970000000  0.4335060000000  0.5492620000000 1.0
C      1  0.4469930000000  0.4527770000000  0.5462990000000 1.0
C      1  0.4340160000000  0.5386000000000  0.5770620000000 1.0
C      1  0.5146660000000  0.5743450000000  0.5466160000000 1.0
C      1  0.4877110000000  0.4210500000000  0.5202760000000 1.0
C      1  0.5760410000000  0.4772780000000  0.5198530000000 1.0
C      1  0.5557190000000  0.5520340000000  0.5276360000000 1.0
C      1  0.4543850000000  0.5612950000000  0.5240340000000 1.0
C      1  0.4216570000000  0.4904520000000  0.5303280000000 1.0
C      1  0.5124120000000  0.4199230000000  0.4788690000000 1.0
C      1  0.4233910000000  0.4774130000000  0.4800600000000 1.0
C      1  0.4503000000000  0.5553470000000  0.4738500000000 1.0
C      1  0.5443190000000  0.5612360000000  0.4764620000000 1.0
C      1  0.5775690000000  0.4898120000000  0.4696920000000 1.0
C      1  0.5335640000000  0.4920830000000  0.5635280000000 1.0
C      1  0.5280500000000  0.5552640000000  0.5640770000000 1.0
C      1  0.4603670000000  0.5475240000000  0.5743070000000 1.0
C      1  0.4547670000000  0.4787540000000  0.5587320000000 1.0
C      1  0.5081480000000  0.4352940000000  0.5631810000000 1.0
C      1  0.4667710000000  0.4923730000000  0.4374220000000 1.0
C      1  0.4725380000000  0.5552860000000  0.4342950000000 1.0
C      1  0.5392360000000  0.5474090000000  0.4258550000000 1.0
C      1  0.5448140000000  0.4787310000000  0.4412350000000 1.0
C      1  0.4917910000000  0.4347030000000  0.4360630000000 1.0
C      1  0.4772420000000  0.4859080000000  0.4672730000000 1.0
C      1  0.5047610000000  0.4719310000000  0.4698300000000 1.0
C      1  0.5270610000000  0.4923630000000  0.4664380000000 1.0
C      1  0.5118550000000  0.5188310000000  0.4719720000000 1.0
C      1  0.4851700000000  0.5119470000000  0.4792090000000 1.0
C      1  0.5237580000000  0.4867780000000  0.5334840000000 1.0
C      1  0.4950640000000  0.4763160000000  0.5236760000000 1.0
C      1  0.4715610000000  0.4929510000000  0.5338750000000 1.0
C      1  0.4878380000000  0.5198760000000  0.5282260000000 1.0
C      1  0.5164220000000  0.5147790000000  0.5246540000000 1.0
C      1  0.5609920000000  0.4458470000000  0.5500320000000 1.0
C      1  0.5706200000000  0.5227640000000  0.5535540000000 1.0
C      1  0.4870410000000  0.5832050000000  0.5486370000000 1.0
C      1  0.4212310000000  0.5224040000000  0.5592280000000 1.0
C      1  0.4591570000000  0.4267770000000  0.5489470000000 1.0
C      1  0.4390480000000  0.4463880000000  0.4497540000000 1.0
C      1  0.4304580000000  0.5236050000000  0.4474210000000 1.0
C      1  0.5118460000000  0.5836000000000  0.4519460000000 1.0
C      1  0.5780610000000  0.5223460000000  0.4409190000000 1.0
C      1  0.5407850000000  0.4264740000000  0.4503580000000 1.0
C      1  0.4194810000000  0.4501380000000  0.4930410000000 1.0
C      1  0.5347620000000  0.4083030000000  0.4944080000000 1.0
C      1  0.5959080000000  0.5068460000000  0.4827840000000 1.0
C      1  0.5323910000000  0.5867190000000  0.4931570000000 1.0
C      1  0.4234270000000  0.5516160000000  0.4863220000000 1.0
C      1  0.5801150000000  0.4501840000000  0.5065400000000 1.0
C      1  0.4653620000000  0.4087650000000  0.5050230000000 1.0
C      1  0.4029710000000  0.5072770000000  0.5169400000000 1.0
C      1  0.4648620000000  0.5853990000000  0.5073420000000 1.0
C      1  0.5800370000000  0.5505100000000  0.5135630000000 1.0
C      1  0.4982840000000  0.5589790000000  0.4983600000000 1.0
C      1  0.4418000000000  0.5179350000000  0.5017260000000 1.0
C      1  0.5571150000000  0.5180950000000  0.4982210000000 1.0
C      1  0.5371030000000  0.4511270000000  0.5009010000000 1.0
C      1  0.4624090000000  0.4513160000000  0.4985800000000 1.0
C      1  0.4898360000000  0.5022860000000  0.5860500000000 1.0
C      1  0.5104260000000  0.5016750000000  0.4136720000000 1.0
C      1  0.4979120000000  0.5027670000000  0.5042720000000 1.0
END
