TITL C-99209-9802-1 15.6370305058979 125000 -882.375351080752 0 0 129 (S4) n - 1
REM
REM in /rds/project/t2_vol4/rds-t2-cs072/BORA/CARBON/from-Arr/AIRSS/Generating-Clusters/GAP-ML-2020/Higher-Symm/SD-CG/HFTN-CG
REM
REM
REM
REM
REM
REM ./C.cell (b20cbc046b6831c77cfcea5457e17084)
REM AIRSS Version 0.9.1 bugfix July 2018 build 013d7b7c2542+ Fri, 06 Jul 2018 19:26:36 +0100
REM compiler GCC version 9.3.0
REM options -cpp -mtune=generic -march=x86-64 -g -O0
REM seed 1271196040 -996841865 1569213135 -1836293292 -939927817 178299049 -273190877 2033192827 1691779377 1138523545 2046305501 2096166321 -1277157434 -1613357077 -1206391199 -832843850 910265192 -1121263590 1688552445 -40565499 1917632749 -2080666467 851881830 752328340 47177944 1677776682 -2021982163 -456045589 669749080 1263089977 857771520 819341921 -2138654713
REM
CELL 1.54180   50.00000   50.00000   50.00000   90.00000   90.00000   90.00000
LATT -1
SFAC C  
C      1  0.4832210000000  0.5338270000000  0.4916900000000 1.0
C      1  0.4658490000000  0.4834680000000  0.5079150000000 1.0
C      1  0.5162120000000  0.4660990000000  0.4917020000000 1.0
C      1  0.5335770000000  0.5164590000000  0.5079290000000 1.0
C      1  0.5299430000000  0.5254100000000  0.4034490000000 1.0
C      1  0.4742400000000  0.5301730000000  0.5961680000000 1.0
C      1  0.4695340000000  0.4745060000000  0.4034370000000 1.0
C      1  0.5251440000000  0.4697640000000  0.5961830000000 1.0
C      1  0.5895080000000  0.5150860000000  0.4603300000000 1.0
C      1  0.4845800000000  0.5897490000000  0.5393010000000 1.0
C      1  0.4099410000000  0.4848360000000  0.4602880000000 1.0
C      1  0.5148310000000  0.4101820000000  0.5393180000000 1.0
C      1  0.4869930000000  0.4271590000000  0.4562640000000 1.0
C      1  0.5725070000000  0.4872340000000  0.5433740000000 1.0
C      1  0.5124580000000  0.5727630000000  0.4562610000000 1.0
C      1  0.4269020000000  0.5126980000000  0.5433380000000 1.0
C      1  0.5390410000000  0.4696450000000  0.4199810000000 1.0
C      1  0.5300100000000  0.5392740000000  0.5796530000000 1.0
C      1  0.4604280000000  0.5302730000000  0.4199590000000 1.0
C      1  0.4693820000000  0.4606620000000  0.5796430000000 1.0
C      1  0.4117420000000  0.5210970000000  0.5191920000000 1.0
C      1  0.4785880000000  0.4119940000000  0.4804040000000 1.0
C      1  0.5876790000000  0.4788320000000  0.5192370000000 1.0
C      1  0.5208520000000  0.5879310000000  0.4804040000000 1.0
C      1  0.5281610000000  0.5504740000000  0.4429660000000 1.0
C      1  0.4491870000000  0.5283980000000  0.5566420000000 1.0
C      1  0.4712970000000  0.4494460000000  0.4429580000000 1.0
C      1  0.5502160000000  0.4715350000000  0.5566700000000 1.0
C      1  0.4428240000000  0.4572530000000  0.4357500000000 1.0
C      1  0.5424060000000  0.4430610000000  0.5638700000000 1.0
C      1  0.5566360000000  0.5426660000000  0.4357730000000 1.0
C      1  0.4569930000000  0.5568730000000  0.5638430000000 1.0
C      1  0.5234970000000  0.4763480000000  0.5400880000000 1.0
C      1  0.5233420000000  0.5237530000000  0.4595420000000 1.0
C      1  0.4759140000000  0.5235830000000  0.5400740000000 1.0
C      1  0.4761070000000  0.4761700000000  0.4595330000000 1.0
C      1  0.5089570000000  0.5580150000000  0.5752130000000 1.0
C      1  0.4416860000000  0.5092190000000  0.4243900000000 1.0
C      1  0.4904370000000  0.4419210000000  0.5752150000000 1.0
C      1  0.5577800000000  0.4906990000000  0.4244190000000 1.0
C      1  0.4927340000000  0.4291650000000  0.5485560000000 1.0
C      1  0.5705270000000  0.4929910000000  0.4510830000000 1.0
C      1  0.5066730000000  0.5707670000000  0.5485510000000 1.0
C      1  0.4289260000000  0.5069300000000  0.4510480000000 1.0
C      1  0.4753530000000  0.5979730000000  0.4898890000000 1.0
C      1  0.4017020000000  0.4756000000000  0.5096960000000 1.0
C      1  0.5240820000000  0.4019530000000  0.4899110000000 1.0
C      1  0.5977230000000  0.5243280000000  0.5097410000000 1.0
C      1  0.5763840000000  0.5600390000000  0.5252460000000 1.0
C      1  0.4396470000000  0.5766370000000  0.4743690000000 1.0
C      1  0.4230330000000  0.4398910000000  0.5252160000000 1.0
C      1  0.5597950000000  0.4232860000000  0.4744060000000 1.0
C      1  0.4134580000000  0.5255870000000  0.4715710000000 1.0
C      1  0.4740830000000  0.4137010000000  0.5280240000000 1.0
C      1  0.5859850000000  0.4743360000000  0.4716150000000 1.0
C      1  0.5253340000000  0.5862290000000  0.5280270000000 1.0
C      1  0.4973550000000  0.3945000000000  0.4931240000000 1.0
C      1  0.6051760000000  0.4976020000000  0.5065260000000 1.0
C      1  0.5020790000000  0.6054260000000  0.4931130000000 1.0
C      1  0.3942510000000  0.5023260000000  0.5064750000000 1.0
C      1  0.5139160000000  0.5013240000000  0.5527040000000 1.0
C      1  0.4983700000000  0.5141740000000  0.4469160000000 1.0
C      1  0.4854880000000  0.4986080000000  0.5526980000000 1.0
C      1  0.5010860000000  0.4857460000000  0.4469190000000 1.0
C      1  0.4438680000000  0.4901460000000  0.4911900000000 1.0
C      1  0.5095300000000  0.4441150000000  0.5084210000000 1.0
C      1  0.5555660000000  0.5097800000000  0.4912160000000 1.0
C      1  0.4898960000000  0.5558130000000  0.5084100000000 1.0
C      1  0.5397620000000  0.5816980000000  0.5027060000000 1.0
C      1  0.4179810000000  0.5400110000000  0.4968950000000 1.0
C      1  0.4596660000000  0.4182290000000  0.5026960000000 1.0
C      1  0.5814500000000  0.4599150000000  0.4969390000000 1.0
C      1  0.5246700000000  0.5268420000000  0.5349180000000 1.0
C      1  0.4728470000000  0.5249250000000  0.4646970000000 1.0
C      1  0.4747430000000  0.4730890000000  0.5349090000000 1.0
C      1  0.5266000000000  0.4749970000000  0.4647130000000 1.0
C      1  0.4866830000000  0.4751520000000  0.4875580000000 1.0
C      1  0.5245230000000  0.4869290000000  0.5120660000000 1.0
C      1  0.5127530000000  0.5247730000000  0.4875610000000 1.0
C      1  0.4749020000000  0.5129990000000  0.5120520000000 1.0
C      1  0.4549270000000  0.5794570000000  0.5475730000000 1.0
C      1  0.4202350000000  0.4551840000000  0.4520140000000 1.0
C      1  0.5444800000000  0.4204750000000  0.5476030000000 1.0
C      1  0.5792180000000  0.5447380000000  0.4520470000000 1.0
C      1  0.4645290000000  0.5854560000000  0.4671940000000 1.0
C      1  0.4142130000000  0.4647710000000  0.5323930000000 1.0
C      1  0.5349170000000  0.4144670000000  0.4672210000000 1.0
C      1  0.5852010000000  0.5351590000000  0.5324300000000 1.0
C      1  0.5526750000000  0.5189260000000  0.4169640000000 1.0
C      1  0.4807280000000  0.5529080000000  0.5826590000000 1.0
C      1  0.4467950000000  0.4809920000000  0.4169400000000 1.0
C      1  0.5186620000000  0.4470280000000  0.5826740000000 1.0
C      1  0.5164580000000  0.4287530000000  0.4508350000000 1.0
C      1  0.5709110000000  0.5166970000000  0.5488080000000 1.0
C      1  0.4829960000000  0.5711680000000  0.4508180000000 1.0
C      1  0.4284960000000  0.4832350000000  0.5487760000000 1.0
C      1  0.4995350000000  0.5448990000000  0.5342410000000 1.0
C      1  0.4547900000000  0.4997890000000  0.4653640000000 1.0
C      1  0.4998790000000  0.4550320000000  0.5342460000000 1.0
C      1  0.5446570000000  0.5001330000000  0.4653860000000 1.0
C      1  0.5796920000000  0.5271270000000  0.4866370000000 1.0
C      1  0.4725470000000  0.5799380000000  0.5129880000000 1.0
C      1  0.4197440000000  0.4727980000000  0.4866020000000 1.0
C      1  0.5268760000000  0.4199900000000  0.5130100000000 1.0
C      1  0.4568090000000  0.5134040000000  0.5841920000000 1.0
C      1  0.4863000000000  0.4570730000000  0.4154150000000 1.0
C      1  0.5425810000000  0.4865330000000  0.5842140000000 1.0
C      1  0.5131710000000  0.5428440000000  0.4154160000000 1.0
C      1  0.4335380000000  0.4304150000000  0.5013960000000 1.0
C      1  0.5692640000000  0.4337860000000  0.4982310000000 1.0
C      1  0.5658920000000  0.5695120000000  0.5014200000000 1.0
C      1  0.4301670000000  0.5661400000000  0.4981900000000 1.0
C      1  0.4533810000000  0.4692290000000  0.5564210000000 1.0
C      1  0.5304660000000  0.4536400000000  0.4431980000000 1.0
C      1  0.5460220000000  0.5307040000000  0.5564400000000 1.0
C      1  0.4689910000000  0.5462810000000  0.4431780000000 1.0
C      1  0.4891140000000  0.5289860000000  0.4215900000000 1.0
C      1  0.4706690000000  0.4893480000000  0.5780180000000 1.0
C      1  0.5103530000000  0.4709320000000  0.4215990000000 1.0
C      1  0.5287230000000  0.5105870000000  0.5780300000000 1.0
C      1  0.5771860000000  0.5548280000000  0.4790270000000 1.0
C      1  0.4448440000000  0.5774300000000  0.5205900000000 1.0
C      1  0.4222540000000  0.4450960000000  0.4789950000000 1.0
C      1  0.5545760000000  0.4224990000000  0.5206250000000 1.0
C      1  0.6045490000000  0.4942330000000  0.4768810000000 1.0
C      1  0.5054380000000  0.6047930000000  0.5227580000000 1.0
C      1  0.3948920000000  0.5056910000000  0.4768300000000 1.0
C      1  0.4939800000000  0.3951360000000  0.5227680000000 1.0
C      1  0.4997150000000  0.4999630000000  0.4998090000000 1.0
END
