TITL C-99187-6258-9 2.61705023047226 125000 -602.358556260328 0 0 89 (C2v) n - 1
REM
REM in /rds/project/t2_vol4/rds-t2-cs072/BORA/CARBON/from-Arr/AIRSS/Generating-Clusters/GAP-ML-2020/Higher-Symm/SD-CG/HFTN-CG
REM
REM
REM
REM
REM
REM ./C.cell (b20cbc046b6831c77cfcea5457e17084)
REM AIRSS Version 0.9.1 bugfix July 2018 build 013d7b7c2542+ Fri, 06 Jul 2018 19:26:36 +0100
REM compiler GCC version 9.3.0
REM options -cpp -mtune=generic -march=x86-64 -g -O0
REM seed 400308040 1912315029 2003781292 -1096972030 229251843 -2117788971 -371732044 246041379 267926108 -1569511085 1885026784 -1049984933 -1952790944 -604377190 -1461925582 594949514 1984815809 -1282311831 -18489696 1209162839 827361229 1084351990 227371513 -1593198321 -425101516 635784833 -1534860422 972231791 979385371 1836076688 1024038281 -1873814107 303395545
REM
CELL 1.54180   50.00000   50.00000   50.00000   90.00000   90.00000   90.00000
LATT -1
SFAC C  
C      1  0.4956420000000  0.4618570000000  0.5542900000000 1.0
C      1  0.5246190000000  0.4719960000000  0.5550690000000 1.0
C      1  0.5377230000000  0.4993230000000  0.5549450000000 1.0
C      1  0.5274830000000  0.5282600000000  0.5539870000000 1.0
C      1  0.5001190000000  0.5413750000000  0.5526490000000 1.0
C      1  0.4711480000000  0.5312320000000  0.5516890000000 1.0
C      1  0.4580440000000  0.5039050000000  0.5518140000000 1.0
C      1  0.4682780000000  0.4749720000000  0.5529510000000 1.0
C      1  0.4703990000000  0.4347250000000  0.4598440000000 1.0
C      1  0.5238090000000  0.4348780000000  0.4596860000000 1.0
C      1  0.5651260000000  0.4689500000000  0.4609810000000 1.0
C      1  0.5658190000000  0.5224870000000  0.4592870000000 1.0
C      1  0.5324970000000  0.5642300000000  0.4592540000000 1.0
C      1  0.4792520000000  0.5639770000000  0.4550540000000 1.0
C      1  0.4378980000000  0.5299280000000  0.4547600000000 1.0
C      1  0.4372430000000  0.4763680000000  0.4554530000000 1.0
C      1  0.5761430000000  0.4638550000000  0.5021780000000 1.0
C      1  0.5777410000000  0.5276650000000  0.5004560000000 1.0
C      1  0.5368640000000  0.5774370000000  0.4993940000000 1.0
C      1  0.4725820000000  0.5780660000000  0.4953130000000 1.0
C      1  0.4237970000000  0.5368720000000  0.4947280000000 1.0
C      1  0.4222240000000  0.4730470000000  0.4957920000000 1.0
C      1  0.4629780000000  0.4233490000000  0.5000960000000 1.0
C      1  0.5273830000000  0.4226450000000  0.5009340000000 1.0
C      1  0.5092150000000  0.4739640000000  0.5015000000000 1.0
C      1  0.5315830000000  0.4851600000000  0.4885270000000 1.0
C      1  0.5263530000000  0.5097060000000  0.5013370000000 1.0
C      1  0.5152800000000  0.5311230000000  0.4868590000000 1.0
C      1  0.4905670000000  0.5268580000000  0.4995870000000 1.0
C      1  0.4692280000000  0.5150460000000  0.4854780000000 1.0
C      1  0.4734280000000  0.4911160000000  0.4997500000000 1.0
C      1  0.4855310000000  0.4690830000000  0.4871410000000 1.0
C      1  0.4720530000000  0.5298030000000  0.5835020000000 1.0
C      1  0.4598380000000  0.5043290000000  0.5836180000000 1.0
C      1  0.4692680000000  0.4778270000000  0.5846210000000 1.0
C      1  0.4947320000000  0.4656230000000  0.5858670000000 1.0
C      1  0.5213070000000  0.4748680000000  0.5866240000000 1.0
C      1  0.5335220000000  0.5003420000000  0.5865080000000 1.0
C      1  0.5240890000000  0.5268460000000  0.5855880000000 1.0
C      1  0.4986250000000  0.5390510000000  0.5843430000000 1.0
C      1  0.4821590000000  0.4162550000000  0.4791030000000 1.0
C      1  0.5450850000000  0.4321240000000  0.4798600000000 1.0
C      1  0.5833020000000  0.4815770000000  0.4800610000000 1.0
C      1  0.5684030000000  0.5444980000000  0.4787530000000 1.0
C      1  0.5193420000000  0.5835360000000  0.4767060000000 1.0
C      1  0.4565130000000  0.5676090000000  0.4734100000000 1.0
C      1  0.4183050000000  0.5181510000000  0.4729600000000 1.0
C      1  0.4331520000000  0.4552600000000  0.4756470000000 1.0
C      1  0.5448450000000  0.5428920000000  0.5361910000000 1.0
C      1  0.5020940000000  0.5633820000000  0.5341000000000 1.0
C      1  0.4569150000000  0.5474260000000  0.5325010000000 1.0
C      1  0.4364380000000  0.5047210000000  0.5326950000000 1.0
C      1  0.4522900000000  0.4595170000000  0.5345730000000 1.0
C      1  0.4950400000000  0.4390270000000  0.5366640000000 1.0
C      1  0.5402380000000  0.4549720000000  0.5377710000000 1.0
C      1  0.5607150000000  0.4976760000000  0.5375770000000 1.0
C      1  0.4708050000000  0.4877450000000  0.4162590000000 1.0
C      1  0.4906080000000  0.4713880000000  0.4059160000000 1.0
C      1  0.5148550000000  0.4666330000000  0.4184140000000 1.0
C      1  0.5373360000000  0.4820610000000  0.4137890000000 1.0
C      1  0.5353060000000  0.5092830000000  0.4182190000000 1.0
C      1  0.5163730000000  0.5251190000000  0.4056710000000 1.0
C      1  0.4912560000000  0.5303950000000  0.4160650000000 1.0
C      1  0.4691640000000  0.5147340000000  0.4104560000000 1.0
C      1  0.5392250000000  0.5129880000000  0.4483420000000 1.0
C      1  0.5185870000000  0.5350710000000  0.4579200000000 1.0
C      1  0.4893050000000  0.5369140000000  0.4459010000000 1.0
C      1  0.4668740000000  0.5160400000000  0.4559110000000 1.0
C      1  0.4646060000000  0.4854060000000  0.4461350000000 1.0
C      1  0.4844200000000  0.4638170000000  0.4582440000000 1.0
C      1  0.5145270000000  0.4614800000000  0.4485770000000 1.0
C      1  0.5361700000000  0.4828270000000  0.4593000000000 1.0
C      1  0.4681120000000  0.4365690000000  0.5246900000000 1.0
C      1  0.5226230000000  0.4337060000000  0.5264860000000 1.0
C      1  0.5631250000000  0.4702090000000  0.5267340000000 1.0
C      1  0.5662270000000  0.5246410000000  0.5260720000000 1.0
C      1  0.5298580000000  0.5653390000000  0.5241030000000 1.0
C      1  0.4753720000000  0.5681870000000  0.5216290000000 1.0
C      1  0.4349050000000  0.5316630000000  0.5204640000000 1.0
C      1  0.4317680000000  0.4772520000000  0.5220430000000 1.0
C      1  0.4932210000000  0.5805320000000  0.4750770000000 1.0
C      1  0.4348790000000  0.5527140000000  0.4728030000000 1.0
C      1  0.4202390000000  0.4919610000000  0.4737550000000 1.0
C      1  0.4471700000000  0.4330240000000  0.4773920000000 1.0
C      1  0.5083340000000  0.4192270000000  0.4793240000000 1.0
C      1  0.5667290000000  0.4470130000000  0.4802190000000 1.0
C      1  0.5813590000000  0.5077720000000  0.4795160000000 1.0
C      1  0.5543310000000  0.5667660000000  0.4784170000000 1.0
C      1  0.4993880000000  0.5007120000000  0.5137730000000 1.0
END
