TITL C-99195-6456-1 0.00660589725230446 125000 -534.694664382632 0 0 78 (C1) n - 1
REM
REM in /rds/project/t2_vol4/rds-t2-cs072/BORA/CARBON/from-Arr/AIRSS/Generating-Clusters/GAP-ML-2020/Higher-Symm/SD-CG/HFTN-CG
REM
REM
REM
REM
REM
REM ./C.cell (b20cbc046b6831c77cfcea5457e17084)
REM AIRSS Version 0.9.1 bugfix July 2018 build 013d7b7c2542+ Fri, 06 Jul 2018 19:26:36 +0100
REM compiler GCC version 9.3.0
REM options -cpp -mtune=generic -march=x86-64 -g -O0
REM seed 1946968365 668753223 838413866 -1182197976 -287678830 2140193501 -1497646076 -2091017192 -1657571526 -918303259 1889017483 -346103288 -922488072 163324158 532457934 1139269851 -329461628 -6747595 983753915 -173541843 -266760757 -1877124934 -6089472 -1381727456 1070068688 -234153640 -1945806186 516795023 -1702515855 -1006125885 -159314 1711249835 -1669022492
REM
CELL 1.54180   50.00000   50.00000   50.00000   90.00000   90.00000   90.00000
LATT -1
SFAC C  
C      1  0.5349870000000  0.4471580000000  0.5398560000000 1.0
C      1  0.5327400000000  0.4430930000000  0.4557310000000 1.0
C      1  0.5379680000000  0.5241360000000  0.4352440000000 1.0
C      1  0.5327910000000  0.5714110000000  0.5065760000000 1.0
C      1  0.5333640000000  0.5222220000000  0.5677050000000 1.0
C      1  0.5072260000000  0.5731500000000  0.5203250000000 1.0
C      1  0.5086280000000  0.5080200000000  0.5740510000000 1.0
C      1  0.5113280000000  0.4335340000000  0.5294320000000 1.0
C      1  0.5081840000000  0.4537620000000  0.4440680000000 1.0
C      1  0.5139630000000  0.5394860000000  0.4410190000000 1.0
C      1  0.4871270000000  0.4295200000000  0.4845670000000 1.0
C      1  0.4910430000000  0.4979060000000  0.4242600000000 1.0
C      1  0.4871970000000  0.5690210000000  0.4737120000000 1.0
C      1  0.4851260000000  0.5497880000000  0.5588090000000 1.0
C      1  0.4897590000000  0.4615550000000  0.5670530000000 1.0
C      1  0.4858070000000  0.5240600000000  0.5730320000000 1.0
C      1  0.4899440000000  0.4396120000000  0.5473620000000 1.0
C      1  0.4863330000000  0.4421630000000  0.4576090000000 1.0
C      1  0.4916940000000  0.5268050000000  0.4300510000000 1.0
C      1  0.4859180000000  0.5756990000000  0.5025820000000 1.0
C      1  0.5114890000000  0.4803540000000  0.4328190000000 1.0
C      1  0.5114460000000  0.5583070000000  0.4628490000000 1.0
C      1  0.5079550000000  0.5587360000000  0.5450260000000 1.0
C      1  0.5109050000000  0.4794770000000  0.5706850000000 1.0
C      1  0.5111460000000  0.4280840000000  0.5002880000000 1.0
C      1  0.5343760000000  0.4704340000000  0.5573820000000 1.0
C      1  0.5345750000000  0.4341340000000  0.4839180000000 1.0
C      1  0.5357150000000  0.4946400000000  0.4433710000000 1.0
C      1  0.5325460000000  0.5569940000000  0.4816060000000 1.0
C      1  0.5323850000000  0.5450290000000  0.5502860000000 1.0
C      1  0.5530180000000  0.5485180000000  0.5292990000000 1.0
C      1  0.5527110000000  0.4915970000000  0.5514080000000 1.0
C      1  0.5586530000000  0.4438450000000  0.4970600000000 1.0
C      1  0.5583620000000  0.4751880000000  0.4449470000000 1.0
C      1  0.5698210000000  0.5289170000000  0.4606340000000 1.0
C      1  0.4577530000000  0.5198570000000  0.5673950000000 1.0
C      1  0.4613510000000  0.4419380000000  0.5453630000000 1.0
C      1  0.4583400000000  0.4493410000000  0.4614710000000 1.0
C      1  0.4635340000000  0.5284010000000  0.4349810000000 1.0
C      1  0.4578990000000  0.5683320000000  0.5032980000000 1.0
C      1  0.5763520000000  0.4656790000000  0.4896370000000 1.0
C      1  0.5785080000000  0.4801570000000  0.4652470000000 1.0
C      1  0.5852900000000  0.5077690000000  0.4714250000000 1.0
C      1  0.5864550000000  0.5114700000000  0.5000600000000 1.0
C      1  0.5799390000000  0.4857140000000  0.5103410000000 1.0
C      1  0.4778810000000  0.5113290000000  0.4819760000000 1.0
C      1  0.4892160000000  0.5284320000000  0.5023790000000 1.0
C      1  0.4924590000000  0.5138700000000  0.5251820000000 1.0
C      1  0.4822060000000  0.4874170000000  0.5198160000000 1.0
C      1  0.5019540000000  0.4972250000000  0.4790880000000 1.0
C      1  0.5478280000000  0.5316500000000  0.4832320000000 1.0
C      1  0.5613180000000  0.5258450000000  0.5106680000000 1.0
C      1  0.5546000000000  0.4970640000000  0.5222210000000 1.0
C      1  0.5332780000000  0.4881940000000  0.5036780000000 1.0
C      1  0.5312810000000  0.5032870000000  0.4778230000000 1.0
C      1  0.4398090000000  0.4514490000000  0.5043990000000 1.0
C      1  0.4418590000000  0.4952670000000  0.4470260000000 1.0
C      1  0.4395110000000  0.5423990000000  0.4760460000000 1.0
C      1  0.4395570000000  0.5326700000000  0.5312780000000 1.0
C      1  0.4407450000000  0.4795460000000  0.5479940000000 1.0
C      1  0.4402090000000  0.4721120000000  0.4620890000000 1.0
C      1  0.4417020000000  0.5238160000000  0.4549050000000 1.0
C      1  0.4397090000000  0.5448840000000  0.5058600000000 1.0
C      1  0.4393020000000  0.5076910000000  0.5481130000000 1.0
C      1  0.4401370000000  0.4547790000000  0.5317170000000 1.0
C      1  0.4624350000000  0.4985100000000  0.4275400000000 1.0
C      1  0.4587600000000  0.5643340000000  0.4732100000000 1.0
C      1  0.4573280000000  0.5456290000000  0.5514950000000 1.0
C      1  0.4619060000000  0.4668170000000  0.5639690000000 1.0
C      1  0.4585890000000  0.4362750000000  0.4882450000000 1.0
C      1  0.5565170000000  0.4443350000000  0.5242150000000 1.0
C      1  0.5545250000000  0.4485350000000  0.4390780000000 1.0
C      1  0.5633120000000  0.5359590000000  0.4350110000000 1.0
C      1  0.5561250000000  0.5752090000000  0.5208940000000 1.0
C      1  0.5580850000000  0.5099230000000  0.5717860000000 1.0
C      1  0.4386840000000  0.4765700000000  0.4903300000000 1.0
C      1  0.4619670000000  0.4916760000000  0.4980940000000 1.0
C      1  0.5054790000000  0.4809300000000  0.5044400000000 1.0
END
