TITL C-99200-7823-3 6.43372117907335 125000 -1114.73602737144 0 0 157 (C1) n - 1
REM
REM in /rds/project/t2_vol4/rds-t2-cs072/BORA/CARBON/from-Arr/AIRSS/Generating-Clusters/GAP-ML-2020/Higher-Symm/SD-CG/HFTN-CG
REM
REM
REM
REM
REM
REM ./C.cell (b20cbc046b6831c77cfcea5457e17084)
REM AIRSS Version 0.9.1 bugfix July 2018 build 013d7b7c2542+ Fri, 06 Jul 2018 19:26:36 +0100
REM compiler GCC version 9.3.0
REM options -cpp -mtune=generic -march=x86-64 -g -O0
REM seed 1886084947 -653738220 -1993276242 -768770546 1887876203 1965697889 -1601829062 1307452881 -542748996 -386383819 1549916642 1017749134 1098624998 686753389 941270409 -201123445 -1788756443 225647875 -2001007447 -1900869955 -974111987 -1501292515 -553949682 -1005203575 -1673727925 1576863683 487854889 -1018981637 1394350034 -746095912 -870470884 1475345600 -1144083048
REM
CELL 1.54180   50.00000   50.00000   50.00000   90.00000   90.00000   90.00000
LATT -1
SFAC C  
C      1  0.4787750000000  0.4883980000000  0.5179350000000 1.0
C      1  0.4978200000000  0.4679690000000  0.5336170000000 1.0
C      1  0.5236740000000  0.4797780000000  0.5210490000000 1.0
C      1  0.5315030000000  0.5079560000000  0.5321050000000 1.0
C      1  0.5065690000000  0.5288180000000  0.5278870000000 1.0
C      1  0.4768550000000  0.5162100000000  0.5276450000000 1.0
C      1  0.4748130000000  0.4857330000000  0.4674810000000 1.0
C      1  0.4987160000000  0.4711340000000  0.4781620000000 1.0
C      1  0.5251890000000  0.4804350000000  0.4644800000000 1.0
C      1  0.5251790000000  0.5073570000000  0.4800840000000 1.0
C      1  0.5068690000000  0.5299090000000  0.4701370000000 1.0
C      1  0.4771990000000  0.5182900000000  0.4713840000000 1.0
C      1  0.4760210000000  0.4353750000000  0.4151650000000 1.0
C      1  0.5482690000000  0.4420890000000  0.4371260000000 1.0
C      1  0.5703690000000  0.5120200000000  0.4418160000000 1.0
C      1  0.5236380000000  0.5659170000000  0.4245490000000 1.0
C      1  0.4518570000000  0.5567730000000  0.4395550000000 1.0
C      1  0.4283960000000  0.4877470000000  0.4364370000000 1.0
C      1  0.4742240000000  0.4290470000000  0.5610850000000 1.0
C      1  0.5431640000000  0.4439160000000  0.5797610000000 1.0
C      1  0.5682020000000  0.5112700000000  0.5787700000000 1.0
C      1  0.5253110000000  0.5696220000000  0.5614690000000 1.0
C      1  0.4537100000000  0.5562050000000  0.5591390000000 1.0
C      1  0.4299220000000  0.4885550000000  0.5766640000000 1.0
C      1  0.5445930000000  0.4624570000000  0.4790680000000 1.0
C      1  0.5522070000000  0.5150890000000  0.4899610000000 1.0
C      1  0.5132650000000  0.5555660000000  0.4863000000000 1.0
C      1  0.4578150000000  0.5350250000000  0.4858260000000 1.0
C      1  0.4496510000000  0.4790050000000  0.4800330000000 1.0
C      1  0.4929830000000  0.4443600000000  0.4900060000000 1.0
C      1  0.5436270000000  0.4616890000000  0.5070650000000 1.0
C      1  0.5561840000000  0.5161290000000  0.5174280000000 1.0
C      1  0.5128740000000  0.5538690000000  0.5140220000000 1.0
C      1  0.4580900000000  0.5345250000000  0.5133790000000 1.0
C      1  0.4516920000000  0.4776200000000  0.5075330000000 1.0
C      1  0.4919520000000  0.4426930000000  0.5182620000000 1.0
C      1  0.5457810000000  0.5909780000000  0.5191170000000 1.0
C      1  0.4447020000000  0.5826680000000  0.5140310000000 1.0
C      1  0.4050590000000  0.4915490000000  0.5091290000000 1.0
C      1  0.4564360000000  0.4049470000000  0.5184110000000 1.0
C      1  0.5553970000000  0.4147780000000  0.5100860000000 1.0
C      1  0.6025110000000  0.5063600000000  0.5120120000000 1.0
C      1  0.5448440000000  0.5916490000000  0.4906200000000 1.0
C      1  0.4445340000000  0.5826150000000  0.4850460000000 1.0
C      1  0.4015750000000  0.4917910000000  0.4807530000000 1.0
C      1  0.4582990000000  0.3995490000000  0.4899880000000 1.0
C      1  0.5528670000000  0.4127540000000  0.4811950000000 1.0
C      1  0.6009890000000  0.5052080000000  0.4835370000000 1.0
C      1  0.3955920000000  0.5389690000000  0.5134420000000 1.0
C      1  0.4129490000000  0.4266970000000  0.5102200000000 1.0
C      1  0.5166620000000  0.3854510000000  0.5161520000000 1.0
C      1  0.6055950000000  0.4574310000000  0.5131460000000 1.0
C      1  0.5909500000000  0.5711770000000  0.5155550000000 1.0
C      1  0.4837280000000  0.6138160000000  0.5134300000000 1.0
C      1  0.3941100000000  0.5406160000000  0.4859190000000 1.0
C      1  0.4172850000000  0.4267190000000  0.4828340000000 1.0
C      1  0.5101520000000  0.3869120000000  0.4891040000000 1.0
C      1  0.6063840000000  0.4556710000000  0.4854920000000 1.0
C      1  0.5888740000000  0.5702440000000  0.4878840000000 1.0
C      1  0.4831030000000  0.6139710000000  0.4860880000000 1.0
C      1  0.4747800000000  0.4866960000000  0.5743440000000 1.0
C      1  0.4980630000000  0.4697470000000  0.5658080000000 1.0
C      1  0.5225260000000  0.4856250000000  0.5775060000000 1.0
C      1  0.5261430000000  0.5115210000000  0.5621660000000 1.0
C      1  0.5021620000000  0.5287320000000  0.5583270000000 1.0
C      1  0.4757620000000  0.5142680000000  0.5584280000000 1.0
C      1  0.4759250000000  0.4863170000000  0.4373310000000 1.0
C      1  0.4997260000000  0.4733610000000  0.4211750000000 1.0
C      1  0.5254970000000  0.4840060000000  0.4320680000000 1.0
C      1  0.5248650000000  0.5136790000000  0.4231490000000 1.0
C      1  0.5028180000000  0.5286990000000  0.4388640000000 1.0
C      1  0.4758310000000  0.5162290000000  0.4404960000000 1.0
C      1  0.5107900000000  0.5174590000000  0.3952610000000 1.0
C      1  0.4892870000000  0.5360250000000  0.3995280000000 1.0
C      1  0.4638330000000  0.5225350000000  0.4026490000000 1.0
C      1  0.4632720000000  0.4934800000000  0.3992930000000 1.0
C      1  0.4900220000000  0.4848060000000  0.3939910000000 1.0
C      1  0.5053410000000  0.4988240000000  0.3759520000000 1.0
C      1  0.5231200000000  0.5269630000000  0.6013180000000 1.0
C      1  0.4991420000000  0.5423500000000  0.5962970000000 1.0
C      1  0.4736250000000  0.5283110000000  0.5972750000000 1.0
C      1  0.4782800000000  0.5006250000000  0.6022070000000 1.0
C      1  0.4958350000000  0.4938110000000  0.6224000000000 1.0
C      1  0.5164810000000  0.4990920000000  0.6051000000000 1.0
C      1  0.4501720000000  0.4430960000000  0.5647220000000 1.0
C      1  0.5231410000000  0.4280220000000  0.5707270000000 1.0
C      1  0.5718390000000  0.4855560000000  0.5695450000000 1.0
C      1  0.5486420000000  0.5558410000000  0.5677980000000 1.0
C      1  0.4760910000000  0.5713950000000  0.5640680000000 1.0
C      1  0.4291690000000  0.5146420000000  0.5698390000000 1.0
C      1  0.4535260000000  0.4457190000000  0.4259920000000 1.0
C      1  0.5233190000000  0.4303620000000  0.4324250000000 1.0
C      1  0.5730670000000  0.4844410000000  0.4354270000000 1.0
C      1  0.5473620000000  0.5556090000000  0.4334080000000 1.0
C      1  0.4753090000000  0.5703160000000  0.4339040000000 1.0
C      1  0.4259780000000  0.5151890000000  0.4331740000000 1.0
C      1  0.5841990000000  0.5237090000000  0.5258610000000 1.0
C      1  0.5215750000000  0.5813750000000  0.5333980000000 1.0
C      1  0.4411130000000  0.5572410000000  0.5306730000000 1.0
C      1  0.4248260000000  0.4740560000000  0.5200320000000 1.0
C      1  0.4799080000000  0.4159040000000  0.5339990000000 1.0
C      1  0.5609520000000  0.4412440000000  0.5202410000000 1.0
C      1  0.5785010000000  0.5209000000000  0.4701710000000 1.0
C      1  0.5203930000000  0.5842880000000  0.4772610000000 1.0
C      1  0.4399520000000  0.5577630000000  0.4683300000000 1.0
C      1  0.4214500000000  0.4761480000000  0.4640110000000 1.0
C      1  0.4918240000000  0.4215820000000  0.4698260000000 1.0
C      1  0.5604870000000  0.4374920000000  0.4650650000000 1.0
C      1  0.4063990000000  0.5280870000000  0.4479660000000 1.0
C      1  0.4393470000000  0.4326250000000  0.4478260000000 1.0
C      1  0.5148220000000  0.4141270000000  0.4533100000000 1.0
C      1  0.5929050000000  0.4705010000000  0.4489700000000 1.0
C      1  0.5659630000000  0.5657720000000  0.4525220000000 1.0
C      1  0.4790210000000  0.5921240000000  0.4505570000000 1.0
C      1  0.4110990000000  0.5238530000000  0.5499540000000 1.0
C      1  0.4299820000000  0.4337840000000  0.5481870000000 1.0
C      1  0.5249470000000  0.4062820000000  0.5519790000000 1.0
C      1  0.5888030000000  0.4739920000000  0.5490330000000 1.0
C      1  0.5703210000000  0.5635840000000  0.5520020000000 1.0
C      1  0.4773680000000  0.5944770000000  0.5491190000000 1.0
C      1  0.4844970000000  0.3962400000000  0.4812990000000 1.0
C      1  0.5886580000000  0.4461560000000  0.4638400000000 1.0
C      1  0.5844140000000  0.5498030000000  0.4670130000000 1.0
C      1  0.5014330000000  0.6020260000000  0.4662520000000 1.0
C      1  0.4114270000000  0.5508300000000  0.4647690000000 1.0
C      1  0.4183570000000  0.4468560000000  0.4615510000000 1.0
C      1  0.5015050000000  0.3966150000000  0.5386160000000 1.0
C      1  0.5850020000000  0.4494990000000  0.5329970000000 1.0
C      1  0.5896400000000  0.5493160000000  0.5355510000000 1.0
C      1  0.5006250000000  0.6023220000000  0.5347200000000 1.0
C      1  0.4133140000000  0.5483360000000  0.5350330000000 1.0
C      1  0.4143280000000  0.4491400000000  0.5293390000000 1.0
C      1  0.3974810000000  0.5130950000000  0.5259550000000 1.0
C      1  0.4317740000000  0.4134390000000  0.5278470000000 1.0
C      1  0.5396770000000  0.3986240000000  0.5272680000000 1.0
C      1  0.6064700000000  0.4826930000000  0.5270220000000 1.0
C      1  0.5697340000000  0.5834800000000  0.5310760000000 1.0
C      1  0.4608340000000  0.6014360000000  0.5266020000000 1.0
C      1  0.3928040000000  0.5159710000000  0.4703020000000 1.0
C      1  0.4405200000000  0.4136090000000  0.4714070000000 1.0
C      1  0.5302720000000  0.3992960000000  0.4719330000000 1.0
C      1  0.6075930000000  0.4812570000000  0.4713820000000 1.0
C      1  0.5671640000000  0.5845040000000  0.4751450000000 1.0
C      1  0.4617530000000  0.6005070000000  0.4721290000000 1.0
C      1  0.4980320000000  0.5543370000000  0.4217950000000 1.0
C      1  0.4503700000000  0.5303030000000  0.4272370000000 1.0
C      1  0.4513830000000  0.4766880000000  0.4226000000000 1.0
C      1  0.5011040000000  0.4441350000000  0.4196300000000 1.0
C      1  0.5508100000000  0.4687600000000  0.4277020000000 1.0
C      1  0.5502420000000  0.5270000000000  0.4293370000000 1.0
C      1  0.5009220000000  0.5578080000000  0.5719310000000 1.0
C      1  0.4549250000000  0.5307380000000  0.5731010000000 1.0
C      1  0.4498310000000  0.4708500000000  0.5735990000000 1.0
C      1  0.4973010000000  0.4405230000000  0.5719390000000 1.0
C      1  0.5476300000000  0.4702120000000  0.5773890000000 1.0
C      1  0.5452380000000  0.5281590000000  0.5802320000000 1.0
C      1  0.5059620000000  0.4895860000000  0.4994900000000 1.0
END
