TITL C-99204-7685-4 0.00529652668268032 125000 -46.9048078349008 0 0 8 (C1) n - 1
REM
REM in /rds/project/t2_vol4/rds-t2-cs072/BORA/CARBON/from-Arr/AIRSS/Generating-Clusters/GAP-ML-2020/Higher-Symm/SD-CG/HFTN-CG
REM
REM
REM
REM
REM
REM ./C.cell (b20cbc046b6831c77cfcea5457e17084)
REM AIRSS Version 0.9.1 bugfix July 2018 build 013d7b7c2542+ Fri, 06 Jul 2018 19:26:36 +0100
REM compiler GCC version 9.3.0
REM options -cpp -mtune=generic -march=x86-64 -g -O0
REM seed -773006726 564127064 -854054578 215064870 -845967554 840580173 -729435913 -110988709 1837404333 -1544298801 1937255338 -1475742995 -1535510988 2073394629 -1704885631 2043562979 951513723 -940631609 792276725 -2008227643 -255848492 1121415084 1657934973 -1488037019 123035001 -1552594727 -2043698735 644187613 -1828099267 238974122 -125930290 -1119766200 777430397
REM
CELL 1.54180   50.00000   50.00000   50.00000   90.00000   90.00000   90.00000
LATT -1
SFAC C  
C      1  0.5024530000000  0.5482470000000  0.5028360000000 1.0
C      1  0.5082510000000  0.4716110000000  0.5188930000000 1.0
C      1  0.5082920000000  0.4673440000000  0.4662660000000 1.0
C      1  0.4966470000000  0.5291230000000  0.4872100000000 1.0
C      1  0.5029570000000  0.4753690000000  0.5435040000000 1.0
C      1  0.4951680000000  0.4877860000000  0.4544070000000 1.0
C      1  0.5077370000000  0.4792300000000  0.4927860000000 1.0
C      1  0.4961580000000  0.5030120000000  0.4793130000000 1.0
END
