TITL C-99199-7002-9 74.7795258218346 125000 -467.003017828846 0 0 70 (C1) n - 1
REM
REM in /rds/project/t2_vol4/rds-t2-cs072/BORA/CARBON/from-Arr/AIRSS/Generating-Clusters/GAP-ML-2020/Higher-Symm/SD-CG/HFTN-CG
REM
REM
REM
REM
REM
REM ./C.cell (b20cbc046b6831c77cfcea5457e17084)
REM AIRSS Version 0.9.1 bugfix July 2018 build 013d7b7c2542+ Fri, 06 Jul 2018 19:26:36 +0100
REM compiler GCC version 9.3.0
REM options -cpp -mtune=generic -march=x86-64 -g -O0
REM seed -1001812262 1798634722 -289470772 2092734386 -1367069848 1106458721 603726178 -1284370287 1294163263 -734625957 -307093261 2033935908 -1959094814 1691987032 -2024878535 329522662 -1661617309 -32000059 1922079248 346577085 1286887801 -463329919 -1017231750 1698970437 -739148428 195032479 887165628 -547042730 -1162124514 1656583593 -1926262593 1800132884 -1149299489
REM
CELL 1.54180   50.00000   50.00000   50.00000   90.00000   90.00000   90.00000
LATT -1
SFAC C  
C      1  0.4169570000000  0.4690660000000  0.4938730000000 1.0
C      1  0.4163070000000  0.4780660000000  0.5202900000000 1.0
C      1  0.4182700000000  0.5038660000000  0.5307320000000 1.0
C      1  0.4194810000000  0.5280360000000  0.5172170000000 1.0
C      1  0.4188100000000  0.5322590000000  0.4897540000000 1.0
C      1  0.4177480000000  0.5127180000000  0.4697640000000 1.0
C      1  0.4178660000000  0.4848750000000  0.4711250000000 1.0
C      1  0.4764460000000  0.4728000000000  0.5603160000000 1.0
C      1  0.4800160000000  0.5321610000000  0.5573860000000 1.0
C      1  0.4831070000000  0.5635530000000  0.5086660000000 1.0
C      1  0.4829600000000  0.5448950000000  0.4536890000000 1.0
C      1  0.4787000000000  0.4980340000000  0.4332950000000 1.0
C      1  0.4803850000000  0.4456480000000  0.4633410000000 1.0
C      1  0.4800420000000  0.4394680000000  0.5213780000000 1.0
C      1  0.5086320000000  0.4361520000000  0.5276100000000 1.0
C      1  0.5017190000000  0.4650610000000  0.5679290000000 1.0
C      1  0.5085040000000  0.5351270000000  0.5626490000000 1.0
C      1  0.5108020000000  0.5705010000000  0.5085760000000 1.0
C      1  0.5110450000000  0.5451130000000  0.4472050000000 1.0
C      1  0.5045270000000  0.5013520000000  0.4235900000000 1.0
C      1  0.5089810000000  0.4405830000000  0.4607020000000 1.0
C      1  0.5296870000000  0.5573630000000  0.5272450000000 1.0
C      1  0.5299220000000  0.5533370000000  0.4686630000000 1.0
C      1  0.5392930000000  0.5075860000000  0.4415770000000 1.0
C      1  0.5225450000000  0.4676210000000  0.4568660000000 1.0
C      1  0.5284080000000  0.4382760000000  0.5048910000000 1.0
C      1  0.5391520000000  0.4660500000000  0.5528260000000 1.0
C      1  0.5219310000000  0.5092340000000  0.5539220000000 1.0
C      1  0.4728640000000  0.4746630000000  0.4534620000000 1.0
C      1  0.4721310000000  0.4489680000000  0.4928020000000 1.0
C      1  0.4649130000000  0.4571270000000  0.5386260000000 1.0
C      1  0.4721150000000  0.5026900000000  0.5529500000000 1.0
C      1  0.4735760000000  0.5427750000000  0.5291650000000 1.0
C      1  0.4749090000000  0.5486370000000  0.4828450000000 1.0
C      1  0.4675510000000  0.5215870000000  0.4453620000000 1.0
C      1  0.5196320000000  0.4275010000000  0.4817290000000 1.0
C      1  0.5175660000000  0.4462920000000  0.5521390000000 1.0
C      1  0.5234590000000  0.4842080000000  0.5688700000000 1.0
C      1  0.5210350000000  0.5571810000000  0.5535810000000 1.0
C      1  0.5205560000000  0.5736770000000  0.4835120000000 1.0
C      1  0.5199460000000  0.5254910000000  0.4292640000000 1.0
C      1  0.5252800000000  0.4839250000000  0.4333110000000 1.0
C      1  0.5471040000000  0.4631470000000  0.5025910000000 1.0
C      1  0.5489140000000  0.4788830000000  0.5287660000000 1.0
C      1  0.5458290000000  0.5098340000000  0.5338880000000 1.0
C      1  0.5463440000000  0.5342330000000  0.5151720000000 1.0
C      1  0.5472270000000  0.5320600000000  0.4837760000000 1.0
C      1  0.5367360000000  0.5074160000000  0.4720220000000 1.0
C      1  0.5450860000000  0.4786100000000  0.4762630000000 1.0
C      1  0.4948820000000  0.5260570000000  0.4906110000000 1.0
C      1  0.5079070000000  0.5087880000000  0.4743750000000 1.0
C      1  0.4977810000000  0.4829110000000  0.4713280000000 1.0
C      1  0.4907950000000  0.4733270000000  0.4963470000000 1.0
C      1  0.5038120000000  0.4794110000000  0.5187410000000 1.0
C      1  0.4987240000000  0.5020640000000  0.5332470000000 1.0
C      1  0.4944830000000  0.5243780000000  0.5173150000000 1.0
C      1  0.4488590000000  0.4670080000000  0.4944090000000 1.0
C      1  0.4469810000000  0.4744140000000  0.5231940000000 1.0
C      1  0.4492920000000  0.5022470000000  0.5335900000000 1.0
C      1  0.4509920000000  0.5276450000000  0.5178650000000 1.0
C      1  0.4502880000000  0.5331870000000  0.4884210000000 1.0
C      1  0.4485420000000  0.5134910000000  0.4662380000000 1.0
C      1  0.4492230000000  0.4836540000000  0.4695450000000 1.0
C      1  0.5755910000000  0.4811850000000  0.4750170000000 1.0
C      1  0.5775750000000  0.4681080000000  0.5001670000000 1.0
C      1  0.5796340000000  0.4824200000000  0.5240680000000 1.0
C      1  0.5776170000000  0.5093030000000  0.5311310000000 1.0
C      1  0.5767930000000  0.5301500000000  0.5127820000000 1.0
C      1  0.5773790000000  0.5270970000000  0.4844790000000 1.0
C      1  0.5878360000000  0.5054460000000  0.4719560000000 1.0
END
