TITL C-99203-8233-3 0.245345803819304 125000 -663.949992304251 0 0 98 (C1) n - 1
REM
REM in /rds/project/t2_vol4/rds-t2-cs072/BORA/CARBON/from-Arr/AIRSS/Generating-Clusters/GAP-ML-2020/Higher-Symm/SD-CG/HFTN-CG
REM
REM
REM
REM
REM
REM ./C.cell (b20cbc046b6831c77cfcea5457e17084)
REM AIRSS Version 0.9.1 bugfix July 2018 build 013d7b7c2542+ Fri, 06 Jul 2018 19:26:36 +0100
REM compiler GCC version 9.3.0
REM options -cpp -mtune=generic -march=x86-64 -g -O0
REM seed -915876823 -126960413 957455489 -1591839449 2122982981 346518626 2114239716 -701403164 828185099 2076545817 1328339796 -591214669 441600906 -1302911768 1055645267 -1784940099 -670610087 -2078911119 -700308458 1786505747 -592997009 -1459473106 1460716157 1508770448 -2020273390 -746635521 560117358 1533075693 -1927370051 675391153 -962491733 1703685828 -1655078809
REM
CELL 1.54180   50.00000   50.00000   50.00000   90.00000   90.00000   90.00000
LATT -1
SFAC C  
C      1  0.5572000000000  0.5430690000000  0.5175220000000 1.0
C      1  0.5582090000000  0.4972430000000  0.5271420000000 1.0
C      1  0.5558990000000  0.4543760000000  0.5131290000000 1.0
C      1  0.5571220000000  0.4811760000000  0.4761950000000 1.0
C      1  0.5579140000000  0.5237470000000  0.4801210000000 1.0
C      1  0.4404950000000  0.4735420000000  0.5157910000000 1.0
C      1  0.4422730000000  0.5004140000000  0.5480690000000 1.0
C      1  0.4401020000000  0.5262040000000  0.5083340000000 1.0
C      1  0.4405420000000  0.5224280000000  0.4615160000000 1.0
C      1  0.4413280000000  0.4830500000000  0.4746620000000 1.0
C      1  0.5145080000000  0.4316550000000  0.4920810000000 1.0
C      1  0.5264700000000  0.4750800000000  0.4360750000000 1.0
C      1  0.5196790000000  0.5595970000000  0.4642010000000 1.0
C      1  0.5223450000000  0.5617430000000  0.5388650000000 1.0
C      1  0.5330020000000  0.4869780000000  0.5656820000000 1.0
C      1  0.4696830000000  0.5686500000000  0.5039550000000 1.0
C      1  0.4817850000000  0.5152380000000  0.4308580000000 1.0
C      1  0.4718980000000  0.4478090000000  0.4556570000000 1.0
C      1  0.4679070000000  0.4422040000000  0.5355660000000 1.0
C      1  0.4809630000000  0.5260640000000  0.5639810000000 1.0
C      1  0.5552780000000  0.4330840000000  0.4699530000000 1.0
C      1  0.5633890000000  0.5046010000000  0.4321660000000 1.0
C      1  0.5564580000000  0.5747230000000  0.4861590000000 1.0
C      1  0.5594970000000  0.5394570000000  0.5567750000000 1.0
C      1  0.5477650000000  0.4623120000000  0.5599160000000 1.0
C      1  0.4366640000000  0.5621000000000  0.4743300000000 1.0
C      1  0.4429590000000  0.4905110000000  0.4257780000000 1.0
C      1  0.4342150000000  0.4341800000000  0.4819150000000 1.0
C      1  0.4533470000000  0.4548090000000  0.5581440000000 1.0
C      1  0.4400890000000  0.5461670000000  0.5531890000000 1.0
C      1  0.4788980000000  0.4080210000000  0.4814370000000 1.0
C      1  0.4905000000000  0.4792790000000  0.4048080000000 1.0
C      1  0.4841140000000  0.5783500000000  0.4562210000000 1.0
C      1  0.4842870000000  0.5721940000000  0.5646890000000 1.0
C      1  0.4943910000000  0.4688850000000  0.5860120000000 1.0
C      1  0.5069200000000  0.5958260000000  0.4914730000000 1.0
C      1  0.5167890000000  0.5161410000000  0.4104550000000 1.0
C      1  0.5080480000000  0.4175980000000  0.4507070000000 1.0
C      1  0.5045550000000  0.4268810000000  0.5558180000000 1.0
C      1  0.5164410000000  0.5464770000000  0.5839980000000 1.0
C      1  0.5023320000000  0.5595980000000  0.4411410000000 1.0
C      1  0.4992250000000  0.5778820000000  0.5400460000000 1.0
C      1  0.5117220000000  0.4928090000000  0.5844810000000 1.0
C      1  0.4943680000000  0.4155870000000  0.5050550000000 1.0
C      1  0.5046410000000  0.4617630000000  0.4234550000000 1.0
C      1  0.4939060000000  0.4404650000000  0.4392010000000 1.0
C      1  0.4879070000000  0.4217830000000  0.5331770000000 1.0
C      1  0.5029520000000  0.5204490000000  0.5822840000000 1.0
C      1  0.4904940000000  0.5853430000000  0.5137100000000 1.0
C      1  0.4999550000000  0.5367470000000  0.4240480000000 1.0
C      1  0.5305250000000  0.4405050000000  0.5649950000000 1.0
C      1  0.5306210000000  0.4216860000000  0.4697900000000 1.0
C      1  0.5376710000000  0.4983840000000  0.4231960000000 1.0
C      1  0.5318460000000  0.5823770000000  0.4783700000000 1.0
C      1  0.5362710000000  0.5529450000000  0.5624620000000 1.0
C      1  0.4637470000000  0.5502130000000  0.5658870000000 1.0
C      1  0.4616990000000  0.5722280000000  0.4763260000000 1.0
C      1  0.4668600000000  0.4959890000000  0.4139160000000 1.0
C      1  0.4585000000000  0.4272400000000  0.4703710000000 1.0
C      1  0.4678470000000  0.4645480000000  0.5790450000000 1.0
C      1  0.4294960000000  0.5376280000000  0.4827730000000 1.0
C      1  0.4318790000000  0.5252540000000  0.5378090000000 1.0
C      1  0.4355930000000  0.4734820000000  0.5445300000000 1.0
C      1  0.4299860000000  0.4590600000000  0.4905140000000 1.0
C      1  0.4331290000000  0.4975420000000  0.4500310000000 1.0
C      1  0.5643720000000  0.4534100000000  0.4856580000000 1.0
C      1  0.5633380000000  0.4689950000000  0.5357010000000 1.0
C      1  0.5677930000000  0.5245510000000  0.5359030000000 1.0
C      1  0.5664490000000  0.5501130000000  0.4921860000000 1.0
C      1  0.5679920000000  0.5037810000000  0.4581510000000 1.0
C      1  0.4863590000000  0.4746280000000  0.4934440000000 1.0
C      1  0.4855990000000  0.5002650000000  0.4552580000000 1.0
C      1  0.4843620000000  0.5288720000000  0.4891220000000 1.0
C      1  0.4847000000000  0.5246500000000  0.5338710000000 1.0
C      1  0.4853170000000  0.4774750000000  0.5369600000000 1.0
C      1  0.5127630000000  0.5444950000000  0.4881120000000 1.0
C      1  0.5140030000000  0.5028680000000  0.4703620000000 1.0
C      1  0.5126940000000  0.4606770000000  0.4878280000000 1.0
C      1  0.5140120000000  0.4733430000000  0.5330420000000 1.0
C      1  0.5119550000000  0.5165250000000  0.5232710000000 1.0
C      1  0.5284110000000  0.4772400000000  0.4667320000000 1.0
C      1  0.5303450000000  0.5268730000000  0.4721420000000 1.0
C      1  0.5260930000000  0.5425910000000  0.5157910000000 1.0
C      1  0.5297690000000  0.4976030000000  0.5374130000000 1.0
C      1  0.5271210000000  0.4580830000000  0.5123470000000 1.0
C      1  0.4693530000000  0.5220170000000  0.4651770000000 1.0
C      1  0.4708910000000  0.4760120000000  0.4676880000000 1.0
C      1  0.4691360000000  0.4650380000000  0.5161900000000 1.0
C      1  0.4711600000000  0.5016800000000  0.5453950000000 1.0
C      1  0.4683400000000  0.5383540000000  0.5115700000000 1.0
C      1  0.5054670000000  0.4433220000000  0.5779230000000 1.0
C      1  0.4924540000000  0.3970660000000  0.4600110000000 1.0
C      1  0.5056460000000  0.4983350000000  0.3914620000000 1.0
C      1  0.5002450000000  0.5686590000000  0.5869730000000 1.0
C      1  0.4939260000000  0.6023030000000  0.4676770000000 1.0
C      1  0.4406800000000  0.4984760000000  0.5000210000000 1.0
C      1  0.5577170000000  0.5003360000000  0.4981940000000 1.0
C      1  0.4992050000000  0.5037890000000  0.4967550000000 1.0
END
