TITL C-99216-9529-10 0.000274857084562926 125000 -135.627157233667 0 0 20 (Ih) n - 1
REM
REM in /rds/project/t2_vol4/rds-t2-cs072/BORA/CARBON/from-Arr/AIRSS/Generating-Clusters/GAP-ML-2020/Higher-Symm/SD-CG/HFTN-CG
REM
REM
REM
REM
REM
REM ./C.cell (b20cbc046b6831c77cfcea5457e17084)
REM AIRSS Version 0.9.1 bugfix July 2018 build 013d7b7c2542+ Fri, 06 Jul 2018 19:26:36 +0100
REM compiler GCC version 9.3.0
REM options -cpp -mtune=generic -march=x86-64 -g -O0
REM seed 1607066057 751349575 446515846 -582369273 1860993484 1695695488 488622252 -898035008 1675452922 -457531715 761809988 1517747047 761624830 -1033142450 1889921064 -1745259186 -2113810596 96470669 669828031 -489789056 320865550 367526068 1833597511 -362279436 1957538695 121286816 -2022378720 89836679 1802709080 -364606569 1689273668 -1285534963 142116711
REM
CELL 1.54180   50.00000   50.00000   50.00000   90.00000   90.00000   90.00000
LATT -1
SFAC C  
C      1  0.4866590000000  0.5374210000000  0.5003970000000 1.0
C      1  0.5012970000000  0.4844640000000  0.5387180000000 1.0
C      1  0.5159340000000  0.4607810000000  0.5003970000000 1.0
C      1  0.4866600000000  0.4607810000000  0.5003970000000 1.0
C      1  0.5159330000000  0.5374210000000  0.5003970000000 1.0
C      1  0.4629760000000  0.4991010000000  0.4857600000000 1.0
C      1  0.4629760000000  0.4991010000000  0.5150340000000 1.0
C      1  0.5012960000000  0.5137380000000  0.4620770000000 1.0
C      1  0.5396170000000  0.4991010000000  0.5150340000000 1.0
C      1  0.5396170000000  0.4991010000000  0.4857600000000 1.0
C      1  0.5012970000000  0.5137380000000  0.5387180000000 1.0
C      1  0.5012970000000  0.4844640000000  0.4620770000000 1.0
C      1  0.4776130000000  0.5227840000000  0.5240810000000 1.0
C      1  0.5249800000000  0.4754180000000  0.5240810000000 1.0
C      1  0.5249800000000  0.5227840000000  0.4767140000000 1.0
C      1  0.4776130000000  0.5227840000000  0.4767140000000 1.0
C      1  0.5249800000000  0.4754180000000  0.4767140000000 1.0
C      1  0.4776140000000  0.4754180000000  0.5240810000000 1.0
C      1  0.4776130000000  0.4754180000000  0.4767140000000 1.0
C      1  0.5249800000000  0.5227840000000  0.5240800000000 1.0
END
