TITL C-99215-1436-2 -0.0347328957429897 125000 -73.9212657789949 0 0 12 (C1) n - 1
REM
REM in /rds/project/t2_vol4/rds-t2-cs072/BORA/CARBON/from-Arr/AIRSS/Generating-Clusters/GAP-ML-2020/Higher-Symm/SD-CG/HFTN-CG
REM
REM
REM
REM
REM
REM ./C.cell (b20cbc046b6831c77cfcea5457e17084)
REM AIRSS Version 0.9.1 bugfix July 2018 build 013d7b7c2542+ Fri, 06 Jul 2018 19:26:36 +0100
REM compiler GCC version 9.3.0
REM options -cpp -mtune=generic -march=x86-64 -g -O0
REM seed -46807245 -1883870286 1799539328 2067846584 1087186575 1601909040 -435777525 -142965198 1471942143 -1341450616 -802218245 -752871841 -26121798 1120702134 -132368494 -880357271 1427964236 272871400 -305532763 337003205 1098160203 257651275 -1342858013 428360239 -1179085417 -1489943894 1941310587 -1079309195 -1106692319 1930448734 -559253703 -1906575809 -406086290
REM
CELL 1.54180   50.00000   50.00000   50.00000   90.00000   90.00000   90.00000
LATT -1
SFAC C  
C      1  0.4615780000000  0.5145910000000  0.4696130000000 1.0
C      1  0.4482500000000  0.5200910000000  0.4921160000000 1.0
C      1  0.4551910000000  0.5254250000000  0.5193120000000 1.0
C      1  0.4574170000000  0.4978630000000  0.5289700000000 1.0
C      1  0.4786000000000  0.4816920000000  0.5190310000000 1.0
C      1  0.4727010000000  0.4708780000000  0.4925000000000 1.0
C      1  0.4789890000000  0.4954480000000  0.4797500000000 1.0
C      1  0.5519350000000  0.4975900000000  0.5003850000000 1.0
C      1  0.4999130000000  0.4948300000000  0.5021330000000 1.0
C      1  0.4345030000000  0.5041730000000  0.5117230000000 1.0
C      1  0.5265020000000  0.4962760000000  0.5015240000000 1.0
C      1  0.5758930000000  0.4882810000000  0.4971640000000 1.0
END
