TITL C-99197-6982-3 -315.282783896207 125000 -977.565536816131 0 0 138 (C1) n - 1
REM
REM in /rds/project/t2_vol4/rds-t2-cs072/BORA/CARBON/from-Arr/AIRSS/Generating-Clusters/GAP-ML-2020/Higher-Symm/SD-CG/HFTN-CG
REM
REM
REM
REM
REM
REM ./C.cell (b20cbc046b6831c77cfcea5457e17084)
REM AIRSS Version 0.9.1 bugfix July 2018 build 013d7b7c2542+ Fri, 06 Jul 2018 19:26:36 +0100
REM compiler GCC version 9.3.0
REM options -cpp -mtune=generic -march=x86-64 -g -O0
REM seed -995978917 -1159845382 -436942499 -427359696 385823479 -665005557 -334377004 -1190448849 1094463530 871559438 -1628931648 -1624525850 -627426388 1803604863 472607596 904494149 1015508657 -2075318466 102986273 1274058382 -891917423 -197912918 -42727035 -1693073709 -1498205020 -313738339 1834044562 973696727 1913417830 1358125142 1086324761 -572839105 954535055
REM
CELL 1.54180   50.00000   50.00000   50.00000   90.00000   90.00000   90.00000
LATT -1
SFAC C  
C      1  0.4884620000000  0.5970180000000  0.4999410000000 1.0
C      1  0.5708280000000  0.5752930000000  0.5003750000000 1.0
C      1  0.5961350000000  0.4938920000000  0.5002200000000 1.0
C      1  0.5519350000000  0.4211520000000  0.4989480000000 1.0
C      1  0.4696400000000  0.4034210000000  0.5007810000000 1.0
C      1  0.4080580000000  0.4618520000000  0.4998280000000 1.0
C      1  0.4195540000000  0.5488210000000  0.5004330000000 1.0
C      1  0.5050920000000  0.5905650000000  0.5425760000000 1.0
C      1  0.5747170000000  0.5560730000000  0.5434640000000 1.0
C      1  0.5852990000000  0.4787480000000  0.5423670000000 1.0
C      1  0.5350070000000  0.4199150000000  0.5422010000000 1.0
C      1  0.4571130000000  0.4178800000000  0.5427640000000 1.0
C      1  0.4107180000000  0.4820330000000  0.5430480000000 1.0
C      1  0.4341020000000  0.5570450000000  0.5426390000000 1.0
C      1  0.4478070000000  0.4231330000000  0.4518710000000 1.0
C      1  0.4311410000000  0.4925080000000  0.4572510000000 1.0
C      1  0.4462870000000  0.5641560000000  0.4526740000000 1.0
C      1  0.5177410000000  0.5864380000000  0.4522660000000 1.0
C      1  0.5811330000000  0.5464480000000  0.4529440000000 1.0
C      1  0.5631780000000  0.4769880000000  0.4575240000000 1.0
C      1  0.5218020000000  0.4147970000000  0.4524750000000 1.0
C      1  0.4633100000000  0.4785600000000  0.5477140000000 1.0
C      1  0.4643450000000  0.5090140000000  0.5483680000000 1.0
C      1  0.4980440000000  0.5407600000000  0.5502270000000 1.0
C      1  0.5282250000000  0.5396100000000  0.5487900000000 1.0
C      1  0.5385000000000  0.5108470000000  0.5475010000000 1.0
C      1  0.5170580000000  0.4687770000000  0.5482990000000 1.0
C      1  0.4885990000000  0.4592630000000  0.5483870000000 1.0
C      1  0.4640390000000  0.5486330000000  0.5833280000000 1.0
C      1  0.5162940000000  0.5651860000000  0.5860270000000 1.0
C      1  0.5583670000000  0.5297860000000  0.5845750000000 1.0
C      1  0.5524230000000  0.4751420000000  0.5823680000000 1.0
C      1  0.5117420000000  0.4388950000000  0.5840410000000 1.0
C      1  0.4580830000000  0.4486870000000  0.5838910000000 1.0
C      1  0.4369700000000  0.4996830000000  0.5838060000000 1.0
C      1  0.5042460000000  0.5835740000000  0.5694260000000 1.0
C      1  0.5679920000000  0.5511660000000  0.5700870000000 1.0
C      1  0.5750790000000  0.4816300000000  0.5682700000000 1.0
C      1  0.5311890000000  0.4278490000000  0.5683560000000 1.0
C      1  0.4605720000000  0.4256550000000  0.5692090000000 1.0
C      1  0.4200880000000  0.4837870000000  0.5690860000000 1.0
C      1  0.4408840000000  0.5500220000000  0.5689820000000 1.0
C      1  0.5857240000000  0.5055200000000  0.5247810000000 1.0
C      1  0.5540410000000  0.4379860000000  0.5233260000000 1.0
C      1  0.4838450000000  0.4131450000000  0.5245380000000 1.0
C      1  0.4228800000000  0.4564020000000  0.5242360000000 1.0
C      1  0.4237690000000  0.5329060000000  0.5248110000000 1.0
C      1  0.4791280000000  0.5827360000000  0.5243620000000 1.0
C      1  0.5544670000000  0.5745100000000  0.5244350000000 1.0
C      1  0.5087930000000  0.4614130000000  0.4093170000000 1.0
C      1  0.4811970000000  0.4563260000000  0.4089430000000 1.0
C      1  0.4448710000000  0.4849760000000  0.4107470000000 1.0
C      1  0.4683500000000  0.5278790000000  0.4066240000000 1.0
C      1  0.5030510000000  0.5610450000000  0.4042210000000 1.0
C      1  0.5360530000000  0.5272500000000  0.4109920000000 1.0
C      1  0.5388370000000  0.4993230000000  0.4130780000000 1.0
C      1  0.4318760000000  0.4239580000000  0.4759990000000 1.0
C      1  0.4187310000000  0.5044850000000  0.4822740000000 1.0
C      1  0.4485430000000  0.5804270000000  0.4761740000000 1.0
C      1  0.5314420000000  0.5950670000000  0.4763050000000 1.0
C      1  0.5946660000000  0.5388550000000  0.4771380000000 1.0
C      1  0.5748050000000  0.4571880000000  0.4764330000000 1.0
C      1  0.5135220000000  0.4014270000000  0.4766870000000 1.0
C      1  0.5968180000000  0.5094700000000  0.4772500000000 1.0
C      1  0.5601680000000  0.4331980000000  0.4748410000000 1.0
C      1  0.4843110000000  0.4002820000000  0.4772330000000 1.0
C      1  0.4164090000000  0.4487970000000  0.4763470000000 1.0
C      1  0.4177550000000  0.5330200000000  0.4780270000000 1.0
C      1  0.4748640000000  0.5925020000000  0.4761240000000 1.0
C      1  0.5577520000000  0.5829060000000  0.4766930000000 1.0
C      1  0.4330470000000  0.5155290000000  0.4389000000000 1.0
C      1  0.4706460000000  0.5678070000000  0.4373310000000 1.0
C      1  0.5365200000000  0.5701670000000  0.4375560000000 1.0
C      1  0.5786770000000  0.5215970000000  0.4382250000000 1.0
C      1  0.5483880000000  0.4591840000000  0.4381970000000 1.0
C      1  0.4977270000000  0.4179120000000  0.4377310000000 1.0
C      1  0.4403280000000  0.4469190000000  0.4368760000000 1.0
C      1  0.5379610000000  0.5495470000000  0.5754150000000 1.0
C      1  0.5541110000000  0.5036400000000  0.5734130000000 1.0
C      1  0.5305070000000  0.4591290000000  0.5734370000000 1.0
C      1  0.4853950000000  0.4432730000000  0.5738350000000 1.0
C      1  0.4479970000000  0.4731720000000  0.5734470000000 1.0
C      1  0.4506630000000  0.5219360000000  0.5731010000000 1.0
C      1  0.4900500000000  0.5567110000000  0.5747420000000 1.0
C      1  0.5539970000000  0.5054740000000  0.5210170000000 1.0
C      1  0.5325200000000  0.4606050000000  0.5197540000000 1.0
C      1  0.4879220000000  0.4444110000000  0.5204670000000 1.0
C      1  0.4493660000000  0.4728840000000  0.5199320000000 1.0
C      1  0.4530830000000  0.5197020000000  0.5194120000000 1.0
C      1  0.4884240000000  0.5524390000000  0.5214050000000 1.0
C      1  0.5367840000000  0.5500390000000  0.5208730000000 1.0
C      1  0.4734400000000  0.4636500000000  0.4785760000000 1.0
C      1  0.4617720000000  0.4897640000000  0.4722580000000 1.0
C      1  0.4851420000000  0.5291420000000  0.4772660000000 1.0
C      1  0.5116500000000  0.5382810000000  0.4806600000000 1.0
C      1  0.5352110000000  0.5223940000000  0.4790950000000 1.0
C      1  0.5364450000000  0.4931780000000  0.4740210000000 1.0
C      1  0.5018150000000  0.4623940000000  0.4767810000000 1.0
C      1  0.5886220000000  0.5383550000000  0.5258460000000 1.0
C      1  0.5802460000000  0.4564080000000  0.5245050000000 1.0
C      1  0.5152090000000  0.4068920000000  0.5256100000000 1.0
C      1  0.4361470000000  0.4266950000000  0.5252100000000 1.0
C      1  0.4062450000000  0.5038900000000  0.5255410000000 1.0
C      1  0.4477960000000  0.5766240000000  0.5256050000000 1.0
C      1  0.5282910000000  0.5934560000000  0.5254980000000 1.0
C      1  0.4986860000000  0.4365270000000  0.4174760000000 1.0
C      1  0.4533520000000  0.4601560000000  0.4148320000000 1.0
C      1  0.4478040000000  0.5115780000000  0.4144980000000 1.0
C      1  0.4786930000000  0.5520870000000  0.4144120000000 1.0
C      1  0.5267540000000  0.5541740000000  0.4157600000000 1.0
C      1  0.5601550000000  0.5161300000000  0.4185180000000 1.0
C      1  0.5330440000000  0.4724150000000  0.4178830000000 1.0
C      1  0.5283780000000  0.4045310000000  0.5003530000000 1.0
C      1  0.4424460000000  0.4139580000000  0.5002750000000 1.0
C      1  0.4018760000000  0.4907150000000  0.5005300000000 1.0
C      1  0.4354260000000  0.5730980000000  0.5002520000000 1.0
C      1  0.5172070000000  0.6008030000000  0.5000760000000 1.0
C      1  0.5897020000000  0.5528900000000  0.5011120000000 1.0
C      1  0.5891480000000  0.4658280000000  0.4989810000000 1.0
C      1  0.5615540000000  0.5677160000000  0.4524860000000 1.0
C      1  0.5836460000000  0.4989690000000  0.4540090000000 1.0
C      1  0.5441310000000  0.4332540000000  0.4507750000000 1.0
C      1  0.4739550000000  0.4108680000000  0.4525850000000 1.0
C      1  0.4239270000000  0.4638770000000  0.4527280000000 1.0
C      1  0.4299860000000  0.5402340000000  0.4532440000000 1.0
C      1  0.4890480000000  0.5848600000000  0.4518200000000 1.0
C      1  0.4712960000000  0.5363110000000  0.5032780000000 1.0
C      1  0.5128220000000  0.5530520000000  0.5048800000000 1.0
C      1  0.5479520000000  0.5280140000000  0.5041010000000 1.0
C      1  0.5433440000000  0.4832800000000  0.5043000000000 1.0
C      1  0.5106390000000  0.4512700000000  0.5024920000000 1.0
C      1  0.4666910000000  0.4560870000000  0.5045280000000 1.0
C      1  0.4477210000000  0.4972110000000  0.5010960000000 1.0
C      1  0.5092680000000  0.4865760000000  0.4639120000000 1.0
C      1  0.5122230000000  0.4972550000000  0.5439920000000 1.0
C      1  0.5006020000000  0.4983890000000  0.5141780000000 1.0
C      1  0.4853710000000  0.5048340000000  0.4627280000000 1.0
C      1  0.4916280000000  0.5135110000000  0.5560020000000 1.0
END
