TITL C-99197-6982-2 -0.0237792884297407 125000 -53.9585937080558 0 0 9 (Cs) n - 1
REM
REM in /rds/project/t2_vol4/rds-t2-cs072/BORA/CARBON/from-Arr/AIRSS/Generating-Clusters/GAP-ML-2020/Higher-Symm/SD-CG/HFTN-CG
REM
REM
REM
REM
REM
REM ./C.cell (b20cbc046b6831c77cfcea5457e17084)
REM AIRSS Version 0.9.1 bugfix July 2018 build 013d7b7c2542+ Fri, 06 Jul 2018 19:26:36 +0100
REM compiler GCC version 9.3.0
REM options -cpp -mtune=generic -march=x86-64 -g -O0
REM seed -1620174804 769675580 265480632 -673856067 1277995998 869432655 -1587485861 933209726 -938655469 1552427314 -1030013548 192512391 289453920 1875192703 362676482 1450614477 -1836614169 560840146 -2130691617 -1577760047 -991665256 1729451125 361680806 136399452 -1698699464 -45311657 -1938822758 1360241915 921760033 -1469190462 -1031690301 1121973816 -405789855
REM
CELL 1.54180   50.00000   50.00000   50.00000   90.00000   90.00000   90.00000
LATT -1
SFAC C  
C      1  0.4860310000000  0.4830510000000  0.5437290000000 1.0
C      1  0.4756690000000  0.5071740000000  0.5428290000000 1.0
C      1  0.5268040000000  0.5141690000000  0.5250140000000 1.0
C      1  0.4968430000000  0.5138030000000  0.4551950000000 1.0
C      1  0.5077880000000  0.4883220000000  0.4561460000000 1.0
C      1  0.5059870000000  0.5018100000000  0.4334610000000 1.0
C      1  0.5022320000000  0.5039200000000  0.5331820000000 1.0
C      1  0.5024450000000  0.5020060000000  0.4794540000000 1.0
C      1  0.5105100000000  0.5063960000000  0.5042770000000 1.0
END
