TITL C-99205-26-9 0.261180677334115 125000 -876.899113865178 0 0 126 (Ci) n - 1
REM
REM in /rds/project/t2_vol4/rds-t2-cs072/BORA/CARBON/from-Arr/AIRSS/Generating-Clusters/GAP-ML-2020/Higher-Symm/SD-CG/HFTN-CG
REM
REM
REM
REM
REM
REM ./C.cell (b20cbc046b6831c77cfcea5457e17084)
REM AIRSS Version 0.9.1 bugfix July 2018 build 013d7b7c2542+ Fri, 06 Jul 2018 19:26:36 +0100
REM compiler GCC version 9.3.0
REM options -cpp -mtune=generic -march=x86-64 -g -O0
REM seed -649717616 112252768 1783067950 1185092190 1070046873 -1497088404 632496491 935974562 825636598 1427694921 -316168901 358922906 -65947910 -1597706662 -213234238 877271338 -653373559 208110138 1874861730 -1523501538 -830590840 1943665646 1128222095 350497718 1454752203 1660067140 96987376 840232792 638886250 -2093626180 -209603513 33235785 279767276
REM
CELL 1.54180   50.00000   50.00000   50.00000   90.00000   90.00000   90.00000
LATT -1
SFAC C  
C      1  0.5458960000000  0.4581210000000  0.4859020000000 1.0
C      1  0.4541040000000  0.5418790000000  0.5140980000000 1.0
C      1  0.4366130000000  0.4386400000000  0.4731320000000 1.0
C      1  0.5633870000000  0.5613600000000  0.5268680000000 1.0
C      1  0.5320980000000  0.4619730000000  0.4613990000000 1.0
C      1  0.4679020000000  0.5380270000000  0.5386010000000 1.0
C      1  0.4800720000000  0.5030080000000  0.5012080000000 1.0
C      1  0.5199280000000  0.4969920000000  0.4987920000000 1.0
C      1  0.5554910000000  0.4378910000000  0.5282350000000 1.0
C      1  0.4445090000000  0.5621090000000  0.4717650000000 1.0
C      1  0.4245090000000  0.4969290000000  0.4633050000000 1.0
C      1  0.5754910000000  0.5030710000000  0.5366950000000 1.0
C      1  0.4085410000000  0.5254910000000  0.5439660000000 1.0
C      1  0.5914590000000  0.4745090000000  0.4560340000000 1.0
C      1  0.5023030000000  0.4034850000000  0.4696660000000 1.0
C      1  0.4976970000000  0.5965150000000  0.5303340000000 1.0
C      1  0.5561660000000  0.4765210000000  0.5702850000000 1.0
C      1  0.4438340000000  0.5234790000000  0.4297150000000 1.0
C      1  0.5237100000000  0.5565620000000  0.5564360000000 1.0
C      1  0.4762900000000  0.4434380000000  0.4435640000000 1.0
C      1  0.4392470000000  0.5807650000000  0.4944310000000 1.0
C      1  0.5607530000000  0.4192350000000  0.5055690000000 1.0
C      1  0.5788710000000  0.4565420000000  0.5301010000000 1.0
C      1  0.4211290000000  0.5434580000000  0.4698990000000 1.0
C      1  0.5463880000000  0.5038130000000  0.5734210000000 1.0
C      1  0.4536120000000  0.4961870000000  0.4265790000000 1.0
C      1  0.4648840000000  0.4927780000000  0.5257610000000 1.0
C      1  0.5351160000000  0.5072220000000  0.4742390000000 1.0
C      1  0.5215840000000  0.5569870000000  0.4475680000000 1.0
C      1  0.4784160000000  0.4430130000000  0.5524320000000 1.0
C      1  0.4980010000000  0.4945960000000  0.5889700000000 1.0
C      1  0.5019990000000  0.5054040000000  0.4110300000000 1.0
C      1  0.5459670000000  0.4212890000000  0.4599380000000 1.0
C      1  0.4540330000000  0.5787110000000  0.5400620000000 1.0
C      1  0.4893610000000  0.4566950000000  0.5055320000000 1.0
C      1  0.5106390000000  0.5433050000000  0.4944680000000 1.0
C      1  0.4059170000000  0.4981200000000  0.4866970000000 1.0
C      1  0.5940830000000  0.5018800000000  0.5133030000000 1.0
C      1  0.4602940000000  0.5473870000000  0.4247510000000 1.0
C      1  0.5397060000000  0.4526130000000  0.5752490000000 1.0
C      1  0.4546710000000  0.4779060000000  0.5778060000000 1.0
C      1  0.5453290000000  0.5220940000000  0.4221940000000 1.0
C      1  0.5282450000000  0.4802140000000  0.5216850000000 1.0
C      1  0.4717550000000  0.5197860000000  0.4783150000000 1.0
C      1  0.4142700000000  0.4808760000000  0.5078920000000 1.0
C      1  0.5857300000000  0.5191240000000  0.4921080000000 1.0
C      1  0.5209760000000  0.4526500000000  0.5956160000000 1.0
C      1  0.4790240000000  0.5473500000000  0.4043840000000 1.0
C      1  0.5176260000000  0.5308690000000  0.4686070000000 1.0
C      1  0.4823740000000  0.4691310000000  0.5313930000000 1.0
C      1  0.5333010000000  0.5999480000000  0.4918450000000 1.0
C      1  0.4666990000000  0.4000520000000  0.5081550000000 1.0
C      1  0.5069750000000  0.4308310000000  0.5438630000000 1.0
C      1  0.4930250000000  0.5691690000000  0.4561370000000 1.0
C      1  0.4731970000000  0.5120360000000  0.5476260000000 1.0
C      1  0.5268030000000  0.4879640000000  0.4523740000000 1.0
C      1  0.4193800000000  0.4547810000000  0.5166310000000 1.0
C      1  0.5806200000000  0.5452190000000  0.4833690000000 1.0
C      1  0.4973200000000  0.4253990000000  0.4516600000000 1.0
C      1  0.5026800000000  0.5746010000000  0.5483400000000 1.0
C      1  0.5510620000000  0.5817730000000  0.4822190000000 1.0
C      1  0.4489380000000  0.4182270000000  0.5177810000000 1.0
C      1  0.4255000000000  0.5233450000000  0.4509770000000 1.0
C      1  0.5745000000000  0.4766550000000  0.5490230000000 1.0
C      1  0.4311990000000  0.4763830000000  0.5615210000000 1.0
C      1  0.5688010000000  0.5236170000000  0.4384790000000 1.0
C      1  0.5135040000000  0.4068020000000  0.5124420000000 1.0
C      1  0.4864960000000  0.5931980000000  0.4875580000000 1.0
C      1  0.4828330000000  0.5463470000000  0.5790210000000 1.0
C      1  0.5171670000000  0.4536530000000  0.4209790000000 1.0
C      1  0.5689950000000  0.5468490000000  0.4563010000000 1.0
C      1  0.4310050000000  0.4531510000000  0.5436990000000 1.0
C      1  0.4792680000000  0.4888080000000  0.4170770000000 1.0
C      1  0.5207320000000  0.5111920000000  0.5829230000000 1.0
C      1  0.4756270000000  0.5615630000000  0.5537780000000 1.0
C      1  0.5243730000000  0.4384370000000  0.4462220000000 1.0
C      1  0.4710970000000  0.5037580000000  0.5797890000000 1.0
C      1  0.5289030000000  0.4962420000000  0.4202110000000 1.0
C      1  0.4902580000000  0.4660820000000  0.4323580000000 1.0
C      1  0.5097420000000  0.5339180000000  0.5676420000000 1.0
C      1  0.4111420000000  0.5441540000000  0.5231740000000 1.0
C      1  0.5888580000000  0.4558460000000  0.4768260000000 1.0
C      1  0.4404360000000  0.4787140000000  0.4454420000000 1.0
C      1  0.5595640000000  0.5212860000000  0.5545580000000 1.0
C      1  0.5329560000000  0.4522950000000  0.5121070000000 1.0
C      1  0.4670440000000  0.5477050000000  0.4878930000000 1.0
C      1  0.4680280000000  0.5988700000000  0.5270220000000 1.0
C      1  0.5319720000000  0.4011300000000  0.4729780000000 1.0
C      1  0.4983930000000  0.4852320000000  0.4579100000000 1.0
C      1  0.5016070000000  0.5147680000000  0.5420900000000 1.0
C      1  0.4611060000000  0.5982680000000  0.4995300000000 1.0
C      1  0.5388940000000  0.4017320000000  0.5004700000000 1.0
C      1  0.4949480000000  0.4796710000000  0.4878310000000 1.0
C      1  0.5050520000000  0.5203290000000  0.5121690000000 1.0
C      1  0.5091610000000  0.4363420000000  0.5150410000000 1.0
C      1  0.4908390000000  0.5636580000000  0.4849590000000 1.0
C      1  0.5076010000000  0.4842980000000  0.5411470000000 1.0
C      1  0.4923990000000  0.5157020000000  0.4588530000000 1.0
C      1  0.4650240000000  0.5651530000000  0.4473370000000 1.0
C      1  0.5349760000000  0.4348470000000  0.5526630000000 1.0
C      1  0.5481410000000  0.5665350000000  0.4574510000000 1.0
C      1  0.4518590000000  0.4334650000000  0.5425490000000 1.0
C      1  0.5634420000000  0.4801350000000  0.4955260000000 1.0
C      1  0.4365580000000  0.5198650000000  0.5044740000000 1.0
C      1  0.4347900000000  0.5649920000000  0.5199070000000 1.0
C      1  0.5652100000000  0.4350080000000  0.4800930000000 1.0
C      1  0.5090760000000  0.6027610000000  0.5036190000000 1.0
C      1  0.4909240000000  0.3972390000000  0.4963810000000 1.0
C      1  0.5316890000000  0.4694670000000  0.4056440000000 1.0
C      1  0.4683110000000  0.5305330000000  0.5943560000000 1.0
C      1  0.5652070000000  0.5031300000000  0.4778640000000 1.0
C      1  0.4347930000000  0.4968700000000  0.5221360000000 1.0
C      1  0.4108350000000  0.5291310000000  0.4945970000000 1.0
C      1  0.5891650000000  0.4708690000000  0.5054030000000 1.0
C      1  0.4497500000000  0.4513280000000  0.4528050000000 1.0
C      1  0.5502500000000  0.5486720000000  0.5471950000000 1.0
C      1  0.5788310000000  0.4988590000000  0.4522810000000 1.0
C      1  0.4211690000000  0.5011410000000  0.5477190000000 1.0
C      1  0.5527960000000  0.4933400000000  0.5198820000000 1.0
C      1  0.4472040000000  0.5066600000000  0.4801180000000 1.0
C      1  0.5682230000000  0.5651210000000  0.5002890000000 1.0
C      1  0.4317770000000  0.4348790000000  0.4997110000000 1.0
C      1  0.5260630000000  0.5431770000000  0.4216800000000 1.0
C      1  0.4739370000000  0.4568230000000  0.5783200000000 1.0
C      1  0.5021060000000  0.5336930000000  0.4082980000000 1.0
C      1  0.4978940000000  0.4663070000000  0.5917020000000 1.0
END
