TITL C-99216-9529-14 0.00352898932886038 125000 -21.1237922349245 0 0 4 (C2v) n - 1
REM
REM in /rds/project/t2_vol4/rds-t2-cs072/BORA/CARBON/from-Arr/AIRSS/Generating-Clusters/GAP-ML-2020/Higher-Symm/SD-CG/HFTN-CG
REM
REM
REM
REM
REM
REM ./C.cell (b20cbc046b6831c77cfcea5457e17084)
REM AIRSS Version 0.9.1 bugfix July 2018 build 013d7b7c2542+ Fri, 06 Jul 2018 19:26:36 +0100
REM compiler GCC version 9.3.0
REM options -cpp -mtune=generic -march=x86-64 -g -O0
REM seed -335457575 -1979087531 -471298869 1944186860 -1821824226 -1860798048 1698386461 -1092603147 2119224050 447918446 -1396474755 1445108445 -795312086 -318875387 1098816718 -543608976 344851458 -943147498 -1313846998 645268307 970246878 1485377708 -1131381685 -192377074 1354717897 -413774851 -370685520 -119536272 1248656813 -1297459647 1537950344 1959848971 654349068
REM
CELL 1.54180   50.00000   50.00000   50.00000   90.00000   90.00000   90.00000
LATT -1
SFAC C  
C      1  0.5057560000000  0.4999000000000  0.5226900000000 1.0
C      1  0.5104580000000  0.5000490000000  0.4688010000000 1.0
C      1  0.4817320000000  0.5000420000000  0.5146370000000 1.0
C      1  0.5020540000000  0.5000100000000  0.4938720000000 1.0
END
