TITL C-102689-8077-99 12.146914361823 1000000 -1765.51287305889 0 0 240 (C1) n - 1
REM
REM in /home/chem/mssmkc/work/GAP20/Larger-Clusters/Only-C240-new-series
REM
REM
REM
REM
REM
REM ./C.cell (0485df7495ed2a90f93db84a705cd676)
REM
REM compiler GCC version 8.3.0
REM options -cpp -mtune=generic -march=x86-64 -g -O0
REM seed -1331630698 544530514 -622682250 1158701113 298251152 -987377545 184703369 314871643 -72637948 -1340331143 1520398676 -776882720 859746747 1324426721 348291740 -706580443 2014961090 1585298305 -1808122088 1840701022 1031451234 -1513133233 1851906082 -443785513 -2021738370 -2044421427 540144601 1956172696 -151906438 298084532 -28471932 -1714276114 862253591
REM
CELL 1.54180  100.00000  100.00000  100.00000   90.00000   90.00000   90.00000
LATT -1
SFAC C  
C      1  0.4947080000000  0.4306200000000  0.4683380000000 1.0
C      1  0.4738820000000  0.4898200000000  0.4347130000000 1.0
C      1  0.4312290000000  0.4727410000000  0.4958050000000 1.0
C      1  0.5073100000000  0.5645980000000  0.4714840000000 1.0
C      1  0.5064660000000  0.4254670000000  0.5258800000000 1.0
C      1  0.4968430000000  0.5754030000000  0.5296890000000 1.0
C      1  0.5306070000000  0.5062820000000  0.4281490000000 1.0
C      1  0.5282300000000  0.4928420000000  0.5657480000000 1.0
C      1  0.4729160000000  0.5090740000000  0.5616140000000 1.0
C      1  0.5613290000000  0.5323200000000  0.4968790000000 1.0
C      1  0.5623880000000  0.4739980000000  0.5083260000000 1.0
C      1  0.4326660000000  0.5311770000000  0.5116490000000 1.0
C      1  0.4926900000000  0.4257610000000  0.5255610000000 1.0
C      1  0.4724280000000  0.4950850000000  0.5613510000000 1.0
C      1  0.4338640000000  0.4727650000000  0.5095600000000 1.0
C      1  0.5107550000000  0.5755790000000  0.5289470000000 1.0
C      1  0.5085920000000  0.4289980000000  0.4689860000000 1.0
C      1  0.4933290000000  0.5635780000000  0.4725970000000 1.0
C      1  0.5289710000000  0.5066820000000  0.5668360000000 1.0
C      1  0.5318770000000  0.4927720000000  0.4313750000000 1.0
C      1  0.4729630000000  0.5034160000000  0.4317570000000 1.0
C      1  0.5601370000000  0.5320110000000  0.5108030000000 1.0
C      1  0.5631430000000  0.4748580000000  0.4942800000000 1.0
C      1  0.4345550000000  0.5310130000000  0.4977010000000 1.0
C      1  0.5133720000000  0.4360090000000  0.5326180000000 1.0
C      1  0.5365860000000  0.5154700000000  0.4371730000000 1.0
C      1  0.4411310000000  0.5386260000000  0.5202230000000 1.0
C      1  0.4905950000000  0.5664540000000  0.5386910000000 1.0
C      1  0.4875660000000  0.4418400000000  0.4619430000000 1.0
C      1  0.5144870000000  0.5565040000000  0.4625190000000 1.0
C      1  0.4661230000000  0.4844690000000  0.4451530000000 1.0
C      1  0.4662340000000  0.5182790000000  0.5534590000000 1.0
C      1  0.5347380000000  0.4857380000000  0.5550590000000 1.0
C      1  0.5546060000000  0.4641770000000  0.5148570000000 1.0
C      1  0.5518370000000  0.5385220000000  0.4881040000000 1.0
C      1  0.4395570000000  0.4654500000000  0.4867450000000 1.0
C      1  0.5172170000000  0.4395090000000  0.4645590000000 1.0
C      1  0.5362130000000  0.5147770000000  0.5574060000000 1.0
C      1  0.4453230000000  0.5377900000000  0.4898970000000 1.0
C      1  0.4859270000000  0.5548100000000  0.4644710000000 1.0
C      1  0.4858330000000  0.4364050000000  0.5321170000000 1.0
C      1  0.5182190000000  0.5665720000000  0.5371850000000 1.0
C      1  0.4660670000000  0.4871960000000  0.5511740000000 1.0
C      1  0.4659820000000  0.5123510000000  0.4404180000000 1.0
C      1  0.5390430000000  0.4873520000000  0.4430190000000 1.0
C      1  0.5565330000000  0.4653330000000  0.4863910000000 1.0
C      1  0.5515750000000  0.5394470000000  0.5189470000000 1.0
C      1  0.4440490000000  0.4643590000000  0.5144630000000 1.0
C      1  0.4834380000000  0.5238040000000  0.4312270000000 1.0
C      1  0.4433330000000  0.4832500000000  0.5283010000000 1.0
C      1  0.5285510000000  0.4291310000000  0.4812470000000 1.0
C      1  0.5202350000000  0.4743440000000  0.4386090000000 1.0
C      1  0.5189010000000  0.5275430000000  0.5660590000000 1.0
C      1  0.4830260000000  0.4746280000000  0.5600320000000 1.0
C      1  0.5558100000000  0.5199930000000  0.5307460000000 1.0
C      1  0.5569530000000  0.4855620000000  0.4738900000000 1.0
C      1  0.4379670000000  0.5190180000000  0.4784000000000 1.0
C      1  0.4740840000000  0.5573030000000  0.4845120000000 1.0
C      1  0.4740610000000  0.4304990000000  0.5130430000000 1.0
C      1  0.5287660000000  0.5683070000000  0.5159880000000 1.0
C      1  0.4847180000000  0.5295640000000  0.5614510000000 1.0
C      1  0.4339650000000  0.4853460000000  0.4767150000000 1.0
C      1  0.5262350000000  0.4286540000000  0.5148180000000 1.0
C      1  0.5163090000000  0.4734820000000  0.5616290000000 1.0
C      1  0.5171230000000  0.5252460000000  0.4292560000000 1.0
C      1  0.4848620000000  0.4708810000000  0.4428490000000 1.0
C      1  0.5611740000000  0.5208120000000  0.4767840000000 1.0
C      1  0.5539140000000  0.4829920000000  0.5280080000000 1.0
C      1  0.4374190000000  0.5183440000000  0.5309050000000 1.0
C      1  0.4781260000000  0.5671070000000  0.5190090000000 1.0
C      1  0.4750100000000  0.4341200000000  0.4795480000000 1.0
C      1  0.5279940000000  0.5595600000000  0.4813230000000 1.0
C      1  0.4324910000000  0.4842800000000  0.5179800000000 1.0
C      1  0.5156730000000  0.4225560000000  0.4800570000000 1.0
C      1  0.4838390000000  0.5105360000000  0.4256740000000 1.0
C      1  0.5639480000000  0.5203230000000  0.5184520000000 1.0
C      1  0.5645370000000  0.4870590000000  0.4870030000000 1.0
C      1  0.4300870000000  0.5193210000000  0.4903760000000 1.0
C      1  0.4861410000000  0.5663630000000  0.4844250000000 1.0
C      1  0.4853990000000  0.4220450000000  0.5134920000000 1.0
C      1  0.5174120000000  0.5770030000000  0.5159140000000 1.0
C      1  0.5203700000000  0.4843070000000  0.4286830000000 1.0
C      1  0.5180860000000  0.5145720000000  0.5722480000000 1.0
C      1  0.4828100000000  0.4870700000000  0.5672660000000 1.0
C      1  0.4271550000000  0.4848780000000  0.4891990000000 1.0
C      1  0.5142300000000  0.4209720000000  0.5143590000000 1.0
C      1  0.4842280000000  0.5161930000000  0.5672360000000 1.0
C      1  0.5674030000000  0.5214960000000  0.4896400000000 1.0
C      1  0.5631600000000  0.4852330000000  0.5167590000000 1.0
C      1  0.4291250000000  0.5190700000000  0.5191570000000 1.0
C      1  0.4886830000000  0.5765360000000  0.5176860000000 1.0
C      1  0.4867030000000  0.4257340000000  0.4792680000000 1.0
C      1  0.5158430000000  0.5681550000000  0.4822080000000 1.0
C      1  0.5165370000000  0.4853700000000  0.5699490000000 1.0
C      1  0.5180980000000  0.5123060000000  0.4229760000000 1.0
C      1  0.4855550000000  0.4819160000000  0.4327640000000 1.0
C      1  0.5699240000000  0.4967610000000  0.4954750000000 1.0
C      1  0.4938760000000  0.5745030000000  0.4926930000000 1.0
C      1  0.4922180000000  0.4937770000000  0.5747320000000 1.0
C      1  0.4230900000000  0.5093900000000  0.4974110000000 1.0
C      1  0.4249350000000  0.4944720000000  0.5119640000000 1.0
C      1  0.5702580000000  0.5102930000000  0.5114440000000 1.0
C      1  0.5075610000000  0.4162570000000  0.4892630000000 1.0
C      1  0.5095360000000  0.5804270000000  0.5050880000000 1.0
C      1  0.4925440000000  0.4161710000000  0.5032630000000 1.0
C      1  0.5072930000000  0.5074370000000  0.5770170000000 1.0
C      1  0.5093320000000  0.4891800000000  0.4220200000000 1.0
C      1  0.4938760000000  0.5024840000000  0.4207060000000 1.0
C      1  0.5688180000000  0.4959690000000  0.5103360000000 1.0
C      1  0.4948360000000  0.5801280000000  0.5059930000000 1.0
C      1  0.4950270000000  0.4882650000000  0.4245700000000 1.0
C      1  0.4237000000000  0.5088870000000  0.5120230000000 1.0
C      1  0.4227970000000  0.4949300000000  0.4973830000000 1.0
C      1  0.5722930000000  0.5109780000000  0.4968730000000 1.0
C      1  0.5071450000000  0.4152310000000  0.5038180000000 1.0
C      1  0.5087690000000  0.5752290000000  0.4916900000000 1.0
C      1  0.4930000000000  0.4177170000000  0.4888210000000 1.0
C      1  0.5082660000000  0.5034100000000  0.4188700000000 1.0
C      1  0.5066320000000  0.4928500000000  0.5762960000000 1.0
C      1  0.4929500000000  0.5084540000000  0.5747210000000 1.0
C      1  0.4718300000000  0.4634430000000  0.5423100000000 1.0
C      1  0.5414570000000  0.4626200000000  0.4677120000000 1.0
C      1  0.4675040000000  0.5382210000000  0.4631660000000 1.0
C      1  0.5311370000000  0.5394270000000  0.5500920000000 1.0
C      1  0.5321800000000  0.4662310000000  0.4570920000000 1.0
C      1  0.4737310000000  0.5354750000000  0.4498790000000 1.0
C      1  0.4561190000000  0.5291650000000  0.4668720000000 1.0
C      1  0.4619020000000  0.4611090000000  0.5314390000000 1.0
C      1  0.5398080000000  0.5413040000000  0.5389480000000 1.0
C      1  0.5395910000000  0.4489440000000  0.4730880000000 1.0
C      1  0.5374930000000  0.5521570000000  0.5301560000000 1.0
C      1  0.4640740000000  0.4488270000000  0.5240550000000 1.0
C      1  0.4632460000000  0.4659860000000  0.4617030000000 1.0
C      1  0.5373470000000  0.4604470000000  0.5324360000000 1.0
C      1  0.4693130000000  0.5506730000000  0.5337140000000 1.0
C      1  0.5267950000000  0.5376780000000  0.4472010000000 1.0
C      1  0.5277110000000  0.4628100000000  0.5436330000000 1.0
C      1  0.4664140000000  0.5393900000000  0.5427510000000 1.0
C      1  0.4548780000000  0.5312470000000  0.5397380000000 1.0
C      1  0.4512990000000  0.4739060000000  0.4650360000000 1.0
C      1  0.5445320000000  0.5321150000000  0.4639790000000 1.0
C      1  0.5358250000000  0.4476520000000  0.5254070000000 1.0
C      1  0.5332430000000  0.5408100000000  0.4600770000000 1.0
C      1  0.4652280000000  0.4536560000000  0.4700890000000 1.0
C      1  0.5124110000000  0.5579810000000  0.5469250000000 1.0
C      1  0.5243260000000  0.5085920000000  0.5352940000000 1.0
C      1  0.5287110000000  0.5375270000000  0.5125790000000 1.0
C      1  0.4923400000000  0.4462250000000  0.5398830000000 1.0
C      1  0.4926900000000  0.5503160000000  0.4530510000000 1.0
C      1  0.5123300000000  0.4527210000000  0.4649770000000 1.0
C      1  0.4721230000000  0.5012070000000  0.5313980000000 1.0
C      1  0.4578230000000  0.5076400000000  0.4505870000000 1.0
C      1  0.5327320000000  0.5005100000000  0.4565670000000 1.0
C      1  0.4494160000000  0.4547850000000  0.5055950000000 1.0
C      1  0.4596220000000  0.5345500000000  0.5051360000000 1.0
C      1  0.5524150000000  0.4534890000000  0.4928550000000 1.0
C      1  0.5070640000000  0.5509930000000  0.4521050000000 1.0
C      1  0.5429880000000  0.5109640000000  0.4487970000000 1.0
C      1  0.5304380000000  0.5331980000000  0.5008830000000 1.0
C      1  0.4995780000000  0.4561680000000  0.4692340000000 1.0
C      1  0.4980670000000  0.5596850000000  0.5486800000000 1.0
C      1  0.5069160000000  0.4461250000000  0.5400710000000 1.0
C      1  0.4569940000000  0.4932520000000  0.4513110000000 1.0
C      1  0.4688250000000  0.5132920000000  0.5301160000000 1.0
C      1  0.5236030000000  0.4960010000000  0.5345500000000 1.0
C      1  0.4487240000000  0.4559860000000  0.4912560000000 1.0
C      1  0.4529910000000  0.5434350000000  0.5148630000000 1.0
C      1  0.5512690000000  0.4530350000000  0.5072410000000 1.0
C      1  0.5395290000000  0.5422510000000  0.4928460000000 1.0
C      1  0.4916110000000  0.5511000000000  0.5567510000000 1.0
C      1  0.5371270000000  0.4935800000000  0.5435410000000 1.0
C      1  0.4587410000000  0.4499630000000  0.4832070000000 1.0
C      1  0.4629610000000  0.5511800000000  0.5205940000000 1.0
C      1  0.5424980000000  0.4442320000000  0.5131390000000 1.0
C      1  0.5140950000000  0.4569140000000  0.5458290000000 1.0
C      1  0.5137470000000  0.5423560000000  0.4437560000000 1.0
C      1  0.4942950000000  0.4531080000000  0.4564880000000 1.0
C      1  0.4574940000000  0.5170490000000  0.5421370000000 1.0
C      1  0.4491860000000  0.4874000000000  0.4606890000000 1.0
C      1  0.5482690000000  0.5191100000000  0.4587800000000 1.0
C      1  0.5403900000000  0.5484390000000  0.5163950000000 1.0
C      1  0.4861060000000  0.5412300000000  0.4452640000000 1.0
C      1  0.5462720000000  0.4960490000000  0.4525200000000 1.0
C      1  0.4585670000000  0.4463960000000  0.5111470000000 1.0
C      1  0.4561770000000  0.5449490000000  0.4963930000000 1.0
C      1  0.5447750000000  0.4446160000000  0.4856260000000 1.0
C      1  0.5187530000000  0.4618120000000  0.4566720000000 1.0
C      1  0.5182460000000  0.5463810000000  0.5527390000000 1.0
C      1  0.4851710000000  0.4571960000000  0.5452540000000 1.0
C      1  0.4524300000000  0.5156990000000  0.4609600000000 1.0
C      1  0.4623750000000  0.4930320000000  0.5393240000000 1.0
C      1  0.5378720000000  0.5089880000000  0.5445460000000 1.0
C      1  0.4420890000000  0.5093060000000  0.4690240000000 1.0
C      1  0.4656640000000  0.4366680000000  0.5033820000000 1.0
C      1  0.5107540000000  0.4667310000000  0.4458240000000 1.0
C      1  0.5547370000000  0.4964790000000  0.4649490000000 1.0
C      1  0.5502770000000  0.5085120000000  0.5363500000000 1.0
C      1  0.4488110000000  0.4946780000000  0.5348880000000 1.0
C      1  0.5354840000000  0.5596350000000  0.5072060000000 1.0
C      1  0.5372090000000  0.4336270000000  0.4916350000000 1.0
C      1  0.4664840000000  0.5554810000000  0.4962390000000 1.0
C      1  0.4928410000000  0.5336230000000  0.4348340000000 1.0
C      1  0.4924260000000  0.4652160000000  0.5551010000000 1.0
C      1  0.5103060000000  0.5378600000000  0.5615830000000 1.0
C      1  0.4458160000000  0.5087930000000  0.5368630000000 1.0
C      1  0.4658890000000  0.4387020000000  0.4893010000000 1.0
C      1  0.5067260000000  0.4648990000000  0.5555390000000 1.0
C      1  0.5493250000000  0.4938210000000  0.5352420000000 1.0
C      1  0.5566350000000  0.5111310000000  0.4674930000000 1.0
C      1  0.4400500000000  0.4951740000000  0.4685480000000 1.0
C      1  0.5347300000000  0.5556780000000  0.4932370000000 1.0
C      1  0.5359950000000  0.4336030000000  0.5057910000000 1.0
C      1  0.4695520000000  0.5593630000000  0.5107130000000 1.0
C      1  0.4956370000000  0.5390260000000  0.5614080000000 1.0
C      1  0.4962080000000  0.4633790000000  0.4465130000000 1.0
C      1  0.5070040000000  0.5340910000000  0.4339900000000 1.0
C      1  0.5283410000000  0.4730810000000  0.5535970000000 1.0
C      1  0.5528780000000  0.5326460000000  0.4754460000000 1.0
C      1  0.4788490000000  0.5615420000000  0.5324050000000 1.0
C      1  0.4730560000000  0.5308890000000  0.5530380000000 1.0
C      1  0.4713390000000  0.4720830000000  0.4503040000000 1.0
C      1  0.5288990000000  0.5273810000000  0.4373830000000 1.0
C      1  0.4410790000000  0.4728800000000  0.4749400000000 1.0
C      1  0.4432490000000  0.5316060000000  0.5323790000000 1.0
C      1  0.5482640000000  0.4689690000000  0.5268100000000 1.0
C      1  0.5259210000000  0.4373840000000  0.5263420000000 1.0
C      1  0.5270260000000  0.5521420000000  0.4677580000000 1.0
C      1  0.4750750000000  0.4432780000000  0.4685530000000 1.0
C      1  0.5326170000000  0.4751770000000  0.4461300000000 1.0
C      1  0.5493150000000  0.5330590000000  0.5315110000000 1.0
C      1  0.4740900000000  0.5496890000000  0.4708130000000 1.0
C      1  0.4722050000000  0.5248940000000  0.4402300000000 1.0
C      1  0.4715570000000  0.4742810000000  0.5514020000000 1.0
C      1  0.5310130000000  0.5279790000000  0.5583960000000 1.0
C      1  0.4502050000000  0.4693900000000  0.5263880000000 1.0
C      1  0.4467450000000  0.5304520000000  0.4777460000000 1.0
C      1  0.5516410000000  0.4710620000000  0.4741540000000 1.0
C      1  0.5298680000000  0.4386470000000  0.4704980000000 1.0
C      1  0.5297420000000  0.5632590000000  0.5297170000000 1.0
C      1  0.4737860000000  0.4384730000000  0.5250780000000 1.0
END
