TITL C-102688-8074-172 -17.3551107935825 1000000 -1701.89016642305 0 0 240 (Td) n - 1
REM
REM in /home/chem/mssmkc/work/GAP20/Larger-Clusters/Only-C240-new-series
REM
REM
REM
REM
REM
REM ./C.cell (0485df7495ed2a90f93db84a705cd676)
REM
REM compiler GCC version 8.3.0
REM options -cpp -mtune=generic -march=x86-64 -g -O0
REM seed -844296942 -121891743 -163685970 57416543 -1490229216 -1482502489 -1772498649 -164447396 -1531043785 -1166816117 1152096604 2096616758 2073874337 2070422707 330177031 2023669449 200239912 2042843772 136146142 -1265342325 2099157416 -118342657 2132596191 1793470282 -1987014418 -1139287934 -2098930913 -153131794 -2057512280 -79386041 -579949965 1617395389 13718270
REM
CELL 1.54180  100.00000  100.00000  100.00000   90.00000   90.00000   90.00000
LATT -1
SFAC C  
C      1  0.5525600000000  0.5009920000000  0.4577480000000 1.0
C      1  0.4577490000000  0.5525610000000  0.5009940000000 1.0
C      1  0.5009920000000  0.4577470000000  0.5525590000000 1.0
C      1  0.4474400000000  0.5009920000000  0.5422520000000 1.0
C      1  0.5525610000000  0.4990060000000  0.5422500000000 1.0
C      1  0.4474390000000  0.4990100000000  0.4577500000000 1.0
C      1  0.5422520000000  0.5525600000000  0.4990090000000 1.0
C      1  0.4577480000000  0.4474400000000  0.4990070000000 1.0
C      1  0.5422510000000  0.4474390000000  0.5009900000000 1.0
C      1  0.4990060000000  0.4577500000000  0.4474380000000 1.0
C      1  0.5009920000000  0.5422530000000  0.4474410000000 1.0
C      1  0.4990100000000  0.5422500000000  0.5525620000000 1.0
C      1  0.4577500000000  0.5009910000000  0.5525610000000 1.0
C      1  0.5009920000000  0.5525620000000  0.4577500000000 1.0
C      1  0.5525600000000  0.4577480000000  0.5009900000000 1.0
C      1  0.5422500000000  0.5009930000000  0.4474390000000 1.0
C      1  0.5422520000000  0.4990060000000  0.5525600000000 1.0
C      1  0.4577480000000  0.4990100000000  0.4474400000000 1.0
C      1  0.4990100000000  0.5525590000000  0.5422530000000 1.0
C      1  0.4990060000000  0.4474410000000  0.4577470000000 1.0
C      1  0.5009920000000  0.4474380000000  0.5422500000000 1.0
C      1  0.4474390000000  0.4577490000000  0.4990080000000 1.0
C      1  0.4474400000000  0.5422520000000  0.5009940000000 1.0
C      1  0.5525610000000  0.5422510000000  0.4990080000000 1.0
C      1  0.5211230000000  0.5412260000000  0.5018750000000 1.0
C      1  0.5018750000000  0.5211210000000  0.5412270000000 1.0
C      1  0.5412270000000  0.5018730000000  0.5211220000000 1.0
C      1  0.4788780000000  0.5412270000000  0.4981280000000 1.0
C      1  0.5211220000000  0.4587730000000  0.4981250000000 1.0
C      1  0.4788770000000  0.4587730000000  0.5018730000000 1.0
C      1  0.4981260000000  0.5211230000000  0.4587740000000 1.0
C      1  0.5018730000000  0.4788790000000  0.4587730000000 1.0
C      1  0.4981270000000  0.4788770000000  0.5412260000000 1.0
C      1  0.4587730000000  0.5018750000000  0.4788790000000 1.0
C      1  0.5412260000000  0.4981260000000  0.4788770000000 1.0
C      1  0.4587730000000  0.4981260000000  0.5211230000000 1.0
C      1  0.5018750000000  0.5412260000000  0.5211230000000 1.0
C      1  0.5412270000000  0.5211220000000  0.5018740000000 1.0
C      1  0.5211230000000  0.5018720000000  0.5412270000000 1.0
C      1  0.4981260000000  0.5412270000000  0.4788790000000 1.0
C      1  0.4981260000000  0.4587730000000  0.5211210000000 1.0
C      1  0.5018730000000  0.4587740000000  0.4788770000000 1.0
C      1  0.4587730000000  0.5211230000000  0.4981270000000 1.0
C      1  0.4587730000000  0.4788780000000  0.5018740000000 1.0
C      1  0.5412270000000  0.4788770000000  0.4981250000000 1.0
C      1  0.4788770000000  0.5018750000000  0.4587730000000 1.0
C      1  0.4788790000000  0.4981250000000  0.5412270000000 1.0
C      1  0.5211210000000  0.4981270000000  0.4587730000000 1.0
C      1  0.5365020000000  0.5465330000000  0.4740410000000 1.0
C      1  0.4740420000000  0.5365010000000  0.5465350000000 1.0
C      1  0.5465330000000  0.4740390000000  0.5365010000000 1.0
C      1  0.4634990000000  0.5465330000000  0.5259610000000 1.0
C      1  0.5365020000000  0.4534660000000  0.5259580000000 1.0
C      1  0.4634970000000  0.4534680000000  0.4740400000000 1.0
C      1  0.5259590000000  0.5365030000000  0.4534670000000 1.0
C      1  0.4740390000000  0.4634990000000  0.4534660000000 1.0
C      1  0.5259600000000  0.4634960000000  0.5465320000000 1.0
C      1  0.4534660000000  0.4740420000000  0.4634980000000 1.0
C      1  0.5465330000000  0.5259600000000  0.4634980000000 1.0
C      1  0.4534680000000  0.5259590000000  0.5365040000000 1.0
C      1  0.4740420000000  0.5465330000000  0.5365040000000 1.0
C      1  0.5465330000000  0.5365020000000  0.4740400000000 1.0
C      1  0.5365030000000  0.4740390000000  0.5465320000000 1.0
C      1  0.5259600000000  0.5465340000000  0.4634980000000 1.0
C      1  0.5259600000000  0.4534650000000  0.5365010000000 1.0
C      1  0.4740390000000  0.4534680000000  0.4634970000000 1.0
C      1  0.4534680000000  0.5365020000000  0.5259610000000 1.0
C      1  0.4534660000000  0.4634990000000  0.4740400000000 1.0
C      1  0.5465330000000  0.4634960000000  0.5259580000000 1.0
C      1  0.4634970000000  0.4740420000000  0.4534670000000 1.0
C      1  0.4634990000000  0.5259590000000  0.5465350000000 1.0
C      1  0.5365020000000  0.5259600000000  0.4534670000000 1.0
C      1  0.4955940000000  0.5641650000000  0.5147000000000 1.0
C      1  0.5146990000000  0.4955910000000  0.5641650000000 1.0
C      1  0.5641660000000  0.5146970000000  0.4955920000000 1.0
C      1  0.5044080000000  0.5641660000000  0.4853030000000 1.0
C      1  0.4955920000000  0.4358350000000  0.4853000000000 1.0
C      1  0.5044060000000  0.4358340000000  0.5146970000000 1.0
C      1  0.4853000000000  0.4955950000000  0.4358340000000 1.0
C      1  0.5146970000000  0.5044090000000  0.4358340000000 1.0
C      1  0.4853030000000  0.5044060000000  0.5641660000000 1.0
C      1  0.4358350000000  0.5146990000000  0.5044090000000 1.0
C      1  0.5641660000000  0.4853010000000  0.5044060000000 1.0
C      1  0.4358340000000  0.4853030000000  0.4955940000000 1.0
C      1  0.5146990000000  0.5641660000000  0.4955940000000 1.0
C      1  0.5641660000000  0.4955920000000  0.5146970000000 1.0
C      1  0.4955940000000  0.5146970000000  0.5641660000000 1.0
C      1  0.4853030000000  0.5641660000000  0.5044090000000 1.0
C      1  0.4853010000000  0.4358350000000  0.4955920000000 1.0
C      1  0.5146970000000  0.4358340000000  0.5044050000000 1.0
C      1  0.4358340000000  0.4955940000000  0.4853030000000 1.0
C      1  0.4358350000000  0.5044080000000  0.5147000000000 1.0
C      1  0.5641660000000  0.5044070000000  0.4853010000000 1.0
C      1  0.5044060000000  0.5147000000000  0.4358350000000 1.0
C      1  0.5044080000000  0.4853000000000  0.5641650000000 1.0
C      1  0.4955910000000  0.4853030000000  0.4358340000000 1.0
C      1  0.5226300000000  0.4393880000000  0.4676330000000 1.0
C      1  0.4676340000000  0.5226340000000  0.4393890000000 1.0
C      1  0.4393880000000  0.4676350000000  0.5226320000000 1.0
C      1  0.4773680000000  0.4393870000000  0.5323640000000 1.0
C      1  0.5226330000000  0.5606110000000  0.5323660000000 1.0
C      1  0.4773690000000  0.5606130000000  0.4676370000000 1.0
C      1  0.5323660000000  0.5226300000000  0.5606120000000 1.0
C      1  0.4676360000000  0.4773670000000  0.5606120000000 1.0
C      1  0.5323640000000  0.4773700000000  0.4393860000000 1.0
C      1  0.5606110000000  0.4676350000000  0.4773660000000 1.0
C      1  0.4393880000000  0.5323660000000  0.4773700000000 1.0
C      1  0.5606130000000  0.5323640000000  0.5226310000000 1.0
C      1  0.4676350000000  0.4393880000000  0.5226310000000 1.0
C      1  0.4393870000000  0.5226330000000  0.4676370000000 1.0
C      1  0.5226300000000  0.4676360000000  0.4393860000000 1.0
C      1  0.5323640000000  0.4393880000000  0.4773660000000 1.0
C      1  0.5323660000000  0.5606110000000  0.5226330000000 1.0
C      1  0.4676350000000  0.5606130000000  0.4773710000000 1.0
C      1  0.5606130000000  0.5226300000000  0.5323640000000 1.0
C      1  0.5606110000000  0.4773680000000  0.4676330000000 1.0
C      1  0.4393880000000  0.4773680000000  0.5323660000000 1.0
C      1  0.4773690000000  0.4676340000000  0.5606120000000 1.0
C      1  0.4773680000000  0.5323670000000  0.4393890000000 1.0
C      1  0.5226330000000  0.5323630000000  0.5606130000000 1.0
C      1  0.5527040000000  0.4860110000000  0.4957930000000 1.0
C      1  0.4957950000000  0.5527050000000  0.4860130000000 1.0
C      1  0.4860120000000  0.4957930000000  0.5527050000000 1.0
C      1  0.4472950000000  0.4860120000000  0.5042060000000 1.0
C      1  0.5527050000000  0.5139880000000  0.5042050000000 1.0
C      1  0.4472960000000  0.5139890000000  0.4957960000000 1.0
C      1  0.5042070000000  0.5527040000000  0.5139900000000 1.0
C      1  0.4957940000000  0.4472950000000  0.5139870000000 1.0
C      1  0.5042040000000  0.4472960000000  0.4860100000000 1.0
C      1  0.5139870000000  0.4957960000000  0.4472950000000 1.0
C      1  0.4860110000000  0.5042070000000  0.4472960000000 1.0
C      1  0.5139890000000  0.5042040000000  0.5527040000000 1.0
C      1  0.4957950000000  0.4860100000000  0.5527040000000 1.0
C      1  0.4860120000000  0.5527050000000  0.4957960000000 1.0
C      1  0.5527040000000  0.4957940000000  0.4860100000000 1.0
C      1  0.5042040000000  0.4860130000000  0.4472950000000 1.0
C      1  0.5042070000000  0.5139870000000  0.5527050000000 1.0
C      1  0.4957940000000  0.5139900000000  0.4472960000000 1.0
C      1  0.5139890000000  0.5527040000000  0.5042070000000 1.0
C      1  0.5139880000000  0.4472950000000  0.4957930000000 1.0
C      1  0.4860110000000  0.4472960000000  0.5042040000000 1.0
C      1  0.4472960000000  0.4957950000000  0.5139890000000 1.0
C      1  0.4472950000000  0.5042070000000  0.4860130000000 1.0
C      1  0.5527050000000  0.5042040000000  0.5139880000000 1.0
C      1  0.4449670000000  0.5356170000000  0.5140910000000 1.0
C      1  0.5140890000000  0.4449660000000  0.5356150000000 1.0
C      1  0.5356160000000  0.5140900000000  0.4449660000000 1.0
C      1  0.5550340000000  0.5356160000000  0.4859110000000 1.0
C      1  0.4449660000000  0.4643850000000  0.4859110000000 1.0
C      1  0.5550330000000  0.4643830000000  0.5140870000000 1.0
C      1  0.4859100000000  0.4449680000000  0.4643830000000 1.0
C      1  0.5140890000000  0.5550340000000  0.4643850000000 1.0
C      1  0.4859130000000  0.5550330000000  0.5356180000000 1.0
C      1  0.4643850000000  0.5140880000000  0.5550340000000 1.0
C      1  0.5356170000000  0.4859090000000  0.5550320000000 1.0
C      1  0.4643820000000  0.4859130000000  0.4449670000000 1.0
C      1  0.5140880000000  0.5356170000000  0.4449670000000 1.0
C      1  0.5356160000000  0.4449660000000  0.5140870000000 1.0
C      1  0.4449680000000  0.5140890000000  0.5356180000000 1.0
C      1  0.4859130000000  0.5356150000000  0.5550350000000 1.0
C      1  0.4859100000000  0.4643850000000  0.4449660000000 1.0
C      1  0.5140890000000  0.4643820000000  0.5550320000000 1.0
C      1  0.4643830000000  0.4449680000000  0.4859100000000 1.0
C      1  0.4643850000000  0.5550340000000  0.5140910000000 1.0
C      1  0.5356170000000  0.5550330000000  0.4859120000000 1.0
C      1  0.5550330000000  0.5140890000000  0.4643830000000 1.0
C      1  0.5550340000000  0.4859090000000  0.5356150000000 1.0
C      1  0.4449660000000  0.4859130000000  0.4643840000000 1.0
C      1  0.5307570000000  0.4894540000000  0.4792210000000 1.0
C      1  0.4792220000000  0.5307580000000  0.4894550000000 1.0
C      1  0.4894540000000  0.4792210000000  0.5307580000000 1.0
C      1  0.4692420000000  0.4894540000000  0.5207780000000 1.0
C      1  0.5307580000000  0.5105450000000  0.5207780000000 1.0
C      1  0.4692420000000  0.5105470000000  0.4792230000000 1.0
C      1  0.5207790000000  0.5307570000000  0.5105460000000 1.0
C      1  0.4792220000000  0.4692420000000  0.5105450000000 1.0
C      1  0.5207770000000  0.4692420000000  0.4894530000000 1.0
C      1  0.5105450000000  0.4792220000000  0.4692410000000 1.0
C      1  0.4894540000000  0.5207790000000  0.4692430000000 1.0
C      1  0.5105470000000  0.5207770000000  0.5307580000000 1.0
C      1  0.4792220000000  0.4894540000000  0.5307580000000 1.0
C      1  0.4894540000000  0.5307590000000  0.4792230000000 1.0
C      1  0.5307570000000  0.4792220000000  0.4894530000000 1.0
C      1  0.5207770000000  0.4894550000000  0.4692410000000 1.0
C      1  0.5207790000000  0.5105450000000  0.5307580000000 1.0
C      1  0.4792210000000  0.5105470000000  0.4692430000000 1.0
C      1  0.5105470000000  0.5307570000000  0.5207790000000 1.0
C      1  0.5105450000000  0.4692420000000  0.4792210000000 1.0
C      1  0.4894540000000  0.4692420000000  0.5207780000000 1.0
C      1  0.4692420000000  0.4792220000000  0.5105460000000 1.0
C      1  0.4692420000000  0.5207790000000  0.4894550000000 1.0
C      1  0.5307580000000  0.5207770000000  0.5105460000000 1.0
C      1  0.5371710000000  0.5111540000000  0.5577820000000 1.0
C      1  0.5577830000000  0.5371690000000  0.5111560000000 1.0
C      1  0.5111580000000  0.5577810000000  0.5371710000000 1.0
C      1  0.4628290000000  0.5111580000000  0.4422180000000 1.0
C      1  0.5371690000000  0.4888450000000  0.4422160000000 1.0
C      1  0.4628310000000  0.4888430000000  0.5577830000000 1.0
C      1  0.4422180000000  0.5371710000000  0.4888460000000 1.0
C      1  0.5577820000000  0.4628290000000  0.4888420000000 1.0
C      1  0.4422170000000  0.4628310000000  0.5111570000000 1.0
C      1  0.4888440000000  0.5577840000000  0.4628320000000 1.0
C      1  0.5111550000000  0.4422180000000  0.4628280000000 1.0
C      1  0.4888430000000  0.4422170000000  0.5371690000000 1.0
C      1  0.5577830000000  0.5111550000000  0.5371690000000 1.0
C      1  0.5111580000000  0.5371680000000  0.5577830000000 1.0
C      1  0.5371710000000  0.5577820000000  0.5111570000000 1.0
C      1  0.4422170000000  0.5111580000000  0.4628310000000 1.0
C      1  0.4422180000000  0.4888430000000  0.5371710000000 1.0
C      1  0.5577820000000  0.4888440000000  0.4628290000000 1.0
C      1  0.4888430000000  0.5371720000000  0.4422190000000 1.0
C      1  0.4888440000000  0.4628290000000  0.5577820000000 1.0
C      1  0.5111550000000  0.4628310000000  0.4422160000000 1.0
C      1  0.4628310000000  0.5577830000000  0.4888460000000 1.0
C      1  0.4628290000000  0.4422180000000  0.5111560000000 1.0
C      1  0.5371690000000  0.4422170000000  0.4888410000000 1.0
C      1  0.4853050000000  0.5637090000000  0.5247780000000 1.0
C      1  0.5247770000000  0.4853020000000  0.5637080000000 1.0
C      1  0.5637090000000  0.5247750000000  0.4853030000000 1.0
C      1  0.5146970000000  0.5637090000000  0.4752260000000 1.0
C      1  0.4853020000000  0.4362920000000  0.4752230000000 1.0
C      1  0.5146960000000  0.4362900000000  0.5247740000000 1.0
C      1  0.4752230000000  0.4853060000000  0.4362910000000 1.0
C      1  0.5247750000000  0.5146980000000  0.4362910000000 1.0
C      1  0.4752260000000  0.5146950000000  0.5637100000000 1.0
C      1  0.4362920000000  0.5247760000000  0.5146980000000 1.0
C      1  0.5637090000000  0.4752230000000  0.5146950000000 1.0
C      1  0.4362900000000  0.4752260000000  0.4853040000000 1.0
C      1  0.5247760000000  0.5637090000000  0.4853050000000 1.0
C      1  0.5637090000000  0.4853020000000  0.5247740000000 1.0
C      1  0.4853050000000  0.5247740000000  0.5637100000000 1.0
C      1  0.4752260000000  0.5637090000000  0.5146980000000 1.0
C      1  0.4752230000000  0.4362920000000  0.4853030000000 1.0
C      1  0.5247750000000  0.4362900000000  0.5146940000000 1.0
C      1  0.4362900000000  0.4853050000000  0.4752250000000 1.0
C      1  0.4362920000000  0.5146970000000  0.5247770000000 1.0
C      1  0.5637090000000  0.5146960000000  0.4752240000000 1.0
C      1  0.5146950000000  0.5247770000000  0.4362910000000 1.0
C      1  0.5146970000000  0.4752220000000  0.5637080000000 1.0
C      1  0.4853020000000  0.4752260000000  0.4362910000000 1.0
END
