TITL C240-717352 100.320687073343 1000000 -1713.61789685452 0 0 240 (Ih) n - 1
REM
REM in /home/chem/mssmkc/work/CARBON/AIRSS/Generating-Clusters/Str-Search/GAP20/LAMMPS-RUNS
REM
REM
REM
REM
REM
REM C240.cell (abdb11a28f9c9460cdf00616ffa1a101)
REM
REM
REM
REM
REM
CELL 1.54180  100.00000  100.00000  100.00000   90.00000   90.00000   90.00000
LATT -1
SFAC C  
C      1  0.5292940000000  0.5281870000000  0.4240710000000 1.0
C      1  0.4718160000000  0.4240690000000  0.5292910000000 1.0
C      1  0.5330700000000  0.4619250000000  0.5698170000000 1.0
C      1  0.5517150000000  0.4856750000000  0.4326340000000 1.0
C      1  0.4301810000000  0.4669280000000  0.5380710000000 1.0
C      1  0.5143280000000  0.4326360000000  0.4482840000000 1.0
C      1  0.5698190000000  0.5330720000000  0.4619290000000 1.0
C      1  0.4669290000000  0.4619250000000  0.5698170000000 1.0
C      1  0.5759300000000  0.5292930000000  0.5281850000000 1.0
C      1  0.4152150000000  0.5061120000000  0.4861430000000 1.0
C      1  0.5292930000000  0.5281820000000  0.5759310000000 1.0
C      1  0.5138560000000  0.5847850000000  0.4938910000000 1.0
C      1  0.4240700000000  0.5292920000000  0.5281840000000 1.0
C      1  0.4619270000000  0.5698190000000  0.4669310000000 1.0
C      1  0.4707070000000  0.4718180000000  0.4240690000000 1.0
C      1  0.5759300000000  0.4707060000000  0.5281840000000 1.0
C      1  0.5380730000000  0.4301830000000  0.4669270000000 1.0
C      1  0.4718170000000  0.4240710000000  0.4707040000000 1.0
C      1  0.5698190000000  0.4669310000000  0.4619270000000 1.0
C      1  0.5281830000000  0.5759290000000  0.5292960000000 1.0
C      1  0.5380730000000  0.4301810000000  0.5330690000000 1.0
C      1  0.5281840000000  0.5759310000000  0.4707090000000 1.0
C      1  0.4669300000000  0.5380750000000  0.4301830000000 1.0
C      1  0.5673660000000  0.4482860000000  0.5143260000000 1.0
C      1  0.4707070000000  0.5281860000000  0.4240710000000 1.0
C      1  0.5138560000000  0.5847850000000  0.5061140000000 1.0
C      1  0.4445080000000  0.5242140000000  0.5612550000000 1.0
C      1  0.4861440000000  0.4152150000000  0.4938860000000 1.0
C      1  0.4669290000000  0.5380700000000  0.5698200000000 1.0
C      1  0.4482860000000  0.5143290000000  0.4326340000000 1.0
C      1  0.5698180000000  0.5330700000000  0.5380740000000 1.0
C      1  0.4856730000000  0.5673680000000  0.4482880000000 1.0
C      1  0.4301820000000  0.4669300000000  0.4619260000000 1.0
C      1  0.4387450000000  0.5554900000000  0.5242170000000 1.0
C      1  0.4482860000000  0.4856750000000  0.4326330000000 1.0
C      1  0.5517140000000  0.4856710000000  0.5673660000000 1.0
C      1  0.4718160000000  0.5759310000000  0.4707090000000 1.0
C      1  0.5330710000000  0.5380750000000  0.4301830000000 1.0
C      1  0.5061120000000  0.5138590000000  0.4152160000000 1.0
C      1  0.5242170000000  0.4387470000000  0.4445070000000 1.0
C      1  0.5292930000000  0.4718140000000  0.5759290000000 1.0
C      1  0.4861430000000  0.5847850000000  0.4938910000000 1.0
C      1  0.5847850000000  0.5061120000000  0.5138570000000 1.0
C      1  0.5554920000000  0.5242180000000  0.4387470000000 1.0
C      1  0.4707060000000  0.5281810000000  0.5759310000000 1.0
C      1  0.5061120000000  0.4861460000000  0.4152150000000 1.0
C      1  0.4757840000000  0.5612560000000  0.4445110000000 1.0
C      1  0.5330710000000  0.4619300000000  0.4301800000000 1.0
C      1  0.4301820000000  0.5330720000000  0.4619280000000 1.0
C      1  0.5281850000000  0.4240710000000  0.4707040000000 1.0
C      1  0.4669300000000  0.4619290000000  0.4301800000000 1.0
C      1  0.4938890000000  0.4861460000000  0.4152150000000 1.0
C      1  0.4482860000000  0.4856700000000  0.5673650000000 1.0
C      1  0.5612550000000  0.4445080000000  0.5242150000000 1.0
C      1  0.5517140000000  0.5143250000000  0.5673670000000 1.0
C      1  0.5517150000000  0.5143300000000  0.4326350000000 1.0
C      1  0.4152150000000  0.4938880000000  0.5138560000000 1.0
C      1  0.4861430000000  0.5847850000000  0.5061140000000 1.0
C      1  0.5061110000000  0.4861410000000  0.5847840000000 1.0
C      1  0.4757850000000  0.4387470000000  0.4445070000000 1.0
C      1  0.4326340000000  0.4482850000000  0.5143250000000 1.0
C      1  0.5847850000000  0.5061120000000  0.4861440000000 1.0
C      1  0.5554910000000  0.5242140000000  0.5612560000000 1.0
C      1  0.5242150000000  0.5612530000000  0.5554930000000 1.0
C      1  0.4387450000000  0.4445080000000  0.5242140000000 1.0
C      1  0.4387450000000  0.5554920000000  0.4757850000000 1.0
C      1  0.5612550000000  0.5554920000000  0.4757860000000 1.0
C      1  0.4938880000000  0.5138540000000  0.5847850000000 1.0
C      1  0.5292940000000  0.4718190000000  0.4240690000000 1.0
C      1  0.4326340000000  0.5517140000000  0.4856740000000 1.0
C      1  0.5673660000000  0.4482870000000  0.4856720000000 1.0
C      1  0.5242160000000  0.5612560000000  0.4445110000000 1.0
C      1  0.5673660000000  0.5517140000000  0.5143290000000 1.0
C      1  0.4326330000000  0.5517130000000  0.5143280000000 1.0
C      1  0.5138570000000  0.4152150000000  0.5061090000000 1.0
C      1  0.4152150000000  0.4938880000000  0.4861420000000 1.0
C      1  0.4482850000000  0.5143250000000  0.5673660000000 1.0
C      1  0.4707060000000  0.4718130000000  0.5759290000000 1.0
C      1  0.4240700000000  0.4707070000000  0.4718150000000 1.0
C      1  0.5281840000000  0.4240690000000  0.5292910000000 1.0
C      1  0.4938880000000  0.4861410000000  0.5847840000000 1.0
C      1  0.4757830000000  0.5612530000000  0.5554930000000 1.0
C      1  0.5847850000000  0.4938880000000  0.5138570000000 1.0
C      1  0.4240700000000  0.5292940000000  0.4718170000000 1.0
C      1  0.4619270000000  0.5698170000000  0.5330730000000 1.0
C      1  0.5759300000000  0.5292950000000  0.4718180000000 1.0
C      1  0.4445080000000  0.4757820000000  0.5612530000000 1.0
C      1  0.4757840000000  0.4387440000000  0.5554890000000 1.0
C      1  0.4387460000000  0.4445090000000  0.4757820000000 1.0
C      1  0.4718150000000  0.5759290000000  0.5292960000000 1.0
C      1  0.4861440000000  0.4152150000000  0.5061090000000 1.0
C      1  0.5554910000000  0.4757820000000  0.5612540000000 1.0
C      1  0.5330700000000  0.5380710000000  0.5698200000000 1.0
C      1  0.4240700000000  0.4707050000000  0.5281820000000 1.0
C      1  0.5847850000000  0.4938890000000  0.4861440000000 1.0
C      1  0.5061110000000  0.5138540000000  0.5847850000000 1.0
C      1  0.5242160000000  0.4387440000000  0.5554890000000 1.0
C      1  0.4152150000000  0.5061110000000  0.5138560000000 1.0
C      1  0.5759300000000  0.4707080000000  0.4718160000000 1.0
C      1  0.4938890000000  0.5138590000000  0.4152160000000 1.0
C      1  0.5612540000000  0.5554910000000  0.5242180000000 1.0
C      1  0.5612550000000  0.4445100000000  0.4757830000000 1.0
C      1  0.4856730000000  0.4326320000000  0.5517120000000 1.0
C      1  0.4445090000000  0.4757860000000  0.4387440000000 1.0
C      1  0.5143270000000  0.5673680000000  0.4482880000000 1.0
C      1  0.5698180000000  0.4669280000000  0.5380720000000 1.0
C      1  0.5554920000000  0.4757860000000  0.4387450000000 1.0
C      1  0.5143270000000  0.4326320000000  0.5517120000000 1.0
C      1  0.5138570000000  0.4152150000000  0.4938860000000 1.0
C      1  0.4856730000000  0.4326350000000  0.4482840000000 1.0
C      1  0.4301810000000  0.5330690000000  0.5380730000000 1.0
C      1  0.4445090000000  0.5242180000000  0.4387460000000 1.0
C      1  0.4856720000000  0.5673640000000  0.5517160000000 1.0
C      1  0.4619270000000  0.4301800000000  0.5330680000000 1.0
C      1  0.5380720000000  0.5698180000000  0.5330730000000 1.0
C      1  0.4619280000000  0.4301820000000  0.4669270000000 1.0
C      1  0.4326340000000  0.4482860000000  0.4856710000000 1.0
C      1  0.5673660000000  0.5517150000000  0.4856750000000 1.0
C      1  0.5380730000000  0.5698200000000  0.4669320000000 1.0
C      1  0.5143270000000  0.5673650000000  0.5517160000000 1.0
C      1  0.5070410000000  0.5744810000000  0.5417180000000 1.0
C      1  0.4255180000000  0.5417150000000  0.5070420000000 1.0
C      1  0.4555640000000  0.5602840000000  0.5415770000000 1.0
C      1  0.5372230000000  0.4441700000000  0.5532420000000 1.0
C      1  0.4584250000000  0.5444370000000  0.4397160000000 1.0
C      1  0.5558280000000  0.5532450000000  0.4627790000000 1.0
C      1  0.5415750000000  0.4555630000000  0.5602840000000 1.0
C      1  0.5444340000000  0.5602840000000  0.5415780000000 1.0
C      1  0.4582840000000  0.5070390000000  0.5744820000000 1.0
C      1  0.5072120000000  0.4167100000000  0.4813440000000 1.0
C      1  0.5070410000000  0.5744830000000  0.4582870000000 1.0
C      1  0.5186530000000  0.4927860000000  0.5832900000000 1.0
C      1  0.5417150000000  0.5070390000000  0.5744820000000 1.0
C      1  0.5602850000000  0.5415740000000  0.5444370000000 1.0
C      1  0.4929590000000  0.4255170000000  0.5417130000000 1.0
C      1  0.4582840000000  0.4929560000000  0.5744810000000 1.0
C      1  0.4397150000000  0.4584230000000  0.5444330000000 1.0
C      1  0.4255180000000  0.5417150000000  0.4929590000000 1.0
C      1  0.5415750000000  0.5444330000000  0.5602870000000 1.0
C      1  0.5744820000000  0.4582850000000  0.5070410000000 1.0
C      1  0.4397150000000  0.4584260000000  0.4555630000000 1.0
C      1  0.5744820000000  0.4582850000000  0.4929580000000 1.0
C      1  0.5444360000000  0.4397160000000  0.4584230000000 1.0
C      1  0.4467560000000  0.4627740000000  0.5558270000000 1.0
C      1  0.4929580000000  0.5744800000000  0.5417180000000 1.0
C      1  0.5186540000000  0.4927910000000  0.4167090000000 1.0
C      1  0.5142530000000  0.4210600000000  0.5300440000000 1.0
C      1  0.4813460000000  0.5072090000000  0.5832910000000 1.0
C      1  0.5444350000000  0.4397140000000  0.5415740000000 1.0
C      1  0.4627760000000  0.5558260000000  0.5532450000000 1.0
C      1  0.5415760000000  0.4555670000000  0.4397140000000 1.0
C      1  0.4441720000000  0.4467570000000  0.4627740000000 1.0
C      1  0.4584240000000  0.5444330000000  0.5602860000000 1.0
C      1  0.4699540000000  0.4857500000000  0.4210610000000 1.0
C      1  0.4627760000000  0.4441700000000  0.5532410000000 1.0
C      1  0.5372240000000  0.4441740000000  0.4467550000000 1.0
C      1  0.4255180000000  0.4582850000000  0.4929570000000 1.0
C      1  0.4555660000000  0.4397160000000  0.4584220000000 1.0
C      1  0.4167090000000  0.5186530000000  0.5072110000000 1.0
C      1  0.4210610000000  0.4699520000000  0.5142510000000 1.0
C      1  0.5070420000000  0.4255200000000  0.4582830000000 1.0
C      1  0.4813460000000  0.4927860000000  0.5832900000000 1.0
C      1  0.4927890000000  0.4167090000000  0.5186510000000 1.0
C      1  0.4857480000000  0.4210620000000  0.4699500000000 1.0
C      1  0.4929590000000  0.5744830000000  0.4582870000000 1.0
C      1  0.4167090000000  0.4813460000000  0.5072100000000 1.0
C      1  0.5789380000000  0.5300470000000  0.5142540000000 1.0
C      1  0.4555650000000  0.5602860000000  0.4584260000000 1.0
C      1  0.4584240000000  0.4555630000000  0.5602830000000 1.0
C      1  0.5744820000000  0.5417160000000  0.4929600000000 1.0
C      1  0.5444350000000  0.5602870000000  0.4584270000000 1.0
C      1  0.5832910000000  0.4813470000000  0.5072110000000 1.0
C      1  0.4627770000000  0.4441730000000  0.4467540000000 1.0
C      1  0.5300470000000  0.5142560000000  0.4210620000000 1.0
C      1  0.5372240000000  0.5558300000000  0.4467580000000 1.0
C      1  0.5372230000000  0.5558270000000  0.5532460000000 1.0
C      1  0.5072110000000  0.5832900000000  0.5186560000000 1.0
C      1  0.4813470000000  0.4927910000000  0.4167090000000 1.0
C      1  0.4167100000000  0.4813460000000  0.4927870000000 1.0
C      1  0.5789390000000  0.4699530000000  0.5142520000000 1.0
C      1  0.5532430000000  0.4627750000000  0.5558270000000 1.0
C      1  0.4927890000000  0.4167100000000  0.4813440000000 1.0
C      1  0.4857470000000  0.4210600000000  0.5300440000000 1.0
C      1  0.4210610000000  0.5300470000000  0.4857480000000 1.0
C      1  0.4699540000000  0.5142550000000  0.4210620000000 1.0
C      1  0.4699530000000  0.4857440000000  0.5789380000000 1.0
C      1  0.5300460000000  0.4857450000000  0.5789380000000 1.0
C      1  0.5832900000000  0.5186540000000  0.4927900000000 1.0
C      1  0.5070420000000  0.4255170000000  0.5417130000000 1.0
C      1  0.5532440000000  0.5372260000000  0.4441730000000 1.0
C      1  0.4467570000000  0.4627780000000  0.4441700000000 1.0
C      1  0.4210610000000  0.5300460000000  0.5142530000000 1.0
C      1  0.4467560000000  0.5372220000000  0.5558290000000 1.0
C      1  0.5532430000000  0.5372220000000  0.5558300000000 1.0
C      1  0.5186540000000  0.5072140000000  0.4167100000000 1.0
C      1  0.5072110000000  0.5832910000000  0.4813490000000 1.0
C      1  0.4627770000000  0.5558300000000  0.4467580000000 1.0
C      1  0.4929590000000  0.4255190000000  0.4582820000000 1.0
C      1  0.5417160000000  0.4929610000000  0.4255180000000 1.0
C      1  0.5744820000000  0.5417150000000  0.5070430000000 1.0
C      1  0.5832910000000  0.4813470000000  0.4927890000000 1.0
C      1  0.5789390000000  0.5300480000000  0.4857490000000 1.0
C      1  0.4927880000000  0.5832900000000  0.5186560000000 1.0
C      1  0.5417160000000  0.5070440000000  0.4255190000000 1.0
C      1  0.5602850000000  0.5415770000000  0.4555670000000 1.0
C      1  0.4582850000000  0.5070440000000  0.4255180000000 1.0
C      1  0.5142520000000  0.5789380000000  0.5300500000000 1.0
C      1  0.5789390000000  0.4699540000000  0.4857470000000 1.0
C      1  0.4699520000000  0.5142500000000  0.5789390000000 1.0
C      1  0.4255180000000  0.4582840000000  0.5070390000000 1.0
C      1  0.4813470000000  0.5072140000000  0.4167100000000 1.0
C      1  0.4857470000000  0.5789380000000  0.5300490000000 1.0
C      1  0.4555650000000  0.4397130000000  0.5415730000000 1.0
C      1  0.5417150000000  0.4929560000000  0.5744820000000 1.0
C      1  0.4927880000000  0.5832910000000  0.4813490000000 1.0
C      1  0.4167090000000  0.5186530000000  0.4927890000000 1.0
C      1  0.4210620000000  0.4699530000000  0.4857460000000 1.0
C      1  0.5072120000000  0.4167090000000  0.5186510000000 1.0
C      1  0.4582850000000  0.4929610000000  0.4255180000000 1.0
C      1  0.5832900000000  0.5186540000000  0.5072130000000 1.0
C      1  0.5300480000000  0.4857500000000  0.4210610000000 1.0
C      1  0.5300460000000  0.5142500000000  0.5789390000000 1.0
C      1  0.4441710000000  0.5532420000000  0.5372250000000 1.0
C      1  0.5142530000000  0.5789400000000  0.4699560000000 1.0
C      1  0.5558290000000  0.4467580000000  0.4627750000000 1.0
C      1  0.5415760000000  0.5444370000000  0.4397170000000 1.0
C      1  0.4857470000000  0.5789400000000  0.4699560000000 1.0
C      1  0.5558280000000  0.5532430000000  0.5372260000000 1.0
C      1  0.5186530000000  0.5072090000000  0.5832910000000 1.0
C      1  0.4441720000000  0.5532450000000  0.4627780000000 1.0
C      1  0.4584250000000  0.4555670000000  0.4397130000000 1.0
C      1  0.5142530000000  0.4210620000000  0.4699510000000 1.0
C      1  0.4441720000000  0.4467550000000  0.5372210000000 1.0
C      1  0.5602860000000  0.4584260000000  0.4555640000000 1.0
C      1  0.4397150000000  0.5415770000000  0.4555660000000 1.0
C      1  0.5602850000000  0.4584230000000  0.5444340000000 1.0
C      1  0.5532440000000  0.4627780000000  0.4441710000000 1.0
C      1  0.4467570000000  0.5372250000000  0.4441730000000 1.0
C      1  0.4397140000000  0.5415740000000  0.5444360000000 1.0
C      1  0.5558280000000  0.4467550000000  0.5372220000000 1.0
END
