TITL C240-736457 3.89930538379413 1000000 -1554.60748711912 0 0 240 () n - 1
REM
REM in /home/chem/mssmkc/work/CARBON/AIRSS/Generating-Clusters/Str-Search/GAP20/LAMMPS-RUNS
REM
REM
REM
REM
REM
REM C240.cell (14d4172b04f8770aaf3cc36f3e0171eb)
REM
REM
REM
REM
REM
CELL 1.54180  100.00000  100.00000  100.00000   90.00000   90.00000   90.00000
LATT -1
SFAC C  
C      1  0.5688300000000  0.4930120000000  0.5154060000000 1.0
C      1  0.5069190000000  0.5154840000000  0.5688070000000 1.0
C      1  0.5534620000000  0.5453130000000  0.5078590000000 1.0
C      1  0.4642930000000  0.4435490000000  0.4767520000000 1.0
C      1  0.4929550000000  0.4460670000000  0.4547970000000 1.0
C      1  0.5571630000000  0.4786980000000  0.5345450000000 1.0
C      1  0.5070450000000  0.5539330000000  0.5452030000000 1.0
C      1  0.4460900000000  0.5452130000000  0.5070550000000 1.0
C      1  0.4837500000000  0.5683510000000  0.4928420000000 1.0
C      1  0.4801680000000  0.4770900000000  0.5641930000000 1.0
C      1  0.5673090000000  0.4939610000000  0.4818800000000 1.0
C      1  0.4368330000000  0.5173180000000  0.5248880000000 1.0
C      1  0.5168650000000  0.5680010000000  0.4920780000000 1.0
C      1  0.5464860000000  0.5058410000000  0.4479790000000 1.0
C      1  0.4326910000000  0.5060390000000  0.5181200000000 1.0
C      1  0.4819120000000  0.4327260000000  0.4939650000000 1.0
C      1  0.4553950000000  0.4931000000000  0.4454130000000 1.0
C      1  0.5079310000000  0.5168830000000  0.4319680000000 1.0
C      1  0.5078530000000  0.4465550000000  0.5453360000000 1.0
C      1  0.4920690000000  0.4831170000000  0.5680320000000 1.0
C      1  0.4535130000000  0.4941590000000  0.5520210000000 1.0
C      1  0.4930810000000  0.4845160000000  0.4311930000000 1.0
C      1  0.4465380000000  0.4546870000000  0.4921410000000 1.0
C      1  0.5213270000000  0.5346070000000  0.5571690000000 1.0
C      1  0.4319550000000  0.4920820000000  0.5168880000000 1.0
C      1  0.4357260000000  0.5176950000000  0.4770070000000 1.0
C      1  0.5491930000000  0.5180530000000  0.5472400000000 1.0
C      1  0.5642740000000  0.4823050000000  0.5229920000000 1.0
C      1  0.4479970000000  0.4535650000000  0.5058210000000 1.0
C      1  0.5345780000000  0.5570480000000  0.4766270000000 1.0
C      1  0.5058290000000  0.5519920000000  0.4535420000000 1.0
C      1  0.4435020000000  0.5232550000000  0.5357380000000 1.0
C      1  0.4941710000000  0.4480080000000  0.5464580000000 1.0
C      1  0.4547510000000  0.4493180000000  0.5172950000000 1.0
C      1  0.5345810000000  0.4428460000000  0.4786400000000 1.0
C      1  0.4654220000000  0.4429520000000  0.5233730000000 1.0
C      1  0.5071790000000  0.4837500000000  0.4315910000000 1.0
C      1  0.5539100000000  0.4547870000000  0.4929450000000 1.0
C      1  0.4751340000000  0.4368700000000  0.4826920000000 1.0
C      1  0.5198450000000  0.4529350000000  0.5492340000000 1.0
C      1  0.5680450000000  0.5079180000000  0.4831120000000 1.0
C      1  0.5635870000000  0.5172360000000  0.5244210000000 1.0
C      1  0.5173510000000  0.4756340000000  0.4363660000000 1.0
C      1  0.4497700000000  0.5172710000000  0.4542130000000 1.0
C      1  0.4316180000000  0.4928870000000  0.4837400000000 1.0
C      1  0.4756400000000  0.5635780000000  0.4826660000000 1.0
C      1  0.4820330000000  0.5471760000000  0.5492590000000 1.0
C      1  0.5520030000000  0.5464350000000  0.4941790000000 1.0
C      1  0.4931810000000  0.5545160000000  0.5446660000000 1.0
C      1  0.4939740000000  0.5180910000000  0.4327030000000 1.0
C      1  0.4454930000000  0.5446580000000  0.4931930000000 1.0
C      1  0.5228990000000  0.5641590000000  0.4801800000000 1.0
C      1  0.5358130000000  0.4435280000000  0.5211240000000 1.0
C      1  0.5470820000000  0.5492090000000  0.5198480000000 1.0
C      1  0.4654190000000  0.5571540000000  0.5213600000000 1.0
C      1  0.4641870000000  0.5564720000000  0.4788760000000 1.0
C      1  0.4827000000000  0.5248600000000  0.4368530000000 1.0
C      1  0.5641970000000  0.5198230000000  0.4770940000000 1.0
C      1  0.4769570000000  0.5642370000000  0.5176620000000 1.0
C      1  0.4826910000000  0.4547550000000  0.5506990000000 1.0
C      1  0.4788780000000  0.5358180000000  0.5565170000000 1.0
C      1  0.5173000000000  0.4751400000000  0.5631470000000 1.0
C      1  0.4507340000000  0.5198390000000  0.5471160000000 1.0
C      1  0.5173090000000  0.5452450000000  0.4493010000000 1.0
C      1  0.4541330000000  0.5502080000000  0.5174490000000 1.0
C      1  0.4529180000000  0.4507910000000  0.4801520000000 1.0
C      1  0.5458670000000  0.4497920000000  0.4825510000000 1.0
C      1  0.5243600000000  0.4364220000000  0.5173340000000 1.0
C      1  0.5683820000000  0.5071130000000  0.5162600000000 1.0
C      1  0.4786730000000  0.4653930000000  0.4428310000000 1.0
C      1  0.5233950000000  0.5345810000000  0.4429290000000 1.0
C      1  0.5174390000000  0.5458910000000  0.5502080000000 1.0
C      1  0.5232560000000  0.4643040000000  0.5564780000000 1.0
C      1  0.4766050000000  0.4654190000000  0.5570710000000 1.0
C      1  0.4364130000000  0.4827640000000  0.4755790000000 1.0
C      1  0.4826490000000  0.5243660000000  0.5636340000000 1.0
C      1  0.5357070000000  0.5564510000000  0.5232480000000 1.0
C      1  0.4311700000000  0.5069880000000  0.4845940000000 1.0
C      1  0.5162500000000  0.4316490000000  0.5071580000000 1.0
C      1  0.4928210000000  0.5162500000000  0.5684090000000 1.0
C      1  0.5248650000000  0.5631300000000  0.5173080000000 1.0
C      1  0.4801550000000  0.5470650000000  0.4507660000000 1.0
C      1  0.5198320000000  0.5229100000000  0.4358070000000 1.0
C      1  0.5180880000000  0.5672740000000  0.5060350000000 1.0
C      1  0.5446050000000  0.5069000000000  0.5545870000000 1.0
C      1  0.4845340000000  0.5687630000000  0.5069390000000 1.0
C      1  0.5502300000000  0.4827290000000  0.5457870000000 1.0
C      1  0.4825610000000  0.4541090000000  0.4497920000000 1.0
C      1  0.4528190000000  0.5492260000000  0.4820270000000 1.0
C      1  0.5060260000000  0.4819090000000  0.5672970000000 1.0
C      1  0.5631670000000  0.4826820000000  0.4751120000000 1.0
C      1  0.4492810000000  0.4826870000000  0.5452550000000 1.0
C      1  0.5545070000000  0.4553420000000  0.5068070000000 1.0
C      1  0.5154660000000  0.4312370000000  0.4930610000000 1.0
C      1  0.5176250000000  0.5230750000000  0.5642620000000 1.0
C      1  0.4771010000000  0.4358410000000  0.5198200000000 1.0
C      1  0.5179670000000  0.4528240000000  0.4507410000000 1.0
C      1  0.4823750000000  0.4769250000000  0.4357380000000 1.0
C      1  0.4831350000000  0.4319990000000  0.5079220000000 1.0
C      1  0.5230430000000  0.4357630000000  0.4823380000000 1.0
C      1  0.5471810000000  0.4507740000000  0.5179730000000 1.0
C      1  0.5452490000000  0.5506820000000  0.4827050000000 1.0
C      1  0.4435320000000  0.4789440000000  0.4641500000000 1.0
C      1  0.5492660000000  0.4801610000000  0.4528840000000 1.0
C      1  0.5564680000000  0.5210560000000  0.5358500000000 1.0
C      1  0.5068190000000  0.4454840000000  0.4553340000000 1.0
C      1  0.4508070000000  0.4819470000000  0.4527600000000 1.0
C      1  0.5564980000000  0.4767450000000  0.4642620000000 1.0
C      1  0.4358030000000  0.4801770000000  0.5229060000000 1.0
C      1  0.4429210000000  0.4766120000000  0.5345770000000 1.0
C      1  0.4921470000000  0.5534450000000  0.4546640000000 1.0
C      1  0.5507190000000  0.5173130000000  0.4547450000000 1.0
C      1  0.4428370000000  0.5213020000000  0.4654550000000 1.0
C      1  0.5452280000000  0.4930430000000  0.5539060000000 1.0
C      1  0.4546280000000  0.5078410000000  0.5534890000000 1.0
C      1  0.5453720000000  0.4921590000000  0.4465110000000 1.0
C      1  0.4767440000000  0.5356960000000  0.4435220000000 1.0
C      1  0.5211220000000  0.4641820000000  0.4434830000000 1.0
C      1  0.4547720000000  0.5069570000000  0.4460940000000 1.0
C      1  0.5570790000000  0.5233880000000  0.4654230000000 1.0
C      1  0.5468560000000  0.4691790000000  0.5069820000000 1.0
C      1  0.5307930000000  0.5070370000000  0.5469160000000 1.0
C      1  0.5508380000000  0.5205180000000  0.4857510000000 1.0
C      1  0.4569460000000  0.4770930000000  0.4725720000000 1.0
C      1  0.5142490000000  0.4489530000000  0.4813500000000 1.0
C      1  0.5246540000000  0.4727820000000  0.5430230000000 1.0
C      1  0.4857510000000  0.5510470000000  0.5186500000000 1.0
C      1  0.4489260000000  0.5186430000000  0.4857860000000 1.0
C      1  0.4918540000000  0.5460590000000  0.4686660000000 1.0
C      1  0.4922950000000  0.5071010000000  0.5555430000000 1.0
C      1  0.5465190000000  0.4689750000000  0.4923990000000 1.0
C      1  0.4443300000000  0.5071800000000  0.4934900000000 1.0
C      1  0.5065400000000  0.5451490000000  0.4679900000000 1.0
C      1  0.5188790000000  0.4849100000000  0.4493780000000 1.0
C      1  0.4534810000000  0.5310250000000  0.5076010000000 1.0
C      1  0.4924210000000  0.4534740000000  0.4689720000000 1.0
C      1  0.4810700000000  0.5155270000000  0.4496300000000 1.0
C      1  0.5320300000000  0.5065400000000  0.4548040000000 1.0
C      1  0.4857550000000  0.4492000000000  0.5205270000000 1.0
C      1  0.4679700000000  0.4934600000000  0.5451960000000 1.0
C      1  0.4811210000000  0.5150900000000  0.5506220000000 1.0
C      1  0.4692070000000  0.4929630000000  0.4530840000000 1.0
C      1  0.4491620000000  0.4794820000000  0.5142490000000 1.0
C      1  0.5272480000000  0.5430000000000  0.5246300000000 1.0
C      1  0.4548220000000  0.4680150000000  0.5065300000000 1.0
C      1  0.4452880000000  0.5067670000000  0.5084600000000 1.0
C      1  0.5390900000000  0.5355520000000  0.5205870000000 1.0
C      1  0.5547120000000  0.4932330000000  0.4915400000000 1.0
C      1  0.4494180000000  0.4811970000000  0.4848930000000 1.0
C      1  0.5435430000000  0.5247810000000  0.4735460000000 1.0
C      1  0.4849060000000  0.5505580000000  0.4811440000000 1.0
C      1  0.4770170000000  0.5274110000000  0.5431020000000 1.0
C      1  0.5150940000000  0.4494420000000  0.5188560000000 1.0
C      1  0.4809510000000  0.4620260000000  0.5365630000000 1.0
C      1  0.5430410000000  0.4753640000000  0.4727200000000 1.0
C      1  0.4564570000000  0.4752190000000  0.5264540000000 1.0
C      1  0.5313580000000  0.4918550000000  0.4538750000000 1.0
C      1  0.5510740000000  0.4813570000000  0.5142140000000 1.0
C      1  0.5065510000000  0.4443860000000  0.4928380000000 1.0
C      1  0.5362520000000  0.4810110000000  0.5384750000000 1.0
C      1  0.5451780000000  0.5319850000000  0.4934700000000 1.0
C      1  0.5550890000000  0.5082210000000  0.4922840000000 1.0
C      1  0.5082430000000  0.5077090000000  0.4449240000000 1.0
C      1  0.4606640000000  0.5354880000000  0.4810110000000 1.0
C      1  0.4539020000000  0.4687080000000  0.4918380000000 1.0
C      1  0.5077010000000  0.5550380000000  0.4917730000000 1.0
C      1  0.4643840000000  0.5205770000000  0.5391250000000 1.0
C      1  0.5505820000000  0.5188030000000  0.5151070000000 1.0
C      1  0.5155470000000  0.5503440000000  0.5189210000000 1.0
C      1  0.4689890000000  0.5075370000000  0.4534670000000 1.0
C      1  0.4496260000000  0.5189320000000  0.5155750000000 1.0
C      1  0.4928900000000  0.5554810000000  0.4923220000000 1.0
C      1  0.5435810000000  0.4768800000000  0.5264000000000 1.0
C      1  0.5190560000000  0.5385110000000  0.5362560000000 1.0
C      1  0.4569590000000  0.5246360000000  0.5272800000000 1.0
C      1  0.4564190000000  0.5231200000000  0.4736000000000 1.0
C      1  0.4928680000000  0.4934430000000  0.4443380000000 1.0
C      1  0.5555400000000  0.5076560000000  0.5070990000000 1.0
C      1  0.5084270000000  0.5546760000000  0.5067610000000 1.0
C      1  0.4634230000000  0.4809620000000  0.5379950000000 1.0
C      1  0.4735730000000  0.5435720000000  0.5231760000000 1.0
C      1  0.5071320000000  0.5065570000000  0.5556620000000 1.0
C      1  0.4614920000000  0.5362490000000  0.5190890000000 1.0
C      1  0.5365770000000  0.5190370000000  0.4620050000000 1.0
C      1  0.4810080000000  0.5393270000000  0.5355270000000 1.0
C      1  0.4809440000000  0.4614890000000  0.4637440000000 1.0
C      1  0.5189920000000  0.4606730000000  0.4644730000000 1.0
C      1  0.4922990000000  0.4449620000000  0.5082270000000 1.0
C      1  0.5460980000000  0.5312920000000  0.5081620000000 1.0
C      1  0.4727520000000  0.4570000000000  0.4753700000000 1.0
C      1  0.5264560000000  0.5435150000000  0.4752140000000 1.0
C      1  0.5354790000000  0.5190130000000  0.5393740000000 1.0
C      1  0.5274170000000  0.4569490000000  0.5229740000000 1.0
C      1  0.4735440000000  0.4564850000000  0.5247870000000 1.0
C      1  0.4449110000000  0.4917790000000  0.5077160000000 1.0
C      1  0.4917570000000  0.4922910000000  0.5550760000000 1.0
C      1  0.5430540000000  0.5229070000000  0.5274280000000 1.0
C      1  0.4531440000000  0.5308210000000  0.4930180000000 1.0
C      1  0.5081460000000  0.4539410000000  0.5313340000000 1.0
C      1  0.4686420000000  0.5081450000000  0.5461250000000 1.0
C      1  0.4934490000000  0.5556140000000  0.5071620000000 1.0
C      1  0.4637480000000  0.5189890000000  0.4615250000000 1.0
C      1  0.5077050000000  0.4928990000000  0.4444570000000 1.0
C      1  0.5075790000000  0.5465260000000  0.5310280000000 1.0
C      1  0.5189300000000  0.4844730000000  0.5503700000000 1.0
C      1  0.4929990000000  0.5468560000000  0.5308330000000 1.0
C      1  0.5393360000000  0.4645120000000  0.5189890000000 1.0
C      1  0.4645210000000  0.4809870000000  0.4606260000000 1.0
C      1  0.4794180000000  0.5390610000000  0.4644030000000 1.0
C      1  0.5310110000000  0.4924630000000  0.5465330000000 1.0
C      1  0.5556700000000  0.4928200000000  0.5065100000000 1.0
C      1  0.4620130000000  0.4634590000000  0.5190350000000 1.0
C      1  0.5503740000000  0.4810680000000  0.4844250000000 1.0
C      1  0.5070010000000  0.4531440000000  0.4691670000000 1.0
C      1  0.5067510000000  0.4915770000000  0.5547070000000 1.0
C      1  0.5071100000000  0.4445190000000  0.5076780000000 1.0
C      1  0.5356160000000  0.4794230000000  0.4608750000000 1.0
C      1  0.4932490000000  0.5084230000000  0.4452930000000 1.0
C      1  0.4934600000000  0.4548510000000  0.5320100000000 1.0
C      1  0.4915730000000  0.4453240000000  0.4932390000000 1.0
C      1  0.5205820000000  0.4609390000000  0.5355970000000 1.0
C      1  0.5190490000000  0.5379740000000  0.4634370000000 1.0
C      1  0.4768830000000  0.4735590000000  0.4564090000000 1.0
C      1  0.5385080000000  0.4637510000000  0.4809110000000 1.0
C      1  0.5231170000000  0.5264410000000  0.5435910000000 1.0
C      1  0.4844530000000  0.4496560000000  0.4810790000000 1.0
C      1  0.4609100000000  0.4644480000000  0.4794130000000 1.0
C      1  0.5229830000000  0.4725890000000  0.4568980000000 1.0
C      1  0.4444600000000  0.4923440000000  0.4929010000000 1.0
C      1  0.4751930000000  0.4735490000000  0.5435420000000 1.0
C      1  0.5142450000000  0.5508000000000  0.4794730000000 1.0
C      1  0.5379870000000  0.5365410000000  0.4809650000000 1.0
C      1  0.4753460000000  0.5272180000000  0.4569770000000 1.0
C      1  0.5185950000000  0.5142730000000  0.5510800000000 1.0
C      1  0.4794540000000  0.4857510000000  0.5508390000000 1.0
C      1  0.5205460000000  0.5142490000000  0.4491610000000 1.0
C      1  0.4725830000000  0.5430510000000  0.4770260000000 1.0
C      1  0.5264270000000  0.4564280000000  0.4768240000000 1.0
C      1  0.4814050000000  0.4857270000000  0.4489200000000 1.0
C      1  0.5248070000000  0.5264510000000  0.4564580000000 1.0
END
