TITL C240-764979 -82.2880796413198 1000000 -1635.83401982517 0 0 240 (C1) n - 1
REM
REM in /home/chem/mssmkc/work/CARBON/AIRSS/Generating-Clusters/Str-Search/GAP20/LAMMPS-RUNS
REM
REM
REM
REM
REM
REM C240.cell (3905d14aa988057bf0cfa9ba23f2e14f)
REM
REM
REM
REM
REM
CELL 1.54180  100.00000  100.00000  100.00000   90.00000   90.00000   90.00000
LATT -1
SFAC C  
C      1  0.5271780000000  0.4333610000000  0.5347160000000 1.0
C      1  0.4653450000000  0.4736010000000  0.4331590000000 1.0
C      1  0.4328700000000  0.5348910000000  0.4735100000000 1.0
C      1  0.4248390000000  0.4999860000000  0.4999910000000 1.0
C      1  0.4999850000000  0.5763280000000  0.4995600000000 1.0
C      1  0.5001940000000  0.4244050000000  0.4997210000000 1.0
C      1  0.4647440000000  0.4731220000000  0.5670800000000 1.0
C      1  0.5770110000000  0.5002110000000  0.5004000000000 1.0
C      1  0.5385370000000  0.5234030000000  0.5623530000000 1.0
C      1  0.4996960000000  0.4998820000000  0.4241780000000 1.0
C      1  0.5671720000000  0.4649010000000  0.4728390000000 1.0
C      1  0.5350930000000  0.5276490000000  0.4331570000000 1.0
C      1  0.4737400000000  0.4329960000000  0.4652560000000 1.0
C      1  0.5235180000000  0.5621200000000  0.4618680000000 1.0
C      1  0.4727680000000  0.5673260000000  0.5355530000000 1.0
C      1  0.4998720000000  0.5000810000000  0.5765440000000 1.0
C      1  0.5622800000000  0.5381780000000  0.5233100000000 1.0
C      1  0.4733430000000  0.5672700000000  0.4651080000000 1.0
C      1  0.4333470000000  0.5348610000000  0.5265380000000 1.0
C      1  0.4328620000000  0.4651180000000  0.4735260000000 1.0
C      1  0.5274070000000  0.5660970000000  0.5346820000000 1.0
C      1  0.5232070000000  0.4381410000000  0.4619140000000 1.0
C      1  0.5624710000000  0.4614680000000  0.5233740000000 1.0
C      1  0.4729060000000  0.4326810000000  0.5354570000000 1.0
C      1  0.4332420000000  0.4651080000000  0.5264950000000 1.0
C      1  0.5626800000000  0.5389860000000  0.4762990000000 1.0
C      1  0.4652290000000  0.5266950000000  0.5668680000000 1.0
C      1  0.5350580000000  0.4731400000000  0.5669500000000 1.0
C      1  0.4653330000000  0.5264670000000  0.4331670000000 1.0
C      1  0.5352290000000  0.4725100000000  0.4329200000000 1.0
C      1  0.4791300000000  0.5631920000000  0.4551400000000 1.0
C      1  0.5452250000000  0.5270970000000  0.5731180000000 1.0
C      1  0.5735240000000  0.4550520000000  0.5268130000000 1.0
C      1  0.5901770000000  0.5005950000000  0.5009270000000 1.0
C      1  0.5006640000000  0.4112310000000  0.4988230000000 1.0
C      1  0.5003990000000  0.5895140000000  0.4987010000000 1.0
C      1  0.5453940000000  0.5220950000000  0.4368210000000 1.0
C      1  0.4116140000000  0.4999720000000  0.5000360000000 1.0
C      1  0.4553270000000  0.4794000000000  0.4370140000000 1.0
C      1  0.4999820000000  0.5003400000000  0.5897530000000 1.0
C      1  0.4372500000000  0.5449140000000  0.5208460000000 1.0
C      1  0.4549000000000  0.4790720000000  0.5630150000000 1.0
C      1  0.5217350000000  0.5623060000000  0.5448510000000 1.0
C      1  0.4785800000000  0.4366670000000  0.5455130000000 1.0
C      1  0.5262420000000  0.4267500000000  0.4559270000000 1.0
C      1  0.4988210000000  0.4997890000000  0.4109660000000 1.0
C      1  0.4367000000000  0.4550840000000  0.4793240000000 1.0
C      1  0.5212710000000  0.4367220000000  0.5448900000000 1.0
C      1  0.5627440000000  0.4551470000000  0.4787960000000 1.0
C      1  0.5731930000000  0.5446510000000  0.5268790000000 1.0
C      1  0.4796410000000  0.4370650000000  0.4553550000000 1.0
C      1  0.4785050000000  0.5632210000000  0.5455310000000 1.0
C      1  0.4366990000000  0.5449330000000  0.4792980000000 1.0
C      1  0.5271710000000  0.5731910000000  0.4556830000000 1.0
C      1  0.5734660000000  0.5457820000000  0.4729470000000 1.0
C      1  0.4371690000000  0.4550650000000  0.5208010000000 1.0
C      1  0.5454850000000  0.4782860000000  0.4363340000000 1.0
C      1  0.4553320000000  0.5206580000000  0.4370480000000 1.0
C      1  0.5449030000000  0.4789670000000  0.5625560000000 1.0
C      1  0.4552360000000  0.5209430000000  0.5628880000000 1.0
C      1  0.4988270000000  0.4468260000000  0.4702820000000 1.0
C      1  0.4418600000000  0.4800510000000  0.4931100000000 1.0
C      1  0.4679700000000  0.5389570000000  0.5433350000000 1.0
C      1  0.4677020000000  0.4608550000000  0.5436180000000 1.0
C      1  0.5188330000000  0.5057440000000  0.5586140000000 1.0
C      1  0.5577510000000  0.5178770000000  0.5063480000000 1.0
C      1  0.4611070000000  0.4563860000000  0.5324750000000 1.0
C      1  0.4804200000000  0.5068610000000  0.4419790000000 1.0
C      1  0.5404790000000  0.5308210000000  0.5366290000000 1.0
C      1  0.4673540000000  0.5393780000000  0.4563570000000 1.0
C      1  0.4612840000000  0.5435090000000  0.5322860000000 1.0
C      1  0.4997660000000  0.4439640000000  0.5316420000000 1.0
C      1  0.5321030000000  0.5000140000000  0.4426080000000 1.0
C      1  0.5056520000000  0.4433210000000  0.4815450000000 1.0
C      1  0.4997200000000  0.5566190000000  0.5314550000000 1.0
C      1  0.4692610000000  0.5000210000000  0.4457460000000 1.0
C      1  0.4920070000000  0.5583040000000  0.4810470000000 1.0
C      1  0.5207360000000  0.5067640000000  0.4393990000000 1.0
C      1  0.4418850000000  0.5199320000000  0.5067430000000 1.0
C      1  0.5599640000000  0.4809100000000  0.4921420000000 1.0
C      1  0.5390730000000  0.4588730000000  0.4683430000000 1.0
C      1  0.4562510000000  0.5327270000000  0.4607920000000 1.0
C      1  0.4569290000000  0.5322930000000  0.5388140000000 1.0
C      1  0.5371020000000  0.4573980000000  0.5321310000000 1.0
C      1  0.5310820000000  0.4612160000000  0.5436640000000 1.0
C      1  0.5297760000000  0.5377440000000  0.5412960000000 1.0
C      1  0.5370900000000  0.5403560000000  0.4687580000000 1.0
C      1  0.4804280000000  0.4931850000000  0.4420040000000 1.0
C      1  0.5589860000000  0.4811860000000  0.5057060000000 1.0
C      1  0.4418200000000  0.5199510000000  0.4930940000000 1.0
C      1  0.5190520000000  0.4921970000000  0.5592280000000 1.0
C      1  0.4987220000000  0.5541510000000  0.4700220000000 1.0
C      1  0.5299260000000  0.4988900000000  0.5546500000000 1.0
C      1  0.4454550000000  0.5311510000000  0.4999240000000 1.0
C      1  0.4673220000000  0.4606590000000  0.4563020000000 1.0
C      1  0.4561870000000  0.4672810000000  0.4607160000000 1.0
C      1  0.5066140000000  0.4407730000000  0.5203050000000 1.0
C      1  0.4690690000000  0.4999000000000  0.5552240000000 1.0
C      1  0.5551180000000  0.4701260000000  0.4987590000000 1.0
C      1  0.5207800000000  0.4931190000000  0.4396390000000 1.0
C      1  0.4567040000000  0.4675700000000  0.5390190000000 1.0
C      1  0.4802300000000  0.5066700000000  0.5590440000000 1.0
C      1  0.5584980000000  0.5180790000000  0.4928020000000 1.0
C      1  0.5324240000000  0.4632050000000  0.4572070000000 1.0
C      1  0.5308150000000  0.5362920000000  0.4573970000000 1.0
C      1  0.5420930000000  0.5300340000000  0.4614400000000 1.0
C      1  0.4928370000000  0.5604110000000  0.5204000000000 1.0
C      1  0.4455080000000  0.4688490000000  0.4999390000000 1.0
C      1  0.4800480000000  0.4929880000000  0.5592980000000 1.0
C      1  0.5538080000000  0.5289060000000  0.4994630000000 1.0
C      1  0.4419180000000  0.4800620000000  0.5067610000000 1.0
C      1  0.5361920000000  0.5419970000000  0.5301660000000 1.0
C      1  0.4604330000000  0.4560340000000  0.4672430000000 1.0
C      1  0.4920660000000  0.4425600000000  0.4812600000000 1.0
C      1  0.5415840000000  0.4684100000000  0.5388960000000 1.0
C      1  0.5439660000000  0.4692240000000  0.4610160000000 1.0
C      1  0.4604780000000  0.5439890000000  0.4673110000000 1.0
C      1  0.5056060000000  0.5575490000000  0.4812850000000 1.0
C      1  0.5064860000000  0.5601900000000  0.5201810000000 1.0
C      1  0.4929580000000  0.4403230000000  0.5204870000000 1.0
C      1  0.5001330000000  0.5139150000000  0.4325410000000 1.0
C      1  0.4786890000000  0.5297820000000  0.4381840000000 1.0
C      1  0.5463290000000  0.5140040000000  0.5506370000000 1.0
C      1  0.5493280000000  0.4868350000000  0.5509540000000 1.0
C      1  0.4699270000000  0.5627850000000  0.5219100000000 1.0
C      1  0.5212760000000  0.4695400000000  0.5631040000000 1.0
C      1  0.4869840000000  0.4488500000000  0.4506870000000 1.0
C      1  0.5280390000000  0.5593050000000  0.4772410000000 1.0
C      1  0.5507480000000  0.4538810000000  0.5140110000000 1.0
C      1  0.5504920000000  0.5134740000000  0.4476800000000 1.0
C      1  0.4866930000000  0.5515140000000  0.4505510000000 1.0
C      1  0.5000370000000  0.5140160000000  0.5680540000000 1.0
C      1  0.5684300000000  0.4998210000000  0.5146320000000 1.0
C      1  0.5598290000000  0.4770230000000  0.5280280000000 1.0
C      1  0.4996530000000  0.4854570000000  0.5685480000000 1.0
C      1  0.4332530000000  0.4999890000000  0.5138650000000 1.0
C      1  0.4382720000000  0.5214480000000  0.5296400000000 1.0
C      1  0.4696020000000  0.5627070000000  0.4785180000000 1.0
C      1  0.4782730000000  0.4699830000000  0.5624760000000 1.0
C      1  0.5212340000000  0.5300560000000  0.4374180000000 1.0
C      1  0.5132100000000  0.4479110000000  0.5501330000000 1.0
C      1  0.4484570000000  0.4502290000000  0.4865690000000 1.0
C      1  0.4488220000000  0.4502680000000  0.5133890000000 1.0
C      1  0.5142480000000  0.4497200000000  0.4538900000000 1.0
C      1  0.4505130000000  0.4866180000000  0.5512760000000 1.0
C      1  0.4506950000000  0.5133700000000  0.5512110000000 1.0
C      1  0.5131950000000  0.5513240000000  0.5497970000000 1.0
C      1  0.5279180000000  0.4410870000000  0.4772570000000 1.0
C      1  0.5227050000000  0.5280580000000  0.5604150000000 1.0
C      1  0.4786930000000  0.4703010000000  0.4382210000000 1.0
C      1  0.4700260000000  0.4373960000000  0.5219100000000 1.0
C      1  0.5002020000000  0.4859730000000  0.4326840000000 1.0
C      1  0.5695910000000  0.5001880000000  0.4850370000000 1.0
C      1  0.5139110000000  0.5675680000000  0.4998070000000 1.0
C      1  0.5505460000000  0.4867740000000  0.4473750000000 1.0
C      1  0.4484330000000  0.5497930000000  0.4865740000000 1.0
C      1  0.5635030000000  0.4787800000000  0.4693320000000 1.0
C      1  0.4331550000000  0.4999950000000  0.4860460000000 1.0
C      1  0.4855970000000  0.4321900000000  0.5003920000000 1.0
C      1  0.4697850000000  0.4375630000000  0.4785960000000 1.0
C      1  0.4488490000000  0.5497280000000  0.5133650000000 1.0
C      1  0.5298200000000  0.5619430000000  0.5207590000000 1.0
C      1  0.5215960000000  0.4699730000000  0.4377560000000 1.0
C      1  0.4505540000000  0.4866570000000  0.4488000000000 1.0
C      1  0.4505730000000  0.5133860000000  0.4488200000000 1.0
C      1  0.5511240000000  0.4508750000000  0.4867520000000 1.0
C      1  0.4379190000000  0.5215470000000  0.4702460000000 1.0
C      1  0.5139640000000  0.4331460000000  0.4999930000000 1.0
C      1  0.5298410000000  0.4383230000000  0.5211580000000 1.0
C      1  0.4853790000000  0.5684540000000  0.5002820000000 1.0
C      1  0.4787390000000  0.5297040000000  0.5620390000000 1.0
C      1  0.5138450000000  0.5507450000000  0.4534560000000 1.0
C      1  0.4864200000000  0.4481850000000  0.5500650000000 1.0
C      1  0.4381900000000  0.4785070000000  0.5296520000000 1.0
C      1  0.5508580000000  0.5463670000000  0.5133820000000 1.0
C      1  0.5510520000000  0.5464150000000  0.4855990000000 1.0
C      1  0.4865720000000  0.5516820000000  0.5497670000000 1.0
C      1  0.5599020000000  0.5226410000000  0.5283010000000 1.0
C      1  0.5613270000000  0.5227990000000  0.4709090000000 1.0
C      1  0.4379070000000  0.4784630000000  0.4702440000000 1.0
C      1  0.4998170000000  0.4470990000000  0.5453650000000 1.0
C      1  0.4782190000000  0.4595100000000  0.5528660000000 1.0
C      1  0.4371180000000  0.5129910000000  0.4817400000000 1.0
C      1  0.4371410000000  0.4870060000000  0.4817520000000 1.0
C      1  0.5398030000000  0.4486440000000  0.5215060000000 1.0
C      1  0.5209330000000  0.5396470000000  0.4480500000000 1.0
C      1  0.4872030000000  0.5181820000000  0.5634210000000 1.0
C      1  0.4592600000000  0.4470570000000  0.4779510000000 1.0
C      1  0.4813880000000  0.5646790000000  0.5134730000000 1.0
C      1  0.4372920000000  0.5129590000000  0.5181290000000 1.0
C      1  0.4867300000000  0.4814870000000  0.5640410000000 1.0
C      1  0.5002160000000  0.4488380000000  0.4563450000000 1.0
C      1  0.4553790000000  0.5000180000000  0.4485670000000 1.0
C      1  0.4473220000000  0.4780760000000  0.4596440000000 1.0
C      1  0.4999200000000  0.5519430000000  0.4561380000000 1.0
C      1  0.5457210000000  0.5001210000000  0.4461040000000 1.0
C      1  0.5528180000000  0.5212030000000  0.4595720000000 1.0
C      1  0.5396460000000  0.4490350000000  0.4783510000000 1.0
C      1  0.4783260000000  0.5403870000000  0.4476100000000 1.0
C      1  0.5211830000000  0.4592010000000  0.5533640000000 1.0
C      1  0.5133330000000  0.5181610000000  0.4357610000000 1.0
C      1  0.5177210000000  0.5622020000000  0.4869460000000 1.0
C      1  0.5179800000000  0.5638180000000  0.5128880000000 1.0
C      1  0.5131500000000  0.5176950000000  0.5633540000000 1.0
C      1  0.5651650000000  0.4873300000000  0.4807600000000 1.0
C      1  0.5643560000000  0.5130270000000  0.4810690000000 1.0
C      1  0.5134030000000  0.4816590000000  0.4361260000000 1.0
C      1  0.4592330000000  0.5530290000000  0.4779660000000 1.0
C      1  0.5218590000000  0.4604250000000  0.4484350000000 1.0
C      1  0.4785020000000  0.5402870000000  0.5525540000000 1.0
C      1  0.5395010000000  0.5514230000000  0.5203260000000 1.0
C      1  0.4998920000000  0.5528220000000  0.5449900000000 1.0
C      1  0.4553470000000  0.4999700000000  0.5518950000000 1.0
C      1  0.4483240000000  0.4550000000000  0.4999700000000 1.0
C      1  0.4372820000000  0.4870170000000  0.5181500000000 1.0
C      1  0.5177060000000  0.4383760000000  0.4870720000000 1.0
C      1  0.4476250000000  0.4782080000000  0.5402090000000 1.0
C      1  0.5436520000000  0.5000260000000  0.5515500000000 1.0
C      1  0.5518090000000  0.5428400000000  0.4995070000000 1.0
C      1  0.5392060000000  0.5503330000000  0.4783960000000 1.0
C      1  0.5181320000000  0.4370890000000  0.5130120000000 1.0
C      1  0.4597880000000  0.4472100000000  0.5219180000000 1.0
C      1  0.5209290000000  0.5394490000000  0.5520330000000 1.0
C      1  0.5633040000000  0.4867040000000  0.5179200000000 1.0
C      1  0.5627940000000  0.5125530000000  0.5183870000000 1.0
C      1  0.4807500000000  0.5638600000000  0.4875610000000 1.0
C      1  0.5506340000000  0.5215410000000  0.5392230000000 1.0
C      1  0.4482990000000  0.5449870000000  0.4999570000000 1.0
C      1  0.4598600000000  0.5527990000000  0.5218380000000 1.0
C      1  0.5519700000000  0.4564240000000  0.4999960000000 1.0
C      1  0.4783620000000  0.4597400000000  0.4476510000000 1.0
C      1  0.5125630000000  0.4808940000000  0.5645080000000 1.0
C      1  0.4872840000000  0.5182790000000  0.4370710000000 1.0
C      1  0.5537650000000  0.4790360000000  0.4589070000000 1.0
C      1  0.4815670000000  0.4358890000000  0.5135360000000 1.0
C      1  0.4808930000000  0.4367420000000  0.4876920000000 1.0
C      1  0.4873040000000  0.4817640000000  0.4371370000000 1.0
C      1  0.4473660000000  0.5219460000000  0.4596810000000 1.0
C      1  0.4477930000000  0.5217190000000  0.5401170000000 1.0
C      1  0.5515570000000  0.4782980000000  0.5395740000000 1.0
END
