TITL C240-429764 48.0551244352761 1000000 -1438.57203181337 0 0 240 (Ih) n - 1
REM
REM in /home/chem/mssmkc/work/CARBON/AIRSS/Generating-Clusters/Str-Search/GAP20/LAMMPS-RUNS
REM
REM
REM
REM
REM
REM C240.cell (3163ffe2e63a2c8a8c5811a4d4422e67)
REM
REM
REM
REM
REM
CELL 1.54180  100.00000  100.00000  100.00000   90.00000   90.00000   90.00000
LATT -1
SFAC C  
C      1  0.4753780000000  0.4653230000000  0.5558140000000 1.0
C      1  0.5346780000000  0.5558140000000  0.4753770000000 1.0
C      1  0.4801700000000  0.5221280000000  0.4364310000000 1.0
C      1  0.4516490000000  0.5200120000000  0.5467520000000 1.0
C      1  0.5635700000000  0.5198290000000  0.4778710000000 1.0
C      1  0.4799910000000  0.5467500000000  0.5483540000000 1.0
C      1  0.4364300000000  0.4801720000000  0.5221290000000 1.0
C      1  0.5198280000000  0.5221270000000  0.4364300000000 1.0
C      1  0.4441850000000  0.4753790000000  0.4653240000000 1.0
C      1  0.5681820000000  0.5077540000000  0.5146640000000 1.0
C      1  0.4753760000000  0.4653240000000  0.4441860000000 1.0
C      1  0.4853330000000  0.4318190000000  0.4922440000000 1.0
C      1  0.5558130000000  0.4753770000000  0.4653210000000 1.0
C      1  0.5221270000000  0.4364290000000  0.5198280000000 1.0
C      1  0.5246250000000  0.5346760000000  0.5558140000000 1.0
C      1  0.4441850000000  0.5246240000000  0.4653250000000 1.0
C      1  0.4778750000000  0.5635700000000  0.5198300000000 1.0
C      1  0.5346790000000  0.5558140000000  0.5246230000000 1.0
C      1  0.4364310000000  0.5198300000000  0.5221290000000 1.0
C      1  0.4653210000000  0.4441870000000  0.4753780000000 1.0
C      1  0.4778730000000  0.5635710000000  0.4801720000000 1.0
C      1  0.4653220000000  0.4441860000000  0.5246230000000 1.0
C      1  0.5198310000000  0.4778720000000  0.5635690000000 1.0
C      1  0.4532500000000  0.5483530000000  0.4799900000000 1.0
C      1  0.5246230000000  0.4653220000000  0.5558130000000 1.0
C      1  0.4853330000000  0.4318190000000  0.5077560000000 1.0
C      1  0.5435570000000  0.4925380000000  0.4454930000000 1.0
C      1  0.5146670000000  0.5681820000000  0.4922440000000 1.0
C      1  0.5198270000000  0.4778730000000  0.4364300000000 1.0
C      1  0.5483530000000  0.4799870000000  0.5467490000000 1.0
C      1  0.4364290000000  0.4801720000000  0.4778740000000 1.0
C      1  0.5200110000000  0.4532490000000  0.5483510000000 1.0
C      1  0.5635710000000  0.5198280000000  0.5221260000000 1.0
C      1  0.5545050000000  0.4564400000000  0.4925370000000 1.0
C      1  0.5483540000000  0.5200100000000  0.5467490000000 1.0
C      1  0.4516470000000  0.5200120000000  0.4532520000000 1.0
C      1  0.5346760000000  0.4441850000000  0.5246210000000 1.0
C      1  0.4801720000000  0.4778720000000  0.5635700000000 1.0
C      1  0.5077580000000  0.4853330000000  0.5681810000000 1.0
C      1  0.4925410000000  0.5545050000000  0.5435600000000 1.0
C      1  0.4753770000000  0.5346780000000  0.4441880000000 1.0
C      1  0.5146640000000  0.4318180000000  0.4922430000000 1.0
C      1  0.4318180000000  0.5077580000000  0.4853360000000 1.0
C      1  0.4564420000000  0.4925390000000  0.5545070000000 1.0
C      1  0.5246210000000  0.4653230000000  0.4441850000000 1.0
C      1  0.5077580000000  0.5146650000000  0.5681810000000 1.0
C      1  0.5074620000000  0.4454930000000  0.5435580000000 1.0
C      1  0.4801720000000  0.5221270000000  0.5635710000000 1.0
C      1  0.5635700000000  0.4801690000000  0.5221260000000 1.0
C      1  0.4653250000000  0.5558150000000  0.5246240000000 1.0
C      1  0.5198310000000  0.5221260000000  0.5635700000000 1.0
C      1  0.4922460000000  0.5146650000000  0.5681820000000 1.0
C      1  0.5483520000000  0.5200110000000  0.4532490000000 1.0
C      1  0.4454940000000  0.5435600000000  0.4925400000000 1.0
C      1  0.4516460000000  0.4799900000000  0.4532510000000 1.0
C      1  0.4516480000000  0.4799890000000  0.5467510000000 1.0
C      1  0.5681810000000  0.4922430000000  0.4853320000000 1.0
C      1  0.5146650000000  0.4318180000000  0.5077550000000 1.0
C      1  0.5077550000000  0.5146660000000  0.4318180000000 1.0
C      1  0.5074640000000  0.5545050000000  0.5435590000000 1.0
C      1  0.5467510000000  0.5483520000000  0.4799880000000 1.0
C      1  0.4318190000000  0.5077570000000  0.5146680000000 1.0
C      1  0.4564390000000  0.4925400000000  0.4454950000000 1.0
C      1  0.4925370000000  0.4454950000000  0.4564410000000 1.0
C      1  0.5545070000000  0.5435580000000  0.4925370000000 1.0
C      1  0.5545060000000  0.4564400000000  0.5074600000000 1.0
C      1  0.4454930000000  0.4564420000000  0.5074620000000 1.0
C      1  0.4922420000000  0.4853350000000  0.4318180000000 1.0
C      1  0.4753790000000  0.5346770000000  0.5558150000000 1.0
C      1  0.5467500000000  0.4516470000000  0.5200090000000 1.0
C      1  0.4532520000000  0.5483530000000  0.5200130000000 1.0
C      1  0.4925380000000  0.4454930000000  0.5435580000000 1.0
C      1  0.4532480000000  0.4516490000000  0.4799890000000 1.0
C      1  0.5467480000000  0.4516470000000  0.4799870000000 1.0
C      1  0.4853360000000  0.5681820000000  0.5077570000000 1.0
C      1  0.5681820000000  0.4922420000000  0.5146640000000 1.0
C      1  0.5483510000000  0.4799880000000  0.4532480000000 1.0
C      1  0.5246220000000  0.5346770000000  0.4441860000000 1.0
C      1  0.5558150000000  0.5246210000000  0.5346760000000 1.0
C      1  0.4653230000000  0.5558150000000  0.4753790000000 1.0
C      1  0.4922430000000  0.5146660000000  0.4318180000000 1.0
C      1  0.5074600000000  0.4454940000000  0.4564400000000 1.0
C      1  0.4318180000000  0.4922460000000  0.4853360000000 1.0
C      1  0.5558140000000  0.4753760000000  0.5346750000000 1.0
C      1  0.5221260000000  0.4364290000000  0.4801690000000 1.0
C      1  0.4441860000000  0.4753780000000  0.5346780000000 1.0
C      1  0.5435580000000  0.5074610000000  0.4454930000000 1.0
C      1  0.5074610000000  0.5545070000000  0.4564420000000 1.0
C      1  0.5545070000000  0.5435580000000  0.5074610000000 1.0
C      1  0.5346750000000  0.4441850000000  0.4753760000000 1.0
C      1  0.5146670000000  0.5681810000000  0.5077570000000 1.0
C      1  0.4564400000000  0.5074630000000  0.4454960000000 1.0
C      1  0.4801690000000  0.4778740000000  0.4364300000000 1.0
C      1  0.5558140000000  0.5246230000000  0.4653220000000 1.0
C      1  0.4318190000000  0.4922450000000  0.5146670000000 1.0
C      1  0.5077540000000  0.4853350000000  0.4318180000000 1.0
C      1  0.4925380000000  0.5545070000000  0.4564420000000 1.0
C      1  0.5681810000000  0.5077550000000  0.4853330000000 1.0
C      1  0.4441880000000  0.5246230000000  0.5346790000000 1.0
C      1  0.4922460000000  0.4853330000000  0.5681820000000 1.0
C      1  0.4454930000000  0.4564420000000  0.4925390000000 1.0
C      1  0.4454950000000  0.5435600000000  0.5074630000000 1.0
C      1  0.5200110000000  0.5467500000000  0.4516480000000 1.0
C      1  0.5435600000000  0.5074600000000  0.5545050000000 1.0
C      1  0.4799890000000  0.4532490000000  0.5483530000000 1.0
C      1  0.4364290000000  0.5198310000000  0.4778750000000 1.0
C      1  0.4564430000000  0.5074620000000  0.5545080000000 1.0
C      1  0.4799890000000  0.5467510000000  0.4516490000000 1.0
C      1  0.4853350000000  0.5681820000000  0.4922450000000 1.0
C      1  0.5200130000000  0.5467490000000  0.5483530000000 1.0
C      1  0.5635690000000  0.4801700000000  0.4778710000000 1.0
C      1  0.5435600000000  0.4925370000000  0.5545050000000 1.0
C      1  0.5200090000000  0.4532500000000  0.4516460000000 1.0
C      1  0.5221280000000  0.5635700000000  0.4801710000000 1.0
C      1  0.4778710000000  0.4364310000000  0.4801710000000 1.0
C      1  0.5221290000000  0.5635690000000  0.5198290000000 1.0
C      1  0.5467520000000  0.5483520000000  0.5200110000000 1.0
C      1  0.4532490000000  0.4516480000000  0.5200120000000 1.0
C      1  0.4778720000000  0.4364300000000  0.5198290000000 1.0
C      1  0.4799870000000  0.4532510000000  0.4516470000000 1.0
C      1  0.4999980000000  0.4901020000000  0.4201670000000 1.0
C      1  0.4520760000000  0.5197220000000  0.4384750000000 1.0
C      1  0.5319110000000  0.5296170000000  0.5676430000000 1.0
C      1  0.5319100000000  0.4703800000000  0.5676430000000 1.0
C      1  0.4802820000000  0.5615260000000  0.5479250000000 1.0
C      1  0.5479250000000  0.4802780000000  0.5615250000000 1.0
C      1  0.4703800000000  0.4323580000000  0.4680910000000 1.0
C      1  0.5197210000000  0.5615270000000  0.4520770000000 1.0
C      1  0.5676440000000  0.4680900000000  0.5296160000000 1.0
C      1  0.5319070000000  0.5296180000000  0.4323560000000 1.0
C      1  0.4703820000000  0.5676450000000  0.4680930000000 1.0
C      1  0.5000020000000  0.4901010000000  0.5798310000000 1.0
C      1  0.5798310000000  0.4999990000000  0.4901000000000 1.0
C      1  0.5615260000000  0.4520750000000  0.5197180000000 1.0
C      1  0.5000020000000  0.5098970000000  0.5798320000000 1.0
C      1  0.4201680000000  0.5000020000000  0.4901040000000 1.0
C      1  0.4384750000000  0.5479240000000  0.5197230000000 1.0
C      1  0.4802790000000  0.5615280000000  0.4520780000000 1.0
C      1  0.4520780000000  0.4802800000000  0.5615270000000 1.0
C      1  0.5479220000000  0.5197200000000  0.4384730000000 1.0
C      1  0.5296180000000  0.4323560000000  0.5319070000000 1.0
C      1  0.4323540000000  0.4680930000000  0.4703830000000 1.0
C      1  0.4323560000000  0.4680920000000  0.5296200000000 1.0
C      1  0.5296170000000  0.4323560000000  0.4680900000000 1.0
C      1  0.4680930000000  0.4703820000000  0.5676440000000 1.0
C      1  0.4680940000000  0.5296190000000  0.5676460000000 1.0
C      1  0.5296200000000  0.5676430000000  0.5319080000000 1.0
C      1  0.5197180000000  0.4384730000000  0.4520750000000 1.0
C      1  0.5479250000000  0.5197190000000  0.5615260000000 1.0
C      1  0.4520750000000  0.4802810000000  0.4384740000000 1.0
C      1  0.4802800000000  0.4384730000000  0.5479230000000 1.0
C      1  0.4999980000000  0.5098990000000  0.4201680000000 1.0
C      1  0.5798320000000  0.4999980000000  0.5098960000000 1.0
C      1  0.4901040000000  0.5798320000000  0.5000010000000 1.0
C      1  0.5319060000000  0.4703820000000  0.4323550000000 1.0
C      1  0.4323550000000  0.5319100000000  0.4703830000000 1.0
C      1  0.5615250000000  0.4520760000000  0.4802770000000 1.0
C      1  0.4201690000000  0.5000010000000  0.5099000000000 1.0
C      1  0.5098960000000  0.4201680000000  0.4999990000000 1.0
C      1  0.4802770000000  0.4384750000000  0.4520770000000 1.0
C      1  0.4323580000000  0.5319090000000  0.5296200000000 1.0
C      1  0.5197230000000  0.5615260000000  0.5479240000000 1.0
C      1  0.5479210000000  0.4802800000000  0.4384720000000 1.0
C      1  0.4680890000000  0.4703830000000  0.4323560000000 1.0
C      1  0.4680900000000  0.5296190000000  0.4323580000000 1.0
C      1  0.5676420000000  0.4680910000000  0.4703800000000 1.0
C      1  0.4384730000000  0.5479260000000  0.4802820000000 1.0
C      1  0.4901010000000  0.4201680000000  0.4999990000000 1.0
C      1  0.5197210000000  0.4384730000000  0.5479220000000 1.0
C      1  0.5098990000000  0.5798320000000  0.5000010000000 1.0
C      1  0.4520780000000  0.5197210000000  0.5615290000000 1.0
C      1  0.5296190000000  0.5676430000000  0.4680920000000 1.0
C      1  0.4703810000000  0.4323560000000  0.5319080000000 1.0
C      1  0.4384730000000  0.4520770000000  0.5197210000000 1.0
C      1  0.5676450000000  0.5319070000000  0.5296170000000 1.0
C      1  0.5676450000000  0.5319070000000  0.4703800000000 1.0
C      1  0.4703840000000  0.5676440000000  0.5319100000000 1.0
C      1  0.5615280000000  0.5479220000000  0.5197190000000 1.0
C      1  0.5615280000000  0.5479230000000  0.4802790000000 1.0
C      1  0.4384720000000  0.4520780000000  0.4802810000000 1.0
C      1  0.4999980000000  0.4300060000000  0.4926820000000 1.0
C      1  0.4397150000000  0.4672650000000  0.5157110000000 1.0
C      1  0.4470350000000  0.5372580000000  0.5275500000000 1.0
C      1  0.4470320000000  0.4627420000000  0.5275500000000 1.0
C      1  0.5327380000000  0.4842890000000  0.5602850000000 1.0
C      1  0.5602860000000  0.5327350000000  0.4842890000000 1.0
C      1  0.4627430000000  0.4724510000000  0.5529680000000 1.0
C      1  0.4672620000000  0.4842920000000  0.4397150000000 1.0
C      1  0.5275510000000  0.5529680000000  0.5372580000000 1.0
C      1  0.4470310000000  0.5372600000000  0.4724520000000 1.0
C      1  0.4627430000000  0.5275500000000  0.5529700000000 1.0
C      1  0.4999990000000  0.4300060000000  0.5073160000000 1.0
C      1  0.5073150000000  0.5000000000000  0.4300050000000 1.0
C      1  0.4842890000000  0.4397170000000  0.4672640000000 1.0
C      1  0.5000020000000  0.5699940000000  0.5073180000000 1.0
C      1  0.4926810000000  0.5000010000000  0.4300040000000 1.0
C      1  0.5157100000000  0.5602840000000  0.4672650000000 1.0
C      1  0.5327340000000  0.4842910000000  0.4397150000000 1.0
C      1  0.4397140000000  0.5327380000000  0.4842920000000 1.0
C      1  0.5602850000000  0.4672620000000  0.5157080000000 1.0
C      1  0.5372560000000  0.4724510000000  0.4470310000000 1.0
C      1  0.4724510000000  0.5529680000000  0.4627430000000 1.0
C      1  0.4724530000000  0.5529680000000  0.5372590000000 1.0
C      1  0.5372590000000  0.4724490000000  0.5529670000000 1.0
C      1  0.5529680000000  0.4627410000000  0.5275470000000 1.0
C      1  0.5529690000000  0.5372570000000  0.5275480000000 1.0
C      1  0.5372570000000  0.5275490000000  0.4470320000000 1.0
C      1  0.4672640000000  0.5157100000000  0.4397170000000 1.0
C      1  0.5602840000000  0.4672630000000  0.4842880000000 1.0
C      1  0.4397170000000  0.5327360000000  0.5157110000000 1.0
C      1  0.5327370000000  0.5157080000000  0.5602830000000 1.0
C      1  0.5000010000000  0.5699940000000  0.4926840000000 1.0
C      1  0.5073190000000  0.4999990000000  0.5699930000000 1.0
C      1  0.4300070000000  0.5073180000000  0.5000020000000 1.0
C      1  0.4470300000000  0.4627430000000  0.4724520000000 1.0
C      1  0.4724500000000  0.4470340000000  0.4627430000000 1.0
C      1  0.4842900000000  0.4397150000000  0.5327360000000 1.0
C      1  0.4926850000000  0.4999990000000  0.5699940000000 1.0
C      1  0.5699940000000  0.4926820000000  0.4999980000000 1.0
C      1  0.5327340000000  0.5157090000000  0.4397150000000 1.0
C      1  0.4724510000000  0.4470320000000  0.5372580000000 1.0
C      1  0.4672660000000  0.4842910000000  0.5602850000000 1.0
C      1  0.5602850000000  0.5327340000000  0.5157080000000 1.0
C      1  0.5529660000000  0.4627420000000  0.4724490000000 1.0
C      1  0.5529690000000  0.5372580000000  0.4724500000000 1.0
C      1  0.5275490000000  0.5529670000000  0.4627420000000 1.0
C      1  0.5157120000000  0.5602840000000  0.5327360000000 1.0
C      1  0.4300070000000  0.4926840000000  0.5000020000000 1.0
C      1  0.4672650000000  0.5157100000000  0.5602870000000 1.0
C      1  0.5699930000000  0.5073160000000  0.4999980000000 1.0
C      1  0.4397140000000  0.4672650000000  0.4842910000000 1.0
C      1  0.5372600000000  0.5275480000000  0.5529670000000 1.0
C      1  0.4627400000000  0.4724520000000  0.4470330000000 1.0
C      1  0.5157080000000  0.4397150000000  0.4672630000000 1.0
C      1  0.5275490000000  0.4470320000000  0.5372560000000 1.0
C      1  0.5275470000000  0.4470320000000  0.4627400000000 1.0
C      1  0.4627420000000  0.5275500000000  0.4470350000000 1.0
C      1  0.4842900000000  0.5602860000000  0.4672650000000 1.0
C      1  0.4842930000000  0.5602840000000  0.5327370000000 1.0
C      1  0.5157090000000  0.4397150000000  0.5327350000000 1.0
END
