TITL C240-737603 -0.0208758452037387 1000000 -1659.67502626713 0 0 240 (C1) n - 1
REM
REM in /home/chem/mssmkc/work/CARBON/AIRSS/Generating-Clusters/Str-Search/GAP20/LAMMPS-RUNS
REM
REM
REM
REM
REM
REM C240.cell (d8c3148537991cdb531f76bb3f5b0ea7)
REM
REM
REM
REM
REM
CELL 1.54180  100.00000  100.00000  100.00000   90.00000   90.00000   90.00000
LATT -1
SFAC C  
C      1  0.4686980000000  0.4980460000000  0.4485890000000 1.0
C      1  0.4823410000000  0.4425380000000  0.4734570000000 1.0
C      1  0.4859310000000  0.4442870000000  0.5148650000000 1.0
C      1  0.5393220000000  0.5373710000000  0.4780960000000 1.0
C      1  0.4756690000000  0.5184520000000  0.5578790000000 1.0
C      1  0.4667340000000  0.4754190000000  0.4601150000000 1.0
C      1  0.5182720000000  0.4852800000000  0.4446070000000 1.0
C      1  0.5118580000000  0.4507700000000  0.5165150000000 1.0
C      1  0.5578960000000  0.4741110000000  0.4985520000000 1.0
C      1  0.4716540000000  0.5340550000000  0.4599600000000 1.0
C      1  0.4655620000000  0.5097540000000  0.5532360000000 1.0
C      1  0.5434850000000  0.5323460000000  0.4653370000000 1.0
C      1  0.4522440000000  0.4666160000000  0.5014420000000 1.0
C      1  0.4474890000000  0.5157080000000  0.5073570000000 1.0
C      1  0.5289240000000  0.4939720000000  0.4424350000000 1.0
C      1  0.5522300000000  0.5319510000000  0.5135500000000 1.0
C      1  0.5584440000000  0.4854460000000  0.5052380000000 1.0
C      1  0.4891860000000  0.4503640000000  0.5280750000000 1.0
C      1  0.5149910000000  0.5145480000000  0.4442940000000 1.0
C      1  0.5085930000000  0.5521310000000  0.4699150000000 1.0
C      1  0.5609460000000  0.4878040000000  0.4751740000000 1.0
C      1  0.5168670000000  0.5547520000000  0.5368370000000 1.0
C      1  0.5172370000000  0.5566460000000  0.4797890000000 1.0
C      1  0.5293790000000  0.4618500000000  0.4612650000000 1.0
C      1  0.5285740000000  0.5073660000000  0.4468190000000 1.0
C      1  0.5415940000000  0.5200780000000  0.5326680000000 1.0
C      1  0.4415150000000  0.5106750000000  0.4837880000000 1.0
C      1  0.4526320000000  0.4719580000000  0.4650820000000 1.0
C      1  0.5142220000000  0.5608660000000  0.5241390000000 1.0
C      1  0.4521950000000  0.4646380000000  0.4771770000000 1.0
C      1  0.5137350000000  0.4849180000000  0.5601900000000 1.0
C      1  0.5381180000000  0.5385240000000  0.4542260000000 1.0
C      1  0.4770430000000  0.5076530000000  0.4431670000000 1.0
C      1  0.4995080000000  0.5606760000000  0.5220130000000 1.0
C      1  0.4561750000000  0.5406050000000  0.4812670000000 1.0
C      1  0.5401620000000  0.5314270000000  0.5226020000000 1.0
C      1  0.5043000000000  0.5532820000000  0.5440240000000 1.0
C      1  0.4903380000000  0.5519880000000  0.4864960000000 1.0
C      1  0.5251160000000  0.5424220000000  0.4790470000000 1.0
C      1  0.5047820000000  0.5049890000000  0.4380890000000 1.0
C      1  0.4701670000000  0.4974070000000  0.5479600000000 1.0
C      1  0.4515700000000  0.5300810000000  0.4718340000000 1.0
C      1  0.5235600000000  0.5326970000000  0.5446280000000 1.0
C      1  0.5546410000000  0.5095410000000  0.5033980000000 1.0
C      1  0.5327510000000  0.4961200000000  0.5475840000000 1.0
C      1  0.5357400000000  0.4587340000000  0.4737130000000 1.0
C      1  0.4933970000000  0.4885110000000  0.4464910000000 1.0
C      1  0.4835170000000  0.4409760000000  0.4881810000000 1.0
C      1  0.4822890000000  0.4801170000000  0.4410230000000 1.0
C      1  0.5034530000000  0.4552010000000  0.5287360000000 1.0
C      1  0.5051970000000  0.4467860000000  0.4734670000000 1.0
C      1  0.4629020000000  0.4554080000000  0.4805960000000 1.0
C      1  0.4530850000000  0.5330640000000  0.5288630000000 1.0
C      1  0.4959130000000  0.4360100000000  0.5079730000000 1.0
C      1  0.5335700000000  0.4617920000000  0.5217460000000 1.0
C      1  0.5486850000000  0.4646630000000  0.4768980000000 1.0
C      1  0.4610310000000  0.4692130000000  0.5480230000000 1.0
C      1  0.4480950000000  0.5237610000000  0.5375360000000 1.0
C      1  0.5257260000000  0.4491310000000  0.5246650000000 1.0
C      1  0.4907550000000  0.5054340000000  0.4449430000000 1.0
C      1  0.4729590000000  0.4524740000000  0.4703930000000 1.0
C      1  0.5252820000000  0.5419110000000  0.4527120000000 1.0
C      1  0.5493350000000  0.5168610000000  0.4906150000000 1.0
C      1  0.5057620000000  0.4970560000000  0.5574290000000 1.0
C      1  0.5085460000000  0.4363580000000  0.5133270000000 1.0
C      1  0.5121710000000  0.5621970000000  0.4917650000000 1.0
C      1  0.4985550000000  0.5595170000000  0.4958180000000 1.0
C      1  0.4657960000000  0.5386020000000  0.5266230000000 1.0
C      1  0.4699860000000  0.4833050000000  0.4471260000000 1.0
C      1  0.4779660000000  0.5328680000000  0.5337630000000 1.0
C      1  0.5171630000000  0.4504310000000  0.5363310000000 1.0
C      1  0.5063470000000  0.4914910000000  0.4388770000000 1.0
C      1  0.5172270000000  0.5403970000000  0.4655090000000 1.0
C      1  0.4698710000000  0.5476620000000  0.4640420000000 1.0
C      1  0.5355700000000  0.4723860000000  0.5310150000000 1.0
C      1  0.4774360000000  0.4639920000000  0.4619410000000 1.0
C      1  0.4684330000000  0.4624920000000  0.5221700000000 1.0
C      1  0.5262210000000  0.4844330000000  0.5521950000000 1.0
C      1  0.4452850000000  0.5342620000000  0.4904050000000 1.0
C      1  0.4940800000000  0.4423260000000  0.4652750000000 1.0
C      1  0.4790750000000  0.4610180000000  0.5330860000000 1.0
C      1  0.4915380000000  0.5002580000000  0.5606450000000 1.0
C      1  0.5197020000000  0.4594810000000  0.5466550000000 1.0
C      1  0.4468010000000  0.4710000000000  0.4885240000000 1.0
C      1  0.4419940000000  0.5245580000000  0.4808120000000 1.0
C      1  0.5501930000000  0.4657230000000  0.4917000000000 1.0
C      1  0.4396000000000  0.4929040000000  0.4993900000000 1.0
C      1  0.4874790000000  0.5135450000000  0.5640840000000 1.0
C      1  0.5084560000000  0.4416860000000  0.4871820000000 1.0
C      1  0.4960370000000  0.5471800000000  0.4744780000000 1.0
C      1  0.4580270000000  0.4732110000000  0.5246790000000 1.0
C      1  0.5692920000000  0.4955920000000  0.4863500000000 1.0
C      1  0.4946340000000  0.5581180000000  0.5349990000000 1.0
C      1  0.4506060000000  0.5288740000000  0.5025810000000 1.0
C      1  0.5365720000000  0.4712350000000  0.4537080000000 1.0
C      1  0.5367470000000  0.5449540000000  0.5278680000000 1.0
C      1  0.5132570000000  0.5100140000000  0.5545630000000 1.0
C      1  0.4727370000000  0.5274220000000  0.5464900000000 1.0
C      1  0.5498980000000  0.5396700000000  0.5023040000000 1.0
C      1  0.4622230000000  0.5528070000000  0.4739230000000 1.0
C      1  0.4929520000000  0.5586300000000  0.5092820000000 1.0
C      1  0.4960850000000  0.4367850000000  0.4939120000000 1.0
C      1  0.5251080000000  0.4731520000000  0.5420730000000 1.0
C      1  0.4429470000000  0.4868140000000  0.5122310000000 1.0
C      1  0.4615290000000  0.5239680000000  0.4639290000000 1.0
C      1  0.5273090000000  0.5091130000000  0.5501190000000 1.0
C      1  0.5640970000000  0.4977550000000  0.4990080000000 1.0
C      1  0.4524430000000  0.4749980000000  0.5389930000000 1.0
C      1  0.5536390000000  0.4754610000000  0.4697460000000 1.0
C      1  0.5445460000000  0.4809170000000  0.4593520000000 1.0
C      1  0.4821890000000  0.4921970000000  0.5531340000000 1.0
C      1  0.4403370000000  0.5068790000000  0.4979470000000 1.0
C      1  0.5324360000000  0.5209290000000  0.5441890000000 1.0
C      1  0.4433990000000  0.4850220000000  0.4871720000000 1.0
C      1  0.5440950000000  0.5309950000000  0.4912070000000 1.0
C      1  0.4485240000000  0.4736140000000  0.5132130000000 1.0
C      1  0.4729610000000  0.4626780000000  0.5477020000000 1.0
C      1  0.5273690000000  0.5454440000000  0.5381490000000 1.0
C      1  0.5599390000000  0.5206000000000  0.5127030000000 1.0
C      1  0.4609370000000  0.5190760000000  0.5425840000000 1.0
C      1  0.5033450000000  0.4883430000000  0.5437550000000 1.0
C      1  0.5109070000000  0.4784730000000  0.5366180000000 1.0
C      1  0.4663950000000  0.4877550000000  0.4700430000000 1.0
C      1  0.4680180000000  0.4996440000000  0.4626050000000 1.0
C      1  0.5295620000000  0.4549320000000  0.4865280000000 1.0
C      1  0.4853820000000  0.5299120000000  0.4562840000000 1.0
C      1  0.5047780000000  0.5289310000000  0.5236310000000 1.0
C      1  0.4869070000000  0.4590480000000  0.5059110000000 1.0
C      1  0.4680740000000  0.5388370000000  0.4911830000000 1.0
C      1  0.4671730000000  0.4974170000000  0.5338100000000 1.0
C      1  0.5016830000000  0.4695820000000  0.5312950000000 1.0
C      1  0.4988020000000  0.4807050000000  0.4581490000000 1.0
C      1  0.4573930000000  0.5057540000000  0.4812170000000 1.0
C      1  0.4632390000000  0.5108830000000  0.4689810000000 1.0
C      1  0.4922850000000  0.5158790000000  0.4551830000000 1.0
C      1  0.5478410000000  0.5106050000000  0.4785420000000 1.0
C      1  0.5490750000000  0.4970930000000  0.4748770000000 1.0
C      1  0.5170510000000  0.4586070000000  0.5054190000000 1.0
C      1  0.5062290000000  0.5183740000000  0.4571140000000 1.0
C      1  0.4900420000000  0.4825750000000  0.5456970000000 1.0
C      1  0.4943870000000  0.5348950000000  0.4677770000000 1.0
C      1  0.5279850000000  0.5285960000000  0.5117840000000 1.0
C      1  0.5308290000000  0.5289660000000  0.4981550000000 1.0
C      1  0.4902610000000  0.5259230000000  0.5283900000000 1.0
C      1  0.5388670000000  0.5074490000000  0.4568990000000 1.0
C      1  0.5424590000000  0.4950290000000  0.4625220000000 1.0
C      1  0.5046540000000  0.4617320000000  0.4705050000000 1.0
C      1  0.4672150000000  0.5456390000000  0.5139120000000 1.0
C      1  0.4928900000000  0.4703210000000  0.4661540000000 1.0
C      1  0.5121890000000  0.5256900000000  0.5351340000000 1.0
C      1  0.5201570000000  0.5340240000000  0.4907510000000 1.0
C      1  0.5056310000000  0.5154960000000  0.5417580000000 1.0
C      1  0.4581290000000  0.4948250000000  0.5136340000000 1.0
C      1  0.4855360000000  0.4574930000000  0.4918770000000 1.0
C      1  0.4642170000000  0.5104050000000  0.5288150000000 1.0
C      1  0.5303330000000  0.4640950000000  0.5080370000000 1.0
C      1  0.4566890000000  0.5086330000000  0.5163300000000 1.0
C      1  0.5453720000000  0.5021890000000  0.5136840000000 1.0
C      1  0.5093480000000  0.5338810000000  0.4993870000000 1.0
C      1  0.5132260000000  0.5307500000000  0.5123950000000 1.0
C      1  0.5371220000000  0.4637930000000  0.4961520000000 1.0
C      1  0.4738880000000  0.4649780000000  0.4880290000000 1.0
C      1  0.4925710000000  0.5147740000000  0.5376630000000 1.0
C      1  0.5427850000000  0.4958380000000  0.5366110000000 1.0
C      1  0.5431150000000  0.4836890000000  0.5276330000000 1.0
C      1  0.4630860000000  0.5352670000000  0.5039150000000 1.0
C      1  0.5486130000000  0.4886660000000  0.5153120000000 1.0
C      1  0.4795620000000  0.5526600000000  0.5072340000000 1.0
C      1  0.4796670000000  0.5463650000000  0.4935140000000 1.0
C      1  0.5152950000000  0.4553210000000  0.4919920000000 1.0
C      1  0.5126330000000  0.4777280000000  0.4556540000000 1.0
C      1  0.4884870000000  0.4732970000000  0.5341630000000 1.0
C      1  0.5071930000000  0.5297490000000  0.4648100000000 1.0
C      1  0.5482360000000  0.5180270000000  0.4648920000000 1.0
C      1  0.4683520000000  0.4710850000000  0.4994220000000 1.0
C      1  0.4764300000000  0.4675640000000  0.5104340000000 1.0
C      1  0.5145540000000  0.4632250000000  0.4590310000000 1.0
C      1  0.4586290000000  0.4917400000000  0.4814430000000 1.0
C      1  0.4647570000000  0.4876970000000  0.5236800000000 1.0
C      1  0.5393300000000  0.5064970000000  0.5254810000000 1.0
C      1  0.4959760000000  0.4550880000000  0.5528000000000 1.0
C      1  0.4847050000000  0.4620540000000  0.5565430000000 1.0
C      1  0.4363220000000  0.5024760000000  0.4724180000000 1.0
C      1  0.4363520000000  0.4882860000000  0.4744890000000 1.0
C      1  0.5307810000000  0.4378930000000  0.5153850000000 1.0
C      1  0.5159000000000  0.5404010000000  0.4419330000000 1.0
C      1  0.4966410000000  0.5240990000000  0.5654250000000 1.0
C      1  0.4601790000000  0.4459850000000  0.4919370000000 1.0
C      1  0.4714680000000  0.5656440000000  0.5050960000000 1.0
C      1  0.4357500000000  0.5047620000000  0.5250820000000 1.0
C      1  0.4919550000000  0.4741930000000  0.5586630000000 1.0
C      1  0.4940220000000  0.4486810000000  0.4525890000000 1.0
C      1  0.4457680000000  0.4925410000000  0.4543010000000 1.0
C      1  0.4427030000000  0.4818770000000  0.4630400000000 1.0
C      1  0.5030220000000  0.5453220000000  0.4444190000000 1.0
C      1  0.5677150000000  0.5031920000000  0.4553620000000 1.0
C      1  0.5627940000000  0.5150350000000  0.4617320000000 1.0
C      1  0.5328780000000  0.4409410000000  0.4920830000000 1.0
C      1  0.4919250000000  0.5368690000000  0.4439440000000 1.0
C      1  0.5087760000000  0.4606310000000  0.5556050000000 1.0
C      1  0.5124860000000  0.5274640000000  0.4363460000000 1.0
C      1  0.5233770000000  0.5624440000000  0.5006450000000 1.0
C      1  0.5245740000000  0.5613450000000  0.5148930000000 1.0
C      1  0.5105520000000  0.5224380000000  0.5626370000000 1.0
C      1  0.5762270000000  0.5025630000000  0.4757940000000 1.0
C      1  0.5750010000000  0.5147960000000  0.4693620000000 1.0
C      1  0.5008950000000  0.4643830000000  0.4382200000000 1.0
C      1  0.4620040000000  0.5635810000000  0.4838170000000 1.0
C      1  0.5060590000000  0.4557930000000  0.4480110000000 1.0
C      1  0.4930680000000  0.5361650000000  0.5594800000000 1.0
C      1  0.5367430000000  0.5545440000000  0.5177260000000 1.0
C      1  0.5037160000000  0.5434660000000  0.5544640000000 1.0
C      1  0.4440100000000  0.4993630000000  0.5432200000000 1.0
C      1  0.4546080000000  0.4522400000000  0.5036130000000 1.0
C      1  0.4370600000000  0.4908160000000  0.5250750000000 1.0
C      1  0.5207390000000  0.4333820000000  0.4932410000000 1.0
C      1  0.4433410000000  0.4865320000000  0.5380680000000 1.0
C      1  0.5564820000000  0.5019010000000  0.5395790000000 1.0
C      1  0.5432760000000  0.5514320000000  0.5053140000000 1.0
C      1  0.5348060000000  0.5563590000000  0.4959820000000 1.0
C      1  0.5198780000000  0.4307240000000  0.5073640000000 1.0
C      1  0.4625730000000  0.4496270000000  0.5152130000000 1.0
C      1  0.5149170000000  0.5343880000000  0.5563790000000 1.0
C      1  0.5702620000000  0.5026350000000  0.5247410000000 1.0
C      1  0.5652630000000  0.5162220000000  0.5248000000000 1.0
C      1  0.4714890000000  0.5699110000000  0.4918160000000 1.0
C      1  0.5562090000000  0.5160980000000  0.5360010000000 1.0
C      1  0.4547500000000  0.5596750000000  0.4961900000000 1.0
C      1  0.4595710000000  0.5588870000000  0.5091040000000 1.0
C      1  0.5391550000000  0.4408260000000  0.5050390000000 1.0
C      1  0.4828270000000  0.4572060000000  0.4491020000000 1.0
C      1  0.5059040000000  0.4731160000000  0.5620040000000 1.0
C      1  0.4985550000000  0.5289160000000  0.4346510000000 1.0
C      1  0.5712280000000  0.4935950000000  0.4649270000000 1.0
C      1  0.4725810000000  0.4406580000000  0.5106650000000 1.0
C      1  0.4713690000000  0.4384630000000  0.4962660000000 1.0
C      1  0.4870860000000  0.4666620000000  0.4391840000000 1.0
C      1  0.4425000000000  0.5043830000000  0.4598460000000 1.0
C      1  0.4399560000000  0.5113210000000  0.5363800000000 1.0
C      1  0.5687100000000  0.4961440000000  0.5365580000000 1.0
END
