TITL C240-863441 20.4500460354952 1000000 -1658.32355821961 0 0 240 (C1) n - 1
REM
REM in /home/chem/mssmkc/work/CARBON/AIRSS/Generating-Clusters/Str-Search/GAP20/LAMMPS-RUNS
REM
REM
REM
REM
REM
REM C240.cell (c5c6578f4cf9cdba4167bd436f8c90ff)
REM
REM
REM
REM
REM
CELL 1.54180  100.00000  100.00000  100.00000   90.00000   90.00000   90.00000
LATT -1
SFAC C  
C      1  0.5188260000000  0.4493760000000  0.5313780000000 1.0
C      1  0.4692300000000  0.4809380000000  0.4486370000000 1.0
C      1  0.4490670000000  0.5300840000000  0.4806290000000 1.0
C      1  0.4376080000000  0.4998200000000  0.5006280000000 1.0
C      1  0.5006090000000  0.5622200000000  0.4997950000000 1.0
C      1  0.5001030000000  0.4375360000000  0.5009450000000 1.0
C      1  0.4688780000000  0.4811830000000  0.5510280000000 1.0
C      1  0.5626230000000  0.4999840000000  0.5001210000000 1.0
C      1  0.5306620000000  0.5206210000000  0.5501590000000 1.0
C      1  0.4998350000000  0.4999530000000  0.4373150000000 1.0
C      1  0.5506530000000  0.4685310000000  0.4808650000000 1.0
C      1  0.5313990000000  0.5193550000000  0.4493990000000 1.0
C      1  0.4813310000000  0.4489230000000  0.4684080000000 1.0
C      1  0.5198900000000  0.5501370000000  0.4682750000000 1.0
C      1  0.4897590000000  0.5542210000000  0.5269150000000 1.0
C      1  0.5008350000000  0.4999350000000  0.5624700000000 1.0
C      1  0.5509910000000  0.5309480000000  0.5188670000000 1.0
C      1  0.4807980000000  0.5509210000000  0.4699410000000 1.0
C      1  0.4489370000000  0.5312520000000  0.5196630000000 1.0
C      1  0.4458700000000  0.4729410000000  0.4895540000000 1.0
C      1  0.5195240000000  0.5507330000000  0.5303560000000 1.0
C      1  0.5196090000000  0.4494660000000  0.4686420000000 1.0
C      1  0.5503570000000  0.4686170000000  0.5197870000000 1.0
C      1  0.4793600000000  0.4498440000000  0.5306920000000 1.0
C      1  0.4492960000000  0.4694210000000  0.5193730000000 1.0
C      1  0.5510170000000  0.5310850000000  0.4804210000000 1.0
C      1  0.4684290000000  0.5191070000000  0.5512890000000 1.0
C      1  0.5312990000000  0.4807280000000  0.5505590000000 1.0
C      1  0.4687990000000  0.5202840000000  0.4499780000000 1.0
C      1  0.5315340000000  0.4805080000000  0.4494720000000 1.0
C      1  0.5005790000000  0.5144660000000  0.5676750000000 1.0
C      1  0.5455800000000  0.4872870000000  0.5500430000000 1.0
C      1  0.4787130000000  0.4716410000000  0.4404370000000 1.0
C      1  0.4786640000000  0.5289460000000  0.4413620000000 1.0
C      1  0.5138190000000  0.4499720000000  0.4541220000000 1.0
C      1  0.4546010000000  0.5142730000000  0.4498120000000 1.0
C      1  0.5285340000000  0.5592220000000  0.5211170000000 1.0
C      1  0.4854780000000  0.4501490000000  0.5452210000000 1.0
C      1  0.4403830000000  0.5192550000000  0.4723220000000 1.0
C      1  0.4782940000000  0.4719090000000  0.5593200000000 1.0
C      1  0.5280390000000  0.4408440000000  0.5221220000000 1.0
C      1  0.4998520000000  0.5147700000000  0.4325110000000 1.0
C      1  0.4323780000000  0.4998400000000  0.5151610000000 1.0
C      1  0.4494550000000  0.5447250000000  0.4860300000000 1.0
C      1  0.5003450000000  0.4852030000000  0.4322750000000 1.0
C      1  0.5675080000000  0.4998570000000  0.5149330000000 1.0
C      1  0.5499260000000  0.4540810000000  0.4869080000000 1.0
C      1  0.5125480000000  0.4501710000000  0.5457820000000 1.0
C      1  0.5457940000000  0.5133680000000  0.4498680000000 1.0
C      1  0.4543060000000  0.4866250000000  0.5502390000000 1.0
C      1  0.4720190000000  0.5592050000000  0.4808310000000 1.0
C      1  0.5592310000000  0.5216160000000  0.5283350000000 1.0
C      1  0.5595060000000  0.5214110000000  0.4715450000000 1.0
C      1  0.4682280000000  0.5609810000000  0.5188220000000 1.0
C      1  0.5217840000000  0.5281010000000  0.4407220000000 1.0
C      1  0.5220510000000  0.4717680000000  0.4407340000000 1.0
C      1  0.4735090000000  0.4398020000000  0.4777240000000 1.0
C      1  0.4876640000000  0.5490680000000  0.5502300000000 1.0
C      1  0.4554870000000  0.4874290000000  0.4482820000000 1.0
C      1  0.5450990000000  0.5143390000000  0.5500250000000 1.0
C      1  0.5134290000000  0.5498750000000  0.4540580000000 1.0
C      1  0.5002640000000  0.4851720000000  0.5674580000000 1.0
C      1  0.4331520000000  0.4971090000000  0.4868110000000 1.0
C      1  0.5148760000000  0.4325790000000  0.5002820000000 1.0
C      1  0.4778590000000  0.5268660000000  0.5603370000000 1.0
C      1  0.5589930000000  0.4782270000000  0.5285550000000 1.0
C      1  0.4483580000000  0.5448350000000  0.5128790000000 1.0
C      1  0.5676240000000  0.4998170000000  0.4853300000000 1.0
C      1  0.4868360000000  0.5667330000000  0.5026600000000 1.0
C      1  0.5118500000000  0.5516480000000  0.5429290000000 1.0
C      1  0.5592800000000  0.4780160000000  0.4719200000000 1.0
C      1  0.4869810000000  0.4498340000000  0.4539280000000 1.0
C      1  0.4539730000000  0.5134110000000  0.5504360000000 1.0
C      1  0.5203240000000  0.5303750000000  0.5579590000000 1.0
C      1  0.5219360000000  0.4716630000000  0.5590790000000 1.0
C      1  0.4406390000000  0.5216390000000  0.5285820000000 1.0
C      1  0.5498470000000  0.4542160000000  0.5138180000000 1.0
C      1  0.5151680000000  0.5673530000000  0.4996600000000 1.0
C      1  0.4865390000000  0.5506820000000  0.4553860000000 1.0
C      1  0.4855920000000  0.4323030000000  0.5005540000000 1.0
C      1  0.5459880000000  0.4864430000000  0.4501170000000 1.0
C      1  0.4696910000000  0.4419890000000  0.5202820000000 1.0
C      1  0.5285700000000  0.5588050000000  0.4778780000000 1.0
C      1  0.5503750000000  0.5455560000000  0.4862590000000 1.0
C      1  0.4392800000000  0.4811100000000  0.4680220000000 1.0
C      1  0.4407210000000  0.4784490000000  0.5284480000000 1.0
C      1  0.5281810000000  0.4407750000000  0.4783480000000 1.0
C      1  0.4511680000000  0.4497060000000  0.4874340000000 1.0
C      1  0.4484320000000  0.4569040000000  0.5116300000000 1.0
C      1  0.5502700000000  0.5454030000000  0.5131260000000 1.0
C      1  0.5004390000000  0.4472790000000  0.4524180000000 1.0
C      1  0.4368850000000  0.4824210000000  0.4819320000000 1.0
C      1  0.4813690000000  0.5403510000000  0.5567350000000 1.0
C      1  0.4802770000000  0.4592680000000  0.5541100000000 1.0
C      1  0.5113380000000  0.5231090000000  0.5656330000000 1.0
C      1  0.5663150000000  0.5113990000000  0.5223830000000 1.0
C      1  0.4570840000000  0.4473810000000  0.5168730000000 1.0
C      1  0.4883110000000  0.5222540000000  0.4340020000000 1.0
C      1  0.5540660000000  0.5195000000000  0.5409590000000 1.0
C      1  0.4814090000000  0.5414080000000  0.4465560000000 1.0
C      1  0.4571530000000  0.5551860000000  0.5175830000000 1.0
C      1  0.4989850000000  0.4476760000000  0.5467620000000 1.0
C      1  0.5471500000000  0.4998910000000  0.4474190000000 1.0
C      1  0.5214090000000  0.4339100000000  0.4881930000000 1.0
C      1  0.4963960000000  0.5545030000000  0.5404800000000 1.0
C      1  0.4549310000000  0.5008410000000  0.4461650000000 1.0
C      1  0.4788070000000  0.5659090000000  0.4913090000000 1.0
C      1  0.5118620000000  0.5213290000000  0.4340180000000 1.0
C      1  0.4338560000000  0.5115220000000  0.5222040000000 1.0
C      1  0.5661120000000  0.4880000000000  0.4784560000000 1.0
C      1  0.5408000000000  0.4453910000000  0.4813630000000 1.0
C      1  0.4451080000000  0.5178710000000  0.4593640000000 1.0
C      1  0.4455670000000  0.5190150000000  0.5411300000000 1.0
C      1  0.5406090000000  0.4457000000000  0.5194080000000 1.0
C      1  0.5184980000000  0.4590910000000  0.5544900000000 1.0
C      1  0.5170480000000  0.5430180000000  0.5525050000000 1.0
C      1  0.5412050000000  0.5542710000000  0.4808710000000 1.0
C      1  0.4888520000000  0.4777350000000  0.4333870000000 1.0
C      1  0.5658270000000  0.4880600000000  0.5217940000000 1.0
C      1  0.4339020000000  0.5086320000000  0.4790850000000 1.0
C      1  0.5119070000000  0.4781020000000  0.5658860000000 1.0
C      1  0.4999860000000  0.5530170000000  0.4535770000000 1.0
C      1  0.5463120000000  0.5008340000000  0.5526970000000 1.0
C      1  0.4460380000000  0.5450520000000  0.4994600000000 1.0
C      1  0.4812510000000  0.4590920000000  0.4454980000000 1.0
C      1  0.4451920000000  0.4823760000000  0.4570010000000 1.0
C      1  0.5221900000000  0.4338270000000  0.5118460000000 1.0
C      1  0.4523130000000  0.4999660000000  0.5528480000000 1.0
C      1  0.5524740000000  0.4527070000000  0.5003740000000 1.0
C      1  0.5122270000000  0.4784190000000  0.4337480000000 1.0
C      1  0.4460330000000  0.4809760000000  0.5408530000000 1.0
C      1  0.4878560000000  0.5199340000000  0.5663830000000 1.0
C      1  0.5664450000000  0.5113790000000  0.4779370000000 1.0
C      1  0.5191990000000  0.4591360000000  0.4453890000000 1.0
C      1  0.5186160000000  0.5408340000000  0.4450050000000 1.0
C      1  0.5546430000000  0.5186900000000  0.4589660000000 1.0
C      1  0.4821410000000  0.5632110000000  0.5174370000000 1.0
C      1  0.4456060000000  0.4593700000000  0.4961810000000 1.0
C      1  0.4884510000000  0.4780980000000  0.5663170000000 1.0
C      1  0.5527770000000  0.5469760000000  0.4997100000000 1.0
C      1  0.4330480000000  0.4880230000000  0.5221830000000 1.0
C      1  0.5409200000000  0.5538850000000  0.5185290000000 1.0
C      1  0.4599730000000  0.4433200000000  0.4811450000000 1.0
C      1  0.4803390000000  0.4336690000000  0.4877320000000 1.0
C      1  0.5544990000000  0.4816560000000  0.5411510000000 1.0
C      1  0.5547640000000  0.4809600000000  0.4592330000000 1.0
C      1  0.4591500000000  0.5539960000000  0.4820210000000 1.0
C      1  0.5218820000000  0.5654760000000  0.4878350000000 1.0
C      1  0.5222840000000  0.5668220000000  0.5114550000000 1.0
C      1  0.4768920000000  0.4342940000000  0.5112750000000 1.0
C      1  0.5068560000000  0.5295660000000  0.5295510000000 1.0
C      1  0.5367750000000  0.5110310000000  0.5184950000000 1.0
C      1  0.5069210000000  0.4703490000000  0.4700450000000 1.0
C      1  0.5069070000000  0.5294580000000  0.4699830000000 1.0
C      1  0.5000650000000  0.4883160000000  0.4588820000000 1.0
C      1  0.4628700000000  0.4885740000000  0.4814950000000 1.0
C      1  0.5187060000000  0.5363540000000  0.4884920000000 1.0
C      1  0.4999210000000  0.4885660000000  0.5408960000000 1.0
C      1  0.4699910000000  0.4926550000000  0.4703040000000 1.0
C      1  0.5110150000000  0.4815870000000  0.5367100000000 1.0
C      1  0.5184250000000  0.4633390000000  0.4888380000000 1.0
C      1  0.4931520000000  0.5294030000000  0.4702550000000 1.0
C      1  0.4699330000000  0.5071690000000  0.5299870000000 1.0
C      1  0.4885990000000  0.5407040000000  0.4999020000000 1.0
C      1  0.4931350000000  0.4703170000000  0.4700220000000 1.0
C      1  0.5296560000000  0.4931930000000  0.5296150000000 1.0
C      1  0.5182880000000  0.4632750000000  0.5111250000000 1.0
C      1  0.4887660000000  0.4815850000000  0.5367440000000 1.0
C      1  0.5367910000000  0.4887560000000  0.4815970000000 1.0
C      1  0.4592980000000  0.5003350000000  0.5117470000000 1.0
C      1  0.4815640000000  0.5372130000000  0.5113090000000 1.0
C      1  0.5366230000000  0.4888170000000  0.5185510000000 1.0
C      1  0.5299330000000  0.4929980000000  0.4704470000000 1.0
C      1  0.4702730000000  0.5295290000000  0.4935180000000 1.0
C      1  0.4889370000000  0.5182010000000  0.4634350000000 1.0
C      1  0.4889010000000  0.4814330000000  0.4631480000000 1.0
C      1  0.4816820000000  0.4635890000000  0.5107660000000 1.0
C      1  0.4995420000000  0.5117070000000  0.5408910000000 1.0
C      1  0.4591980000000  0.4998500000000  0.4886570000000 1.0
C      1  0.5409730000000  0.4998390000000  0.5116090000000 1.0
C      1  0.5000470000000  0.5113800000000  0.4589850000000 1.0
C      1  0.5066920000000  0.4704970000000  0.5297660000000 1.0
C      1  0.4703330000000  0.5064950000000  0.4704080000000 1.0
C      1  0.5295720000000  0.4701090000000  0.4932130000000 1.0
C      1  0.5107540000000  0.5183380000000  0.5363960000000 1.0
C      1  0.5296710000000  0.5069420000000  0.5295670000000 1.0
C      1  0.4815380000000  0.5360640000000  0.4890710000000 1.0
C      1  0.5299820000000  0.5067660000000  0.4703780000000 1.0
C      1  0.4702500000000  0.5302080000000  0.5073570000000 1.0
C      1  0.4884630000000  0.5190080000000  0.5369390000000 1.0
C      1  0.5370020000000  0.5110090000000  0.4814330000000 1.0
C      1  0.5112200000000  0.4815040000000  0.4632060000000 1.0
C      1  0.4636430000000  0.4891230000000  0.5185920000000 1.0
C      1  0.4930110000000  0.5301390000000  0.5300050000000 1.0
C      1  0.4929340000000  0.4705000000000  0.5297460000000 1.0
C      1  0.4702660000000  0.4934070000000  0.5298530000000 1.0
C      1  0.5114120000000  0.4591360000000  0.4999120000000 1.0
C      1  0.5299630000000  0.5297810000000  0.4928500000000 1.0
C      1  0.5111780000000  0.5182540000000  0.4631460000000 1.0
C      1  0.4704600000000  0.4704190000000  0.5068190000000 1.0
C      1  0.5411010000000  0.4998910000000  0.4884420000000 1.0
C      1  0.4699650000000  0.4700000000000  0.4929650000000 1.0
C      1  0.5298190000000  0.5294940000000  0.5065910000000 1.0
C      1  0.5185910000000  0.5362290000000  0.5107920000000 1.0
C      1  0.4637200000000  0.5107900000000  0.4817310000000 1.0
C      1  0.4633480000000  0.5114800000000  0.5187450000000 1.0
C      1  0.5294810000000  0.4701150000000  0.5069820000000 1.0
C      1  0.4883570000000  0.4591380000000  0.4995700000000 1.0
C      1  0.4811830000000  0.4632080000000  0.4884540000000 1.0
C      1  0.5116920000000  0.5404630000000  0.4995780000000 1.0
C      1  0.5149020000000  0.4603060000000  0.5245140000000 1.0
C      1  0.4754600000000  0.4845570000000  0.4600700000000 1.0
C      1  0.4603400000000  0.5240470000000  0.4850750000000 1.0
C      1  0.4512400000000  0.5002610000000  0.5002760000000 1.0
C      1  0.5002560000000  0.5485830000000  0.4994320000000 1.0
C      1  0.4999000000000  0.4510150000000  0.4997750000000 1.0
C      1  0.4755040000000  0.4851130000000  0.5399680000000 1.0
C      1  0.5491280000000  0.4998320000000  0.5000700000000 1.0
C      1  0.5241610000000  0.5152810000000  0.5395650000000 1.0
C      1  0.4999960000000  0.4998800000000  0.4508020000000 1.0
C      1  0.5397650000000  0.4753630000000  0.4849700000000 1.0
C      1  0.5246170000000  0.5150100000000  0.4602260000000 1.0
C      1  0.4847280000000  0.4601530000000  0.4751110000000 1.0
C      1  0.5154630000000  0.5394050000000  0.4751190000000 1.0
C      1  0.4860870000000  0.5407780000000  0.5240790000000 1.0
C      1  0.4998260000000  0.5001150000000  0.5489810000000 1.0
C      1  0.5399470000000  0.5242960000000  0.5149200000000 1.0
C      1  0.4847100000000  0.5393290000000  0.4757410000000 1.0
C      1  0.4602220000000  0.5249280000000  0.5157680000000 1.0
C      1  0.4593250000000  0.4757850000000  0.4859400000000 1.0
C      1  0.5154280000000  0.5393180000000  0.5240990000000 1.0
C      1  0.5152560000000  0.4603000000000  0.4754070000000 1.0
C      1  0.5395450000000  0.4753760000000  0.5153840000000 1.0
C      1  0.4846770000000  0.4604480000000  0.5241940000000 1.0
C      1  0.4606660000000  0.4758080000000  0.5153730000000 1.0
C      1  0.5400900000000  0.5244120000000  0.4846170000000 1.0
C      1  0.4751020000000  0.5155980000000  0.5400880000000 1.0
C      1  0.5244060000000  0.4848860000000  0.5397300000000 1.0
C      1  0.4755800000000  0.5149810000000  0.4604150000000 1.0
C      1  0.5246530000000  0.4847370000000  0.4602880000000 1.0
END
