TITL C-102688-8074-138 -5.89829628857481 1000000 -1652.16886307023 0 0 240 (C1) n - 1
REM
REM in /home/chem/mssmkc/work/GAP20/Larger-Clusters/Only-C240-new-series
REM
REM
REM
REM
REM
REM ./C.cell (0485df7495ed2a90f93db84a705cd676)
REM
REM compiler GCC version 8.3.0
REM options -cpp -mtune=generic -march=x86-64 -g -O0
REM seed 1702460210 -55010030 1874547867 -138236900 -1212366824 946350044 -661897173 -346889457 -388962733 13649936 204823559 -109683465 -840005399 885917219 1120663920 -376032758 662981977 1265075371 1950361064 -1388767915 -19456355 1713791721 -259854421 -93038671 -1382237976 223817768 -2130892028 -42415584 -1857084139 885292936 1517332517 1741310207 -798580157
REM
CELL 1.54180  100.00000  100.00000  100.00000   90.00000   90.00000   90.00000
LATT -1
SFAC C  
C      1  0.5528100000000  0.4966770000000  0.5623290000000 1.0
C      1  0.5625270000000  0.5530400000000  0.4969540000000 1.0
C      1  0.4969040000000  0.5625250000000  0.5529910000000 1.0
C      1  0.4465660000000  0.4971690000000  0.4377100000000 1.0
C      1  0.5529060000000  0.5033130000000  0.4379860000000 1.0
C      1  0.4464810000000  0.5027970000000  0.5619970000000 1.0
C      1  0.4381810000000  0.5530010000000  0.5033010000000 1.0
C      1  0.5624990000000  0.4466590000000  0.5028420000000 1.0
C      1  0.4382260000000  0.4466800000000  0.4969160000000 1.0
C      1  0.5028920000000  0.5620080000000  0.4466030000000 1.0
C      1  0.4967690000000  0.4376740000000  0.4470750000000 1.0
C      1  0.5029900000000  0.4381990000000  0.5533940000000 1.0
C      1  0.5617400000000  0.4968810000000  0.5532960000000 1.0
C      1  0.4971500000000  0.5534740000000  0.5619140000000 1.0
C      1  0.5534830000000  0.5619710000000  0.4971510000000 1.0
C      1  0.4375520000000  0.4971260000000  0.4466830000000 1.0
C      1  0.4374310000000  0.5030150000000  0.5530690000000 1.0
C      1  0.5618680000000  0.5032760000000  0.4469770000000 1.0
C      1  0.5030810000000  0.5530650000000  0.4375720000000 1.0
C      1  0.5032350000000  0.4471290000000  0.5624340000000 1.0
C      1  0.4969590000000  0.4466990000000  0.4381310000000 1.0
C      1  0.4471370000000  0.5619940000000  0.5033540000000 1.0
C      1  0.4471580000000  0.4376460000000  0.4967210000000 1.0
C      1  0.5534810000000  0.4376850000000  0.5027730000000 1.0
C      1  0.4786660000000  0.4584220000000  0.5313400000000 1.0
C      1  0.5314750000000  0.4787280000000  0.4584600000000 1.0
C      1  0.4584340000000  0.5314360000000  0.4786940000000 1.0
C      1  0.5213410000000  0.4584500000000  0.4684280000000 1.0
C      1  0.4786510000000  0.5416010000000  0.4686160000000 1.0
C      1  0.5213330000000  0.5415470000000  0.5316020000000 1.0
C      1  0.4685980000000  0.4786000000000  0.5416170000000 1.0
C      1  0.5315400000000  0.5212640000000  0.5415130000000 1.0
C      1  0.4684970000000  0.5214280000000  0.4583770000000 1.0
C      1  0.5415670000000  0.5315710000000  0.5213380000000 1.0
C      1  0.4584140000000  0.4686250000000  0.5213470000000 1.0
C      1  0.5416190000000  0.4684610000000  0.4786060000000 1.0
C      1  0.5314930000000  0.4583740000000  0.4785710000000 1.0
C      1  0.4584250000000  0.4786500000000  0.5315930000000 1.0
C      1  0.4786270000000  0.5315950000000  0.4584260000000 1.0
C      1  0.4684590000000  0.4584790000000  0.5212800000000 1.0
C      1  0.4685200000000  0.5415330000000  0.4787370000000 1.0
C      1  0.5314120000000  0.5416130000000  0.5214030000000 1.0
C      1  0.5415780000000  0.4786720000000  0.4685430000000 1.0
C      1  0.5415740000000  0.5213220000000  0.5313590000000 1.0
C      1  0.4583910000000  0.5213760000000  0.4684830000000 1.0
C      1  0.5213600000000  0.5313520000000  0.5415980000000 1.0
C      1  0.5213180000000  0.4686370000000  0.4584220000000 1.0
C      1  0.4786960000000  0.4684220000000  0.5415290000000 1.0
C      1  0.4543180000000  0.5250550000000  0.5357190000000 1.0
C      1  0.5355650000000  0.4541190000000  0.5249680000000 1.0
C      1  0.5250910000000  0.5357020000000  0.4543720000000 1.0
C      1  0.5456480000000  0.5252630000000  0.4645920000000 1.0
C      1  0.4541750000000  0.4749980000000  0.4644080000000 1.0
C      1  0.5457870000000  0.4747760000000  0.5352940000000 1.0
C      1  0.4644270000000  0.4544440000000  0.4747690000000 1.0
C      1  0.5354420000000  0.5459120000000  0.4749630000000 1.0
C      1  0.4645580000000  0.5455990000000  0.5253080000000 1.0
C      1  0.4749190000000  0.5353680000000  0.5459530000000 1.0
C      1  0.5251990000000  0.4643430000000  0.5455280000000 1.0
C      1  0.4748150000000  0.4646940000000  0.4541620000000 1.0
C      1  0.5354310000000  0.5252840000000  0.4543730000000 1.0
C      1  0.5251730000000  0.4541280000000  0.5352870000000 1.0
C      1  0.4543470000000  0.5353780000000  0.5252900000000 1.0
C      1  0.4645600000000  0.5250240000000  0.5459490000000 1.0
C      1  0.4644210000000  0.4750180000000  0.4541620000000 1.0
C      1  0.5355720000000  0.4747410000000  0.5455290000000 1.0
C      1  0.4748060000000  0.4544570000000  0.4643800000000 1.0
C      1  0.4748950000000  0.5456120000000  0.5357350000000 1.0
C      1  0.5250830000000  0.5459250000000  0.4646130000000 1.0
C      1  0.5456800000000  0.5356820000000  0.4749260000000 1.0
C      1  0.5458150000000  0.4643660000000  0.5249820000000 1.0
C      1  0.4542070000000  0.4646760000000  0.4748090000000 1.0
C      1  0.4323790000000  0.4830200000000  0.5064770000000 1.0
C      1  0.5068490000000  0.4327800000000  0.4836040000000 1.0
C      1  0.4829620000000  0.5065740000000  0.4323220000000 1.0
C      1  0.5676210000000  0.4831110000000  0.4933630000000 1.0
C      1  0.4326230000000  0.5165810000000  0.4933100000000 1.0
C      1  0.5673720000000  0.5165010000000  0.5068580000000 1.0
C      1  0.4936450000000  0.4323510000000  0.5170400000000 1.0
C      1  0.5069350000000  0.5672900000000  0.5164300000000 1.0
C      1  0.4935490000000  0.5676960000000  0.4829870000000 1.0
C      1  0.5162690000000  0.5068560000000  0.5671660000000 1.0
C      1  0.4828550000000  0.4935810000000  0.5677440000000 1.0
C      1  0.5164250000000  0.4932460000000  0.4327060000000 1.0
C      1  0.5064420000000  0.4830700000000  0.4323840000000 1.0
C      1  0.4837020000000  0.4328120000000  0.5068340000000 1.0
C      1  0.4323840000000  0.5066200000000  0.4831260000000 1.0
C      1  0.4930990000000  0.4836910000000  0.5671840000000 1.0
C      1  0.4931220000000  0.5165450000000  0.4326500000000 1.0
C      1  0.5063780000000  0.5171050000000  0.5677250000000 1.0
C      1  0.5170750000000  0.4323100000000  0.4935050000000 1.0
C      1  0.5171220000000  0.5677320000000  0.5064790000000 1.0
C      1  0.4836240000000  0.5672560000000  0.4932120000000 1.0
C      1  0.5676060000000  0.5064550000000  0.5169610000000 1.0
C      1  0.5673850000000  0.4932930000000  0.4834030000000 1.0
C      1  0.4326180000000  0.4931230000000  0.5165210000000 1.0
C      1  0.5035220000000  0.4370290000000  0.5396930000000 1.0
C      1  0.5391880000000  0.5038770000000  0.4368550000000 1.0
C      1  0.4369430000000  0.5392940000000  0.5038390000000 1.0
C      1  0.4961400000000  0.4367610000000  0.4608010000000 1.0
C      1  0.5034530000000  0.5631010000000  0.4603060000000 1.0
C      1  0.4962370000000  0.5633480000000  0.5392630000000 1.0
C      1  0.4601810000000  0.5033690000000  0.5630800000000 1.0
C      1  0.5390790000000  0.4960570000000  0.5632460000000 1.0
C      1  0.4602720000000  0.4965710000000  0.4367940000000 1.0
C      1  0.5633560000000  0.5393150000000  0.4963090000000 1.0
C      1  0.4370230000000  0.4603780000000  0.4963970000000 1.0
C      1  0.5633100000000  0.4603710000000  0.5034720000000 1.0
C      1  0.5397750000000  0.4367930000000  0.5033800000000 1.0
C      1  0.4366250000000  0.5036740000000  0.5393440000000 1.0
C      1  0.5037230000000  0.5393430000000  0.4366980000000 1.0
C      1  0.4608890000000  0.4367430000000  0.4961020000000 1.0
C      1  0.4608560000000  0.5631420000000  0.5039230000000 1.0
C      1  0.5397840000000  0.5630750000000  0.4965910000000 1.0
C      1  0.5630750000000  0.5038200000000  0.4606850000000 1.0
C      1  0.5629600000000  0.4963670000000  0.5395980000000 1.0
C      1  0.4367080000000  0.4965130000000  0.4603960000000 1.0
C      1  0.4965910000000  0.5397740000000  0.5630420000000 1.0
C      1  0.4964240000000  0.4604020000000  0.4369760000000 1.0
C      1  0.5038860000000  0.4608610000000  0.5632860000000 1.0
C      1  0.4874480000000  0.4672720000000  0.4468470000000 1.0
C      1  0.4468020000000  0.4875540000000  0.4670150000000 1.0
C      1  0.4671320000000  0.4471630000000  0.4872990000000 1.0
C      1  0.5126750000000  0.4670460000000  0.5528140000000 1.0
C      1  0.4875670000000  0.5328220000000  0.5532660000000 1.0
C      1  0.5125600000000  0.5330330000000  0.4470680000000 1.0
C      1  0.5530750000000  0.4874250000000  0.5327160000000 1.0
C      1  0.4469850000000  0.5125450000000  0.5330480000000 1.0
C      1  0.5528990000000  0.5126650000000  0.4672460000000 1.0
C      1  0.5330020000000  0.4467600000000  0.5123660000000 1.0
C      1  0.4672550000000  0.5528490000000  0.5127440000000 1.0
C      1  0.5328870000000  0.5532290000000  0.4875980000000 1.0
C      1  0.4469160000000  0.4672520000000  0.4874550000000 1.0
C      1  0.4670000000000  0.4876110000000  0.4468100000000 1.0
C      1  0.4873490000000  0.4471820000000  0.4670660000000 1.0
C      1  0.5531960000000  0.4669710000000  0.5124290000000 1.0
C      1  0.5530090000000  0.5330050000000  0.4874400000000 1.0
C      1  0.4471020000000  0.5327180000000  0.5126890000000 1.0
C      1  0.5328590000000  0.4872720000000  0.5528010000000 1.0
C      1  0.5327460000000  0.5127190000000  0.4471080000000 1.0
C      1  0.4671050000000  0.5123850000000  0.5532710000000 1.0
C      1  0.5125140000000  0.4468260000000  0.5327370000000 1.0
C      1  0.5124610000000  0.5532550000000  0.4671820000000 1.0
C      1  0.4874070000000  0.5529190000000  0.5330460000000 1.0
C      1  0.5106750000000  0.5294250000000  0.5503600000000 1.0
C      1  0.5502910000000  0.5106020000000  0.5294060000000 1.0
C      1  0.5294940000000  0.5503760000000  0.5107210000000 1.0
C      1  0.4893850000000  0.5297690000000  0.4497320000000 1.0
C      1  0.5106030000000  0.4705820000000  0.4496910000000 1.0
C      1  0.4894910000000  0.4702560000000  0.5501860000000 1.0
C      1  0.4496370000000  0.5106770000000  0.4703430000000 1.0
C      1  0.5502520000000  0.4894360000000  0.4704560000000 1.0
C      1  0.4497040000000  0.4893920000000  0.5297910000000 1.0
C      1  0.4704170000000  0.5501940000000  0.4895240000000 1.0
C      1  0.5296100000000  0.4496150000000  0.4892560000000 1.0
C      1  0.4703070000000  0.4498170000000  0.5104900000000 1.0
C      1  0.5502850000000  0.5297590000000  0.5105950000000 1.0
C      1  0.5296850000000  0.5104650000000  0.5501650000000 1.0
C      1  0.5105670000000  0.5502410000000  0.5297920000000 1.0
C      1  0.4497620000000  0.5295160000000  0.4894600000000 1.0
C      1  0.4496930000000  0.4705730000000  0.5106310000000 1.0
C      1  0.5503730000000  0.4703100000000  0.4893060000000 1.0
C      1  0.4703830000000  0.5107390000000  0.4496240000000 1.0
C      1  0.4705140000000  0.4892790000000  0.5503850000000 1.0
C      1  0.5295790000000  0.4895040000000  0.4497850000000 1.0
C      1  0.4893430000000  0.5503600000000  0.4705410000000 1.0
C      1  0.4893730000000  0.4496880000000  0.5293960000000 1.0
C      1  0.5105510000000  0.4497960000000  0.4702760000000 1.0
C      1  0.5028250000000  0.4525880000000  0.5236380000000 1.0
C      1  0.5235710000000  0.5029720000000  0.4526500000000 1.0
C      1  0.4526480000000  0.5235530000000  0.5029290000000 1.0
C      1  0.4970820000000  0.4526730000000  0.4762780000000 1.0
C      1  0.5028030000000  0.5475030000000  0.4763110000000 1.0
C      1  0.4970860000000  0.5474420000000  0.5237850000000 1.0
C      1  0.4762420000000  0.5027390000000  0.5475100000000 1.0
C      1  0.5236470000000  0.4970040000000  0.5473140000000 1.0
C      1  0.4761590000000  0.4972730000000  0.4524890000000 1.0
C      1  0.5474680000000  0.5237800000000  0.4971170000000 1.0
C      1  0.4525800000000  0.4763830000000  0.4971700000000 1.0
C      1  0.5475310000000  0.4761390000000  0.5027750000000 1.0
C      1  0.5238670000000  0.4524990000000  0.5027170000000 1.0
C      1  0.4525150000000  0.5028730000000  0.5238120000000 1.0
C      1  0.5028650000000  0.5237930000000  0.4525640000000 1.0
C      1  0.4763320000000  0.4526790000000  0.4970270000000 1.0
C      1  0.4764430000000  0.5473370000000  0.5029910000000 1.0
C      1  0.5237390000000  0.5475100000000  0.4972590000000 1.0
C      1  0.5473610000000  0.5029070000000  0.4764170000000 1.0
C      1  0.5474040000000  0.4971440000000  0.5235920000000 1.0
C      1  0.4524790000000  0.4972110000000  0.4761750000000 1.0
C      1  0.4972160000000  0.5236950000000  0.5474890000000 1.0
C      1  0.4971440000000  0.4763830000000  0.4525690000000 1.0
C      1  0.5029600000000  0.4762810000000  0.5473460000000 1.0
C      1  0.4958520000000  0.4421480000000  0.4864140000000 1.0
C      1  0.4852740000000  0.4948910000000  0.4411180000000 1.0
C      1  0.4411980000000  0.4854660000000  0.4948360000000 1.0
C      1  0.5054230000000  0.4410570000000  0.5147740000000 1.0
C      1  0.4958810000000  0.5579840000000  0.5136430000000 1.0
C      1  0.5053340000000  0.5590070000000  0.4852420000000 1.0
C      1  0.5134190000000  0.4959140000000  0.5577590000000 1.0
C      1  0.4850490000000  0.5054060000000  0.5590850000000 1.0
C      1  0.5136480000000  0.5043990000000  0.4419200000000 1.0
C      1  0.5587840000000  0.4854340000000  0.5049880000000 1.0
C      1  0.4417740000000  0.5138130000000  0.5045390000000 1.0
C      1  0.5582080000000  0.5138470000000  0.4956370000000 1.0
C      1  0.4864930000000  0.4421670000000  0.4958250000000 1.0
C      1  0.4412110000000  0.4949870000000  0.4854510000000 1.0
C      1  0.4947310000000  0.4854160000000  0.4411410000000 1.0
C      1  0.5148780000000  0.4410450000000  0.5052620000000 1.0
C      1  0.5148350000000  0.5590220000000  0.4947100000000 1.0
C      1  0.4864720000000  0.5579680000000  0.5042720000000 1.0
C      1  0.5587880000000  0.4948150000000  0.5145110000000 1.0
C      1  0.5582290000000  0.5045200000000  0.4861630000000 1.0
C      1  0.4417860000000  0.5043400000000  0.5138660000000 1.0
C      1  0.5040380000000  0.4865310000000  0.5577700000000 1.0
C      1  0.5042580000000  0.5138000000000  0.4418930000000 1.0
C      1  0.4945440000000  0.5149070000000  0.5590790000000 1.0
C      1  0.5085650000000  0.5310520000000  0.5648940000000 1.0
C      1  0.5648160000000  0.5084330000000  0.5309530000000 1.0
C      1  0.5310810000000  0.5649100000000  0.5085960000000 1.0
C      1  0.4914640000000  0.5306390000000  0.4351480000000 1.0
C      1  0.5084840000000  0.4690830000000  0.4351550000000 1.0
C      1  0.4915750000000  0.4695690000000  0.5647830000000 1.0
C      1  0.4350610000000  0.5086370000000  0.4691230000000 1.0
C      1  0.5647960000000  0.4916100000000  0.4693180000000 1.0
C      1  0.4351110000000  0.4914100000000  0.5306120000000 1.0
C      1  0.4695060000000  0.5647620000000  0.4916470000000 1.0
C      1  0.5310360000000  0.4350540000000  0.4913490000000 1.0
C      1  0.4695830000000  0.4352260000000  0.5084060000000 1.0
C      1  0.5648760000000  0.5305910000000  0.5085720000000 1.0
C      1  0.5303930000000  0.5083710000000  0.5647580000000 1.0
C      1  0.5085290000000  0.5648390000000  0.5305400000000 1.0
C      1  0.4352180000000  0.5306660000000  0.4916320000000 1.0
C      1  0.4351670000000  0.4690290000000  0.5084610000000 1.0
C      1  0.5649510000000  0.4691080000000  0.4913460000000 1.0
C      1  0.4689850000000  0.5086380000000  0.4350640000000 1.0
C      1  0.4689090000000  0.4913920000000  0.5649210000000 1.0
C      1  0.5305320000000  0.4916150000000  0.4352210000000 1.0
C      1  0.4914290000000  0.5649030000000  0.4690190000000 1.0
C      1  0.4915180000000  0.4351600000000  0.5310030000000 1.0
C      1  0.5084240000000  0.4352120000000  0.4694900000000 1.0
END
