TITL C-102689-8077-24 0.0365595910608879 1000000 -1626.83786665422 0 0 240 (Td) n - 1
REM
REM in /home/chem/mssmkc/work/GAP20/Larger-Clusters/Only-C240-new-series
REM
REM
REM
REM
REM
REM ./C.cell (0485df7495ed2a90f93db84a705cd676)
REM
REM compiler GCC version 8.3.0
REM options -cpp -mtune=generic -march=x86-64 -g -O0
REM seed -1513929478 -1807016405 204668228 -1045969832 -357731613 1410688665 -28928813 1298390662 586714313 -253707621 1808054912 1486802688 -772780099 -1616873461 -328221597 -2080914410 755731304 1888752503 -1679132881 -1231742720 -1638909082 -583065914 594918648 2071462869 -776778911 -1981650752 973184004 1846739713 738273819 -1821272483 1348769987 -1372193557 1514179321
REM
CELL 1.54180  100.00000  100.00000  100.00000   90.00000   90.00000   90.00000
LATT -1
SFAC C  
C      1  0.4538420000000  0.5363100000000  0.4438260000000 1.0
C      1  0.4439430000000  0.4534690000000  0.5360130000000 1.0
C      1  0.5367180000000  0.4441580000000  0.4537620000000 1.0
C      1  0.5466010000000  0.4639480000000  0.4440250000000 1.0
C      1  0.5459060000000  0.5363720000000  0.5563400000000 1.0
C      1  0.4536510000000  0.4633700000000  0.5558090000000 1.0
C      1  0.5557710000000  0.5463640000000  0.5366680000000 1.0
C      1  0.5563780000000  0.4540240000000  0.4637750000000 1.0
C      1  0.4439090000000  0.5461430000000  0.4635430000000 1.0
C      1  0.4636470000000  0.5560550000000  0.4537310000000 1.0
C      1  0.4636710000000  0.4436930000000  0.5459820000000 1.0
C      1  0.5359640000000  0.5560940000000  0.5465260000000 1.0
C      1  0.5367220000000  0.4540010000000  0.4439630000000 1.0
C      1  0.4537980000000  0.4436820000000  0.5360300000000 1.0
C      1  0.4439820000000  0.5362540000000  0.4536080000000 1.0
C      1  0.4637200000000  0.5462570000000  0.4438880000000 1.0
C      1  0.5359590000000  0.5462500000000  0.5563240000000 1.0
C      1  0.4635990000000  0.4534910000000  0.5558250000000 1.0
C      1  0.5459160000000  0.5561510000000  0.5366520000000 1.0
C      1  0.4536950000000  0.5559980000000  0.4636050000000 1.0
C      1  0.5465910000000  0.4441690000000  0.4637130000000 1.0
C      1  0.5563830000000  0.4639600000000  0.4538850000000 1.0
C      1  0.4438690000000  0.4633590000000  0.5459490000000 1.0
C      1  0.5557660000000  0.5364280000000  0.5465580000000 1.0
C      1  0.5396520000000  0.4306630000000  0.4872940000000 1.0
C      1  0.4874350000000  0.5394770000000  0.4305380000000 1.0
C      1  0.4303870000000  0.4869660000000  0.5390570000000 1.0
C      1  0.4604490000000  0.5693950000000  0.4873010000000 1.0
C      1  0.4608300000000  0.4303330000000  0.5123880000000 1.0
C      1  0.5390690000000  0.5696090000000  0.5130170000000 1.0
C      1  0.5131130000000  0.4608430000000  0.4304580000000 1.0
C      1  0.5122920000000  0.5392450000000  0.5696420000000 1.0
C      1  0.4871600000000  0.4604350000000  0.5693620000000 1.0
C      1  0.5693020000000  0.5128520000000  0.5396640000000 1.0
C      1  0.5697010000000  0.4876290000000  0.4608850000000 1.0
C      1  0.4306090000000  0.5125530000000  0.4603940000000 1.0
C      1  0.4304120000000  0.5391500000000  0.4871130000000 1.0
C      1  0.5396790000000  0.4875940000000  0.4306250000000 1.0
C      1  0.4873830000000  0.4303630000000  0.5391510000000 1.0
C      1  0.5696880000000  0.4609090000000  0.4874820000000 1.0
C      1  0.4305850000000  0.4603700000000  0.5123380000000 1.0
C      1  0.5693150000000  0.5395720000000  0.5130670000000 1.0
C      1  0.4608690000000  0.5127260000000  0.4303720000000 1.0
C      1  0.5390420000000  0.5126790000000  0.5696860000000 1.0
C      1  0.4604100000000  0.4870010000000  0.5693170000000 1.0
C      1  0.5123060000000  0.5694550000000  0.5395700000000 1.0
C      1  0.4872120000000  0.5695490000000  0.4607480000000 1.0
C      1  0.5130990000000  0.4306330000000  0.4605300000000 1.0
C      1  0.5229160000000  0.4689460000000  0.4243350000000 1.0
C      1  0.4243630000000  0.5223200000000  0.4684460000000 1.0
C      1  0.4688680000000  0.4241580000000  0.5222130000000 1.0
C      1  0.4776800000000  0.5314030000000  0.4243010000000 1.0
C      1  0.4773010000000  0.4684420000000  0.5755220000000 1.0
C      1  0.5221030000000  0.5312100000000  0.5758430000000 1.0
C      1  0.5758830000000  0.4778240000000  0.4689410000000 1.0
C      1  0.5754800000000  0.5226990000000  0.5316570000000 1.0
C      1  0.4242730000000  0.4771570000000  0.5309560000000 1.0
C      1  0.5309550000000  0.5757390000000  0.5228060000000 1.0
C      1  0.5316570000000  0.4244780000000  0.4774410000000 1.0
C      1  0.4685200000000  0.5756260000000  0.4775400000000 1.0
C      1  0.4689140000000  0.5225760000000  0.4242460000000 1.0
C      1  0.5228950000000  0.4244680000000  0.4686090000000 1.0
C      1  0.4243380000000  0.4683800000000  0.5221390000000 1.0
C      1  0.5316830000000  0.4777730000000  0.4243900000000 1.0
C      1  0.4684740000000  0.4772080000000  0.5755070000000 1.0
C      1  0.5309300000000  0.5224440000000  0.5758570000000 1.0
C      1  0.4773510000000  0.5756760000000  0.4687780000000 1.0
C      1  0.5221240000000  0.5756880000000  0.5315680000000 1.0
C      1  0.4776300000000  0.4241680000000  0.5310440000000 1.0
C      1  0.5754850000000  0.5315160000000  0.5228800000000 1.0
C      1  0.4242980000000  0.5310960000000  0.4772630000000 1.0
C      1  0.5758790000000  0.4690070000000  0.4777180000000 1.0
C      1  0.4432270000000  0.5380150000000  0.5101400000000 1.0
C      1  0.5103220000000  0.4433470000000  0.5381450000000 1.0
C      1  0.5384210000000  0.5105390000000  0.4435750000000 1.0
C      1  0.5566920000000  0.4619380000000  0.5104120000000 1.0
C      1  0.5565080000000  0.5384530000000  0.4900350000000 1.0
C      1  0.4435730000000  0.4615940000000  0.4894130000000 1.0
C      1  0.4893770000000  0.5564760000000  0.5383230000000 1.0
C      1  0.4900710000000  0.4434520000000  0.4615960000000 1.0
C      1  0.5102300000000  0.5567240000000  0.4619360000000 1.0
C      1  0.4620250000000  0.4897220000000  0.4432250000000 1.0
C      1  0.4615070000000  0.5100130000000  0.5564720000000 1.0
C      1  0.5380460000000  0.4897260000000  0.5567270000000 1.0
C      1  0.5383900000000  0.4435090000000  0.5102980000000 1.0
C      1  0.4432140000000  0.5099920000000  0.5380340000000 1.0
C      1  0.5103670000000  0.5384000000000  0.4435280000000 1.0
C      1  0.4615290000000  0.5564440000000  0.5102550000000 1.0
C      1  0.5380780000000  0.5567560000000  0.4900050000000 1.0
C      1  0.4620030000000  0.4432910000000  0.4894430000000 1.0
C      1  0.5564850000000  0.4898320000000  0.5384340000000 1.0
C      1  0.4435870000000  0.4896160000000  0.4615190000000 1.0
C      1  0.5567150000000  0.5105600000000  0.4620130000000 1.0
C      1  0.4900800000000  0.4618610000000  0.4432720000000 1.0
C      1  0.5101850000000  0.4616710000000  0.5565530000000 1.0
C      1  0.4893680000000  0.5380680000000  0.5566470000000 1.0
C      1  0.4631880000000  0.4518690000000  0.5258560000000 1.0
C      1  0.5264290000000  0.4633250000000  0.4520760000000 1.0
C      1  0.4521120000000  0.5260310000000  0.4629940000000 1.0
C      1  0.5366070000000  0.5480110000000  0.5263670000000 1.0
C      1  0.5371450000000  0.4522440000000  0.4739240000000 1.0
C      1  0.4630610000000  0.5478760000000  0.4738520000000 1.0
C      1  0.4739490000000  0.5368960000000  0.4520380000000 1.0
C      1  0.4738270000000  0.4629230000000  0.5477560000000 1.0
C      1  0.5257950000000  0.5368560000000  0.5481310000000 1.0
C      1  0.5481790000000  0.4741390000000  0.4632540000000 1.0
C      1  0.5477070000000  0.5261930000000  0.5371250000000 1.0
C      1  0.4520020000000  0.4736370000000  0.5366270000000 1.0
C      1  0.4520820000000  0.4628980000000  0.5258380000000 1.0
C      1  0.4632230000000  0.5260950000000  0.4519710000000 1.0
C      1  0.5264230000000  0.4522320000000  0.4631170000000 1.0
C      1  0.5477120000000  0.5369820000000  0.5263860000000 1.0
C      1  0.4520320000000  0.5367700000000  0.4737830000000 1.0
C      1  0.5481740000000  0.4633500000000  0.4739930000000 1.0
C      1  0.5371550000000  0.4741260000000  0.4521430000000 1.0
C      1  0.4630260000000  0.4736500000000  0.5477380000000 1.0
C      1  0.5365960000000  0.5261290000000  0.5481490000000 1.0
C      1  0.4738670000000  0.5479380000000  0.4631310000000 1.0
C      1  0.5258000000000  0.5479490000000  0.5370890000000 1.0
C      1  0.4739090000000  0.4518810000000  0.5366630000000 1.0
C      1  0.4644560000000  0.4861520000000  0.5544580000000 1.0
C      1  0.5548050000000  0.4648450000000  0.4865350000000 1.0
C      1  0.4863500000000  0.5546630000000  0.4646960000000 1.0
C      1  0.5351130000000  0.5135970000000  0.5547990000000 1.0
C      1  0.5356380000000  0.4866480000000  0.4454800000000 1.0
C      1  0.4647930000000  0.5136040000000  0.4452630000000 1.0
C      1  0.4453030000000  0.5352180000000  0.4862650000000 1.0
C      1  0.4454410000000  0.4644040000000  0.5133030000000 1.0
C      1  0.5544520000000  0.5355330000000  0.5138970000000 1.0
C      1  0.5139290000000  0.4455000000000  0.4645530000000 1.0
C      1  0.5132710000000  0.5545940000000  0.5355540000000 1.0
C      1  0.4864500000000  0.4452430000000  0.5351970000000 1.0
C      1  0.4863070000000  0.4644520000000  0.5544940000000 1.0
C      1  0.4644890000000  0.5545380000000  0.4863850000000 1.0
C      1  0.5548150000000  0.4866700000000  0.4648090000000 1.0
C      1  0.5132620000000  0.5352970000000  0.5547630000000 1.0
C      1  0.4864920000000  0.5354540000000  0.4453990000000 1.0
C      1  0.5139380000000  0.4647970000000  0.4453440000000 1.0
C      1  0.5356180000000  0.4455250000000  0.4864140000000 1.0
C      1  0.4647600000000  0.4452180000000  0.5133350000000 1.0
C      1  0.5351320000000  0.5547200000000  0.5138650000000 1.0
C      1  0.4454640000000  0.5134930000000  0.4644400000000 1.0
C      1  0.5544420000000  0.5137080000000  0.5356220000000 1.0
C      1  0.4452790000000  0.4861290000000  0.5351290000000 1.0
C      1  0.4985250000000  0.4620690000000  0.5477620000000 1.0
C      1  0.5480080000000  0.4988350000000  0.4623700000000 1.0
C      1  0.4620240000000  0.5477270000000  0.4985430000000 1.0
C      1  0.5010970000000  0.5377110000000  0.5479470000000 1.0
C      1  0.5017370000000  0.4622990000000  0.4520650000000 1.0
C      1  0.4986400000000  0.5379220000000  0.4522270000000 1.0
C      1  0.4522900000000  0.5013390000000  0.4619980000000 1.0
C      1  0.4520020000000  0.4983300000000  0.5376240000000 1.0
C      1  0.5477000000000  0.5014960000000  0.5380090000000 1.0
C      1  0.5379880000000  0.4522800000000  0.4986230000000 1.0
C      1  0.5376450000000  0.5479820000000  0.5016760000000 1.0
C      1  0.4623440000000  0.4520120000000  0.5011580000000 1.0
C      1  0.4620000000000  0.4983420000000  0.5477020000000 1.0
C      1  0.4985660000000  0.5479370000000  0.4622880000000 1.0
C      1  0.5479910000000  0.4623530000000  0.4986850000000 1.0
C      1  0.5376220000000  0.5014380000000  0.5480070000000 1.0
C      1  0.4623680000000  0.5013970000000  0.4520000000000 1.0
C      1  0.5380100000000  0.4988240000000  0.4522920000000 1.0
C      1  0.5017320000000  0.4522380000000  0.4620800000000 1.0
C      1  0.4986000000000  0.4520540000000  0.5377010000000 1.0
C      1  0.5011020000000  0.5477720000000  0.5379310000000 1.0
C      1  0.4520200000000  0.5376540000000  0.4984800000000 1.0
C      1  0.5477170000000  0.5379790000000  0.5016930000000 1.0
C      1  0.4522710000000  0.4620150000000  0.5011420000000 1.0
C      1  0.4279870000000  0.4959530000000  0.5494420000000 1.0
C      1  0.5499970000000  0.4283510000000  0.4963480000000 1.0
C      1  0.4964270000000  0.5498870000000  0.4282700000000 1.0
C      1  0.5716200000000  0.5038180000000  0.5500260000000 1.0
C      1  0.5720380000000  0.4966790000000  0.4505410000000 1.0
C      1  0.4283540000000  0.5035500000000  0.4499910000000 1.0
C      1  0.4500320000000  0.5716660000000  0.4962840000000 1.0
C      1  0.4505010000000  0.4279900000000  0.5033230000000 1.0
C      1  0.5494700000000  0.5719930000000  0.5040450000000 1.0
C      1  0.5041400000000  0.4504440000000  0.4280710000000 1.0
C      1  0.5032280000000  0.5495810000000  0.5719580000000 1.0
C      1  0.4962050000000  0.4500880000000  0.5717010000000 1.0
C      1  0.4963690000000  0.4280430000000  0.5495550000000 1.0
C      1  0.4280130000000  0.5494940000000  0.4961460000000 1.0
C      1  0.5500300000000  0.4966530000000  0.4283590000000 1.0
C      1  0.5032390000000  0.5717280000000  0.5499130000000 1.0
C      1  0.4962630000000  0.5719310000000  0.4504160000000 1.0
C      1  0.5041290000000  0.4282980000000  0.4501160000000 1.0
C      1  0.5720160000000  0.4505230000000  0.4964860000000 1.0
C      1  0.4283290000000  0.4500090000000  0.5032860000000 1.0
C      1  0.5716420000000  0.5499740000000  0.5040820000000 1.0
C      1  0.4505370000000  0.5036770000000  0.4279830000000 1.0
C      1  0.5494380000000  0.5036910000000  0.5720340000000 1.0
C      1  0.4499960000000  0.4959780000000  0.5716250000000 1.0
C      1  0.4787530000000  0.5296430000000  0.5582870000000 1.0
C      1  0.5582560000000  0.4792190000000  0.5300320000000 1.0
C      1  0.5297290000000  0.5584530000000  0.4793370000000 1.0
C      1  0.5207880000000  0.4700890000000  0.5583150000000 1.0
C      1  0.5210400000000  0.5300560000000  0.4418500000000 1.0
C      1  0.4794190000000  0.4702130000000  0.4415480000000 1.0
C      1  0.4415090000000  0.5206440000000  0.5296670000000 1.0
C      1  0.4418890000000  0.4789530000000  0.4698720000000 1.0
C      1  0.5583460000000  0.5211840000000  0.4704290000000 1.0
C      1  0.4704350000000  0.4416440000000  0.4788350000000 1.0
C      1  0.4698660000000  0.5581500000000  0.5209300000000 1.0
C      1  0.5299690000000  0.4417540000000  0.5208980000000 1.0
C      1  0.5296920000000  0.4790550000000  0.5583710000000 1.0
C      1  0.4787660000000  0.5581600000000  0.5299000000000 1.0
C      1  0.5582800000000  0.5300990000000  0.4793850000000 1.0
C      1  0.4698480000000  0.5206760000000  0.5582310000000 1.0
C      1  0.5300070000000  0.5211520000000  0.4418650000000 1.0
C      1  0.4704530000000  0.4791170000000  0.4415330000000 1.0
C      1  0.5209980000000  0.4417020000000  0.5297980000000 1.0
C      1  0.4794060000000  0.4416950000000  0.4699350000000 1.0
C      1  0.5208290000000  0.5584420000000  0.4703670000000 1.0
C      1  0.4418850000000  0.4699970000000  0.4787870000000 1.0
C      1  0.5583220000000  0.4703040000000  0.5210760000000 1.0
C      1  0.4415130000000  0.5296000000000  0.5207520000000 1.0
C      1  0.5059280000000  0.4482550000000  0.5622830000000 1.0
C      1  0.5625600000000  0.5063290000000  0.4486380000000 1.0
C      1  0.4481380000000  0.5621850000000  0.5059330000000 1.0
C      1  0.4935800000000  0.5514580000000  0.5624720000000 1.0
C      1  0.4944300000000  0.4485000000000  0.4374810000000 1.0
C      1  0.5060610000000  0.5517870000000  0.4377650000000 1.0
C      1  0.4378470000000  0.4939090000000  0.4481170000000 1.0
C      1  0.4373990000000  0.5056600000000  0.5513900000000 1.0
C      1  0.5621940000000  0.4941020000000  0.5518550000000 1.0
C      1  0.5518150000000  0.4377880000000  0.5060560000000 1.0
C      1  0.5514300000000  0.5625700000000  0.4943520000000 1.0
C      1  0.4486180000000  0.4374580000000  0.4936590000000 1.0
C      1  0.4481110000000  0.5056720000000  0.5621870000000 1.0
C      1  0.5059820000000  0.5625170000000  0.4485440000000 1.0
C      1  0.5625320000000  0.4485790000000  0.5061230000000 1.0
C      1  0.5513970000000  0.4940400000000  0.5625670000000 1.0
C      1  0.4486450000000  0.4939710000000  0.4374050000000 1.0
C      1  0.5518470000000  0.5063170000000  0.4378410000000 1.0
C      1  0.4944250000000  0.4377210000000  0.4482110000000 1.0
C      1  0.5060070000000  0.4375250000000  0.5515030000000 1.0
C      1  0.4935860000000  0.5622380000000  0.5517410000000 1.0
C      1  0.4374210000000  0.5513930000000  0.5058660000000 1.0
C      1  0.5622210000000  0.5518520000000  0.4943700000000 1.0
C      1  0.4378260000000  0.4481760000000  0.4936410000000 1.0
END
