TITL C-102689-8077-158 -4.48606408561664 1000000 -1707.36373205229 0 0 240 (C1) n - 1
REM
REM in /home/chem/mssmkc/work/GAP20/Larger-Clusters/Only-C240-new-series
REM
REM
REM
REM
REM
REM ./C.cell (0485df7495ed2a90f93db84a705cd676)
REM
REM compiler GCC version 8.3.0
REM options -cpp -mtune=generic -march=x86-64 -g -O0
REM seed 1113874009 1738722764 504519585 -730242007 1763853700 -1526060055 785310267 -299113995 148077314 997356510 -2046582134 -1424403527 71199552 -1477291100 -987532713 -591409914 291580904 -1770867785 -1660859193 2070680343 -257889971 1857680535 1037433932 -608131377 554405268 -1299125895 1324954203 2003231877 -391668288 -1260322382 162578494 -2103556786 -1415872753
REM
CELL 1.54180  100.00000  100.00000  100.00000   90.00000   90.00000   90.00000
LATT -1
SFAC C  
C      1  0.5317860000000  0.4855280000000  0.4844560000000 1.0
C      1  0.4915980000000  0.5365220000000  0.4818000000000 1.0
C      1  0.4818510000000  0.4930720000000  0.5393590000000 1.0
C      1  0.5414350000000  0.5183450000000  0.5085280000000 1.0
C      1  0.4578630000000  0.5190680000000  0.4904390000000 1.0
C      1  0.4689270000000  0.4857190000000  0.5140910000000 1.0
C      1  0.4888870000000  0.4706070000000  0.5099910000000 1.0
C      1  0.5198890000000  0.4790870000000  0.4797390000000 1.0
C      1  0.5087790000000  0.5383540000000  0.5192540000000 1.0
C      1  0.4819080000000  0.5085700000000  0.4626410000000 1.0
C      1  0.5157220000000  0.5067800000000  0.5385280000000 1.0
C      1  0.5222290000000  0.4946810000000  0.4590790000000 1.0
C      1  0.5407930000000  0.4944020000000  0.4775060000000 1.0
C      1  0.4872510000000  0.4831350000000  0.5300600000000 1.0
C      1  0.4815120000000  0.5386560000000  0.4917630000000 1.0
C      1  0.5364850000000  0.5081990000000  0.5174960000000 1.0
C      1  0.4605050000000  0.4948110000000  0.5213210000000 1.0
C      1  0.4620890000000  0.5086560000000  0.4815710000000 1.0
C      1  0.4910310000000  0.5186910000000  0.4580730000000 1.0
C      1  0.5151060000000  0.4858190000000  0.4680340000000 1.0
C      1  0.5072700000000  0.5174870000000  0.5430040000000 1.0
C      1  0.4803080000000  0.4783850000000  0.5183610000000 1.0
C      1  0.5190220000000  0.5361920000000  0.5095180000000 1.0
C      1  0.5118810000000  0.4700190000000  0.4878350000000 1.0
C      1  0.5548530000000  0.5253970000000  0.4827480000000 1.0
C      1  0.4823870000000  0.5505880000000  0.5259940000000 1.0
C      1  0.5279310000000  0.4805660000000  0.5542040000000 1.0
C      1  0.5558730000000  0.4713480000000  0.5184690000000 1.0
C      1  0.4438760000000  0.4716680000000  0.4817950000000 1.0
C      1  0.4452700000000  0.5266430000000  0.5167810000000 1.0
C      1  0.4797170000000  0.4444690000000  0.4708820000000 1.0
C      1  0.5209070000000  0.4470700000000  0.5295660000000 1.0
C      1  0.5179770000000  0.5524240000000  0.4727070000000 1.0
C      1  0.5263250000000  0.5167610000000  0.4445900000000 1.0
C      1  0.4737540000000  0.5190360000000  0.5577710000000 1.0
C      1  0.4732000000000  0.4809990000000  0.4454270000000 1.0
C      1  0.5533380000000  0.4803480000000  0.5270250000000 1.0
C      1  0.4814640000000  0.5293880000000  0.5575660000000 1.0
C      1  0.5275120000000  0.5523400000000  0.4814320000000 1.0
C      1  0.5554170000000  0.5168060000000  0.4736430000000 1.0
C      1  0.4452530000000  0.4809970000000  0.4733270000000 1.0
C      1  0.4461010000000  0.5180310000000  0.5259110000000 1.0
C      1  0.4812270000000  0.4712410000000  0.4444790000000 1.0
C      1  0.5173220000000  0.5254290000000  0.4454090000000 1.0
C      1  0.5193680000000  0.4712090000000  0.5559550000000 1.0
C      1  0.5294340000000  0.4465340000000  0.5202250000000 1.0
C      1  0.4773190000000  0.5476810000000  0.5139010000000 1.0
C      1  0.4708020000000  0.4448200000000  0.4799310000000 1.0
C      1  0.5660200000000  0.5233150000000  0.5030100000000 1.0
C      1  0.5015030000000  0.5649800000000  0.5239710000000 1.0
C      1  0.5221150000000  0.5020670000000  0.5654830000000 1.0
C      1  0.5671840000000  0.4761470000000  0.4975280000000 1.0
C      1  0.4332960000000  0.4768060000000  0.5030340000000 1.0
C      1  0.4335230000000  0.5238470000000  0.4968610000000 1.0
C      1  0.5011470000000  0.4386400000000  0.4790660000000 1.0
C      1  0.4997730000000  0.4401550000000  0.5212840000000 1.0
C      1  0.4969340000000  0.5647270000000  0.4778870000000 1.0
C      1  0.5243900000000  0.4965790000000  0.4325930000000 1.0
C      1  0.4767280000000  0.4974990000000  0.5671770000000 1.0
C      1  0.4769740000000  0.5019780000000  0.4343710000000 1.0
C      1  0.5644260000000  0.5012760000000  0.5230750000000 1.0
C      1  0.5022430000000  0.5248790000000  0.5679760000000 1.0
C      1  0.5214240000000  0.5638810000000  0.5026960000000 1.0
C      1  0.5674050000000  0.4966960000000  0.4754900000000 1.0
C      1  0.4342350000000  0.5018820000000  0.4770140000000 1.0
C      1  0.4343530000000  0.4978160000000  0.5248330000000 1.0
C      1  0.5021000000000  0.4761090000000  0.4332380000000 1.0
C      1  0.4973170000000  0.5236880000000  0.4339700000000 1.0
C      1  0.4977170000000  0.4773340000000  0.5671990000000 1.0
C      1  0.5213490000000  0.4392390000000  0.4992940000000 1.0
C      1  0.4751900000000  0.5657000000000  0.4979770000000 1.0
C      1  0.4793260000000  0.4395010000000  0.5011770000000 1.0
C      1  0.5470250000000  0.4947040000000  0.4634980000000 1.0
C      1  0.4657280000000  0.5447250000000  0.4925130000000 1.0
C      1  0.4967910000000  0.4586900000000  0.5528680000000 1.0
C      1  0.5427430000000  0.5046980000000  0.5329390000000 1.0
C      1  0.4554320000000  0.5051000000000  0.4663260000000 1.0
C      1  0.4556900000000  0.4956670000000  0.5354640000000 1.0
C      1  0.4579360000000  0.4483780000000  0.5036870000000 1.0
C      1  0.5425770000000  0.4479650000000  0.4966790000000 1.0
C      1  0.5334280000000  0.5437240000000  0.5062940000000 1.0
C      1  0.4938110000000  0.5338910000000  0.4549740000000 1.0
C      1  0.5062420000000  0.5334240000000  0.5459610000000 1.0
C      1  0.5036280000000  0.4574630000000  0.4476960000000 1.0
C      1  0.5527800000000  0.4576200000000  0.4961450000000 1.0
C      1  0.4673530000000  0.4955230000000  0.5455160000000 1.0
C      1  0.4935070000000  0.5439760000000  0.4667880000000 1.0
C      1  0.5450730000000  0.5335220000000  0.5061420000000 1.0
C      1  0.4476150000000  0.4580470000000  0.5041940000000 1.0
C      1  0.4542160000000  0.5341180000000  0.4926890000000 1.0
C      1  0.4663810000000  0.5050910000000  0.4555690000000 1.0
C      1  0.5363680000000  0.4947130000000  0.4529190000000 1.0
C      1  0.5317160000000  0.5047130000000  0.5437570000000 1.0
C      1  0.4972980000000  0.4492660000000  0.5424570000000 1.0
C      1  0.5064590000000  0.5439060000000  0.5342750000000 1.0
C      1  0.5032680000000  0.4476220000000  0.4578370000000 1.0
C      1  0.4517680000000  0.4976400000000  0.5101290000000 1.0
C      1  0.5129700000000  0.4643380000000  0.5010130000000 1.0
C      1  0.4997480000000  0.5081030000000  0.4518460000000 1.0
C      1  0.4610270000000  0.4987610000000  0.4921150000000 1.0
C      1  0.5384030000000  0.4980840000000  0.5072670000000 1.0
C      1  0.5489260000000  0.4970130000000  0.4893110000000 1.0
C      1  0.5085860000000  0.5333180000000  0.4991340000000 1.0
C      1  0.4858120000000  0.5395430000000  0.5052100000000 1.0
C      1  0.4882760000000  0.4639490000000  0.4974730000000 1.0
C      1  0.5019680000000  0.4837430000000  0.5309660000000 1.0
C      1  0.5023650000000  0.4887620000000  0.4617800000000 1.0
C      1  0.4968290000000  0.5111590000000  0.5502550000000 1.0
C      1  0.4520120000000  0.5087420000000  0.4997180000000 1.0
C      1  0.5104910000000  0.4973440000000  0.4508860000000 1.0
C      1  0.5020010000000  0.4647820000000  0.5117650000000 1.0
C      1  0.4623220000000  0.4887320000000  0.5016470000000 1.0
C      1  0.5479050000000  0.5078630000000  0.4999610000000 1.0
C      1  0.5379950000000  0.4883170000000  0.4972680000000 1.0
C      1  0.5057070000000  0.4959630000000  0.5367890000000 1.0
C      1  0.4934560000000  0.4996970000000  0.5433760000000 1.0
C      1  0.4922420000000  0.4984090000000  0.4611640000000 1.0
C      1  0.5038950000000  0.5310440000000  0.4866010000000 1.0
C      1  0.4989390000000  0.4637020000000  0.4868720000000 1.0
C      1  0.4987670000000  0.5366910000000  0.5089830000000 1.0
C      1  0.5074940000000  0.4451930000000  0.5327700000000 1.0
C      1  0.5322720000000  0.5048430000000  0.4418140000000 1.0
C      1  0.4435280000000  0.5317670000000  0.5042350000000 1.0
C      1  0.5045440000000  0.5541680000000  0.4709110000000 1.0
C      1  0.4944560000000  0.5537560000000  0.5306700000000 1.0
C      1  0.4931610000000  0.4430540000000  0.4674790000000 1.0
C      1  0.5292140000000  0.4941220000000  0.5549060000000 1.0
C      1  0.4698690000000  0.4942060000000  0.4446680000000 1.0
C      1  0.4705270000000  0.5059020000000  0.5570650000000 1.0
C      1  0.4411060000000  0.4673410000000  0.4946520000000 1.0
C      1  0.5590490000000  0.4669260000000  0.5057970000000 1.0
C      1  0.5560040000000  0.5309480000000  0.4951590000000 1.0
C      1  0.5049710000000  0.5311630000000  0.4442860000000 1.0
C      1  0.5329270000000  0.4440450000000  0.5069900000000 1.0
C      1  0.4445370000000  0.5059580000000  0.5318310000000 1.0
C      1  0.5061980000000  0.4682480000000  0.5589280000000 1.0
C      1  0.4947970000000  0.5325240000000  0.5577790000000 1.0
C      1  0.4939440000000  0.4667580000000  0.4414100000000 1.0
C      1  0.5290100000000  0.5538310000000  0.4950580000000 1.0
C      1  0.4676130000000  0.4439240000000  0.4934630000000 1.0
C      1  0.4688070000000  0.5544300000000  0.5043910000000 1.0
C      1  0.4445290000000  0.4941700000000  0.4698120000000 1.0
C      1  0.5580620000000  0.5048720000000  0.4677120000000 1.0
C      1  0.5537620000000  0.4936640000000  0.5300670000000 1.0
C      1  0.4841850000000  0.4738370000000  0.5653650000000 1.0
C      1  0.5649330000000  0.4828440000000  0.4733750000000 1.0
C      1  0.4727250000000  0.5652250000000  0.4837490000000 1.0
C      1  0.4835500000000  0.5262890000000  0.4349080000000 1.0
C      1  0.5161530000000  0.5265990000000  0.5661110000000 1.0
C      1  0.5158970000000  0.4733320000000  0.4354870000000 1.0
C      1  0.5636300000000  0.5151430000000  0.5262770000000 1.0
C      1  0.4348810000000  0.5157060000000  0.4735220000000 1.0
C      1  0.4365990000000  0.4840150000000  0.5270230000000 1.0
C      1  0.4761150000000  0.4377990000000  0.5149500000000 1.0
C      1  0.5247060000000  0.4368880000000  0.4855870000000 1.0
C      1  0.5252160000000  0.5637100000000  0.5163630000000 1.0
C      1  0.4831970000000  0.5642340000000  0.4742730000000 1.0
C      1  0.5648520000000  0.4733830000000  0.4837710000000 1.0
C      1  0.4743150000000  0.4837170000000  0.5648520000000 1.0
C      1  0.4860950000000  0.4380260000000  0.5247290000000 1.0
C      1  0.5154350000000  0.5642820000000  0.5265610000000 1.0
C      1  0.5148490000000  0.4367380000000  0.4756660000000 1.0
C      1  0.5648010000000  0.5258190000000  0.5168080000000 1.0
C      1  0.4360720000000  0.4742980000000  0.5167540000000 1.0
C      1  0.4340030000000  0.5263240000000  0.4830050000000 1.0
C      1  0.4738310000000  0.5158430000000  0.4353100000000 1.0
C      1  0.5263900000000  0.4827210000000  0.4351610000000 1.0
C      1  0.5254690000000  0.5158450000000  0.5645460000000 1.0
C      1  0.5352230000000  0.5539710000000  0.5176980000000 1.0
C      1  0.5175790000000  0.5363060000000  0.5558250000000 1.0
C      1  0.5529240000000  0.5164420000000  0.5352560000000 1.0
C      1  0.5370360000000  0.4433120000000  0.4838890000000 1.0
C      1  0.4636750000000  0.4440730000000  0.5165680000000 1.0
C      1  0.4629310000000  0.5551190000000  0.4817000000000 1.0
C      1  0.5167860000000  0.4621470000000  0.4441420000000 1.0
C      1  0.4836130000000  0.4627550000000  0.5566330000000 1.0
C      1  0.4821000000000  0.5360460000000  0.4450380000000 1.0
C      1  0.5549430000000  0.4815770000000  0.4638850000000 1.0
C      1  0.4468950000000  0.4828360000000  0.5361250000000 1.0
C      1  0.4453720000000  0.5169960000000  0.4642020000000 1.0
C      1  0.5341150000000  0.5167170000000  0.5535150000000 1.0
C      1  0.5173850000000  0.5544630000000  0.5364230000000 1.0
C      1  0.5548030000000  0.5357710000000  0.5179400000000 1.0
C      1  0.5359050000000  0.4815470000000  0.4451400000000 1.0
C      1  0.4643710000000  0.5169450000000  0.4456550000000 1.0
C      1  0.4654850000000  0.4828560000000  0.5543710000000 1.0
C      1  0.5162430000000  0.4432000000000  0.4632860000000 1.0
C      1  0.4820190000000  0.5539890000000  0.4646480000000 1.0
C      1  0.4844950000000  0.4445680000000  0.5369850000000 1.0
C      1  0.5562350000000  0.4621830000000  0.4829690000000 1.0
C      1  0.4437980000000  0.5363890000000  0.4812640000000 1.0
C      1  0.4444470000000  0.4628880000000  0.5174300000000 1.0
C      1  0.5485490000000  0.4695170000000  0.4613630000000 1.0
C      1  0.4588680000000  0.5503260000000  0.4691810000000 1.0
C      1  0.4721340000000  0.4604150000000  0.5489840000000 1.0
C      1  0.5485970000000  0.5289340000000  0.5394270000000 1.0
C      1  0.4498410000000  0.5294200000000  0.4597430000000 1.0
C      1  0.4526660000000  0.4705780000000  0.5387090000000 1.0
C      1  0.4618890000000  0.4504500000000  0.5288250000000 1.0
C      1  0.5385930000000  0.4498580000000  0.4716890000000 1.0
C      1  0.5397620000000  0.5497250000000  0.5302190000000 1.0
C      1  0.4696940000000  0.5398260000000  0.4498920000000 1.0
C      1  0.5298700000000  0.5400810000000  0.5504490000000 1.0
C      1  0.5285180000000  0.4595370000000  0.4514350000000 1.0
C      1  0.5486870000000  0.4596080000000  0.4714040000000 1.0
C      1  0.4625220000000  0.4706170000000  0.5485690000000 1.0
C      1  0.4695950000000  0.5495930000000  0.4599850000000 1.0
C      1  0.5496390000000  0.5397230000000  0.5301790000000 1.0
C      1  0.4519400000000  0.4603250000000  0.5290080000000 1.0
C      1  0.4487350000000  0.5403980000000  0.4689100000000 1.0
C      1  0.4599760000000  0.5293430000000  0.4501850000000 1.0
C      1  0.5385340000000  0.4694930000000  0.4514940000000 1.0
C      1  0.5386980000000  0.5290360000000  0.5490850000000 1.0
C      1  0.4721860000000  0.4507150000000  0.5388530000000 1.0
C      1  0.5299770000000  0.5501330000000  0.5405770000000 1.0
C      1  0.5283760000000  0.4497930000000  0.4615370000000 1.0
C      1  0.5085590000000  0.5688780000000  0.5010070000000 1.0
C      1  0.4983880000000  0.5111890000000  0.5672230000000 1.0
C      1  0.5691560000000  0.4991510000000  0.5102130000000 1.0
C      1  0.5109470000000  0.4487110000000  0.5000230000000 1.0
C      1  0.4900340000000  0.4485660000000  0.4997040000000 1.0
C      1  0.4879510000000  0.5705770000000  0.5011190000000 1.0
C      1  0.4997410000000  0.4894200000000  0.4297730000000 1.0
C      1  0.4996480000000  0.4904600000000  0.5721960000000 1.0
C      1  0.4998140000000  0.5098420000000  0.4351200000000 1.0
C      1  0.5658750000000  0.4989420000000  0.4893220000000 1.0
C      1  0.4347370000000  0.4997560000000  0.5108880000000 1.0
C      1  0.4304800000000  0.4997360000000  0.4901640000000 1.0
C      1  0.5093750000000  0.5007280000000  0.5704500000000 1.0
C      1  0.4982810000000  0.5703480000000  0.5114470000000 1.0
C      1  0.5643560000000  0.5095640000000  0.5003050000000 1.0
C      1  0.5105770000000  0.4988970000000  0.4343760000000 1.0
C      1  0.4899570000000  0.4996180000000  0.4301450000000 1.0
C      1  0.4890750000000  0.5005840000000  0.5722730000000 1.0
C      1  0.5003810000000  0.4482690000000  0.4893610000000 1.0
C      1  0.4985130000000  0.5694200000000  0.4908810000000 1.0
C      1  0.5006150000000  0.4490740000000  0.5104050000000 1.0
C      1  0.5704170000000  0.4894570000000  0.5000050000000 1.0
C      1  0.4358650000000  0.5101950000000  0.4997070000000 1.0
C      1  0.4298480000000  0.4900890000000  0.5004910000000 1.0
END
