TITL C-102689-8077-145 -0.00322785517018777 1000000 -1716.67415356182 0 0 240 (Th) n - 1
REM
REM in /home/chem/mssmkc/work/GAP20/Larger-Clusters/Only-C240-new-series
REM
REM
REM
REM
REM
REM ./C.cell (0485df7495ed2a90f93db84a705cd676)
REM
REM compiler GCC version 8.3.0
REM options -cpp -mtune=generic -march=x86-64 -g -O0
REM seed 2048858011 101394874 -304773741 -833344087 1457156154 -1694126537 882398774 1144127480 -867081732 1634885480 1354220490 1414462788 -2078827472 -1290272994 -1137929815 -83753122 39657917 335586948 820054269 1245537826 1602689990 -1679264372 -1081795015 -1106152882 1195559486 -1587807477 24103263 276410224 -226641185 1470124897 1639938929 -587252822 1150081644
REM
CELL 1.54180  100.00000  100.00000  100.00000   90.00000   90.00000   90.00000
LATT -1
SFAC C  
C      1  0.4342140000000  0.5071790000000  0.5270020000000 1.0
C      1  0.5270990000000  0.4342450000000  0.5071010000000 1.0
C      1  0.5074100000000  0.5273420000000  0.4343800000000 1.0
C      1  0.5656920000000  0.4926140000000  0.5271740000000 1.0
C      1  0.5657810000000  0.5074330000000  0.4730540000000 1.0
C      1  0.4343130000000  0.4927750000000  0.4727700000000 1.0
C      1  0.4728750000000  0.5656990000000  0.5075100000000 1.0
C      1  0.4729480000000  0.4342820000000  0.4923960000000 1.0
C      1  0.5270770000000  0.5657740000000  0.4929930000000 1.0
C      1  0.4928180000000  0.4731610000000  0.4341470000000 1.0
C      1  0.4925700000000  0.5268340000000  0.5658270000000 1.0
C      1  0.5072010000000  0.4726630000000  0.5656450000000 1.0
C      1  0.4343080000000  0.5073860000000  0.4728260000000 1.0
C      1  0.5271250000000  0.4343010000000  0.4924900000000 1.0
C      1  0.5071820000000  0.5268390000000  0.5658530000000 1.0
C      1  0.5657860000000  0.4928210000000  0.4729980000000 1.0
C      1  0.5656870000000  0.5072250000000  0.5272300000000 1.0
C      1  0.4342190000000  0.4925670000000  0.5269460000000 1.0
C      1  0.4729010000000  0.5657550000000  0.4928990000000 1.0
C      1  0.4729230000000  0.4342260000000  0.5070070000000 1.0
C      1  0.5270520000000  0.5657180000000  0.5076040000000 1.0
C      1  0.4925900000000  0.4726580000000  0.5656200000000 1.0
C      1  0.4927990000000  0.5273370000000  0.4343550000000 1.0
C      1  0.5074300000000  0.4731660000000  0.4341730000000 1.0
C      1  0.5178860000000  0.5566670000000  0.4709150000000 1.0
C      1  0.4705630000000  0.5176290000000  0.5565660000000 1.0
C      1  0.5565290000000  0.4706190000000  0.5178410000000 1.0
C      1  0.4822160000000  0.4435570000000  0.4704200000000 1.0
C      1  0.4820730000000  0.5564300000000  0.5295180000000 1.0
C      1  0.5178250000000  0.4433450000000  0.5291470000000 1.0
C      1  0.5292410000000  0.4819380000000  0.5565310000000 1.0
C      1  0.5294250000000  0.5180820000000  0.4435700000000 1.0
C      1  0.4707720000000  0.4823510000000  0.4433320000000 1.0
C      1  0.4434090000000  0.5292440000000  0.5178690000000 1.0
C      1  0.4434920000000  0.4707160000000  0.4819340000000 1.0
C      1  0.5565700000000  0.5294210000000  0.4823550000000 1.0
C      1  0.5177840000000  0.5564430000000  0.5295800000000 1.0
C      1  0.4707590000000  0.5180620000000  0.4434690000000 1.0
C      1  0.5565910000000  0.4707560000000  0.4821310000000 1.0
C      1  0.4821140000000  0.4433330000000  0.5290850000000 1.0
C      1  0.4821750000000  0.5566550000000  0.4708530000000 1.0
C      1  0.5179270000000  0.4435700000000  0.4704820000000 1.0
C      1  0.5294370000000  0.4823710000000  0.4434340000000 1.0
C      1  0.5292280000000  0.5176490000000  0.5566680000000 1.0
C      1  0.4705750000000  0.4819180000000  0.5564300000000 1.0
C      1  0.4434710000000  0.5293810000000  0.4821590000000 1.0
C      1  0.4434300000000  0.4705790000000  0.5176450000000 1.0
C      1  0.5565080000000  0.5292840000000  0.5180660000000 1.0
C      1  0.4234900000000  0.4799650000000  0.5059600000000 1.0
C      1  0.5062320000000  0.4235730000000  0.4797330000000 1.0
C      1  0.4801460000000  0.5064560000000  0.4234830000000 1.0
C      1  0.5764880000000  0.5199880000000  0.5063790000000 1.0
C      1  0.5765240000000  0.4800660000000  0.4938870000000 1.0
C      1  0.4234980000000  0.5199810000000  0.4937740000000 1.0
C      1  0.4938370000000  0.5765800000000  0.4802980000000 1.0
C      1  0.4938230000000  0.4234160000000  0.5196810000000 1.0
C      1  0.5061080000000  0.5764310000000  0.5202880000000 1.0
C      1  0.5201200000000  0.4941300000000  0.4235060000000 1.0
C      1  0.5198500000000  0.5058840000000  0.5765640000000 1.0
C      1  0.4798850000000  0.4935300000000  0.5764470000000 1.0
C      1  0.4235120000000  0.4800120000000  0.4936210000000 1.0
C      1  0.5061630000000  0.4234200000000  0.5197020000000 1.0
C      1  0.4798800000000  0.5058700000000  0.5764940000000 1.0
C      1  0.5765100000000  0.5200350000000  0.4940400000000 1.0
C      1  0.5765020000000  0.4800190000000  0.5062260000000 1.0
C      1  0.4234760000000  0.5199340000000  0.5061130000000 1.0
C      1  0.4937680000000  0.5764270000000  0.5202670000000 1.0
C      1  0.4938920000000  0.4235690000000  0.4797120000000 1.0
C      1  0.5061770000000  0.5765840000000  0.4803190000000 1.0
C      1  0.5198540000000  0.4935440000000  0.5765170000000 1.0
C      1  0.5201150000000  0.5064700000000  0.4235530000000 1.0
C      1  0.4801500000000  0.4941160000000  0.4234360000000 1.0
C      1  0.4841090000000  0.5637900000000  0.5168720000000 1.0
C      1  0.5165500000000  0.4839220000000  0.5638280000000 1.0
C      1  0.5638810000000  0.5167380000000  0.4843350000000 1.0
C      1  0.5158330000000  0.4360820000000  0.5164380000000 1.0
C      1  0.5158460000000  0.5639290000000  0.4836170000000 1.0
C      1  0.4842120000000  0.4361990000000  0.4830730000000 1.0
C      1  0.4832280000000  0.5155890000000  0.5638910000000 1.0
C      1  0.4834610000000  0.4843990000000  0.4360510000000 1.0
C      1  0.5167610000000  0.5160900000000  0.4362300000000 1.0
C      1  0.4361740000000  0.4833830000000  0.4839860000000 1.0
C      1  0.4361070000000  0.5165720000000  0.5157920000000 1.0
C      1  0.5638380000000  0.4833070000000  0.5158870000000 1.0
C      1  0.4841670000000  0.5639180000000  0.4835620000000 1.0
C      1  0.5167720000000  0.4844110000000  0.4361090000000 1.0
C      1  0.5638260000000  0.5166170000000  0.5160140000000 1.0
C      1  0.5158910000000  0.4362100000000  0.4831280000000 1.0
C      1  0.5157880000000  0.5638010000000  0.5169270000000 1.0
C      1  0.4841540000000  0.4360710000000  0.5163830000000 1.0
C      1  0.4834500000000  0.5160780000000  0.4361720000000 1.0
C      1  0.4832390000000  0.4839100000000  0.5637700000000 1.0
C      1  0.5165390000000  0.5156010000000  0.5639490000000 1.0
C      1  0.4361190000000  0.4832620000000  0.5156650000000 1.0
C      1  0.4361620000000  0.5166930000000  0.4841130000000 1.0
C      1  0.5638930000000  0.4834280000000  0.4842080000000 1.0
C      1  0.4395230000000  0.5072000000000  0.5402890000000 1.0
C      1  0.5403750000000  0.4395820000000  0.5072140000000 1.0
C      1  0.5074660000000  0.5406000000000  0.4397630000000 1.0
C      1  0.5603370000000  0.4924910000000  0.5404420000000 1.0
C      1  0.5604720000000  0.5075510000000  0.4597670000000 1.0
C      1  0.4396680000000  0.4927580000000  0.4595010000000 1.0
C      1  0.4595990000000  0.5603620000000  0.5075360000000 1.0
C      1  0.4596680000000  0.4396100000000  0.4923230000000 1.0
C      1  0.5403570000000  0.5604470000000  0.4929260000000 1.0
C      1  0.4927440000000  0.4598630000000  0.4394290000000 1.0
C      1  0.4925050000000  0.5401320000000  0.5605460000000 1.0
C      1  0.5072850000000  0.4594060000000  0.5602620000000 1.0
C      1  0.4396630000000  0.5075090000000  0.4595580000000 1.0
C      1  0.5404010000000  0.4396380000000  0.4924640000000 1.0
C      1  0.5072560000000  0.5401370000000  0.5605710000000 1.0
C      1  0.5604770000000  0.4928000000000  0.4597110000000 1.0
C      1  0.5603320000000  0.5072420000000  0.5404990000000 1.0
C      1  0.4395280000000  0.4924490000000  0.5402330000000 1.0
C      1  0.4596250000000  0.5604180000000  0.4927860000000 1.0
C      1  0.4596430000000  0.4395530000000  0.5070740000000 1.0
C      1  0.5403320000000  0.5603900000000  0.5076770000000 1.0
C      1  0.4925340000000  0.4594000000000  0.5602370000000 1.0
C      1  0.4927150000000  0.5405940000000  0.4397380000000 1.0
C      1  0.5074950000000  0.4598680000000  0.4394540000000 1.0
C      1  0.5538560000000  0.5389360000000  0.5074620000000 1.0
C      1  0.5071320000000  0.5537360000000  0.5391630000000 1.0
C      1  0.5388480000000  0.5070270000000  0.5539770000000 1.0
C      1  0.4461190000000  0.4610090000000  0.5069770000000 1.0
C      1  0.4461160000000  0.5389530000000  0.4928360000000 1.0
C      1  0.5539090000000  0.4611020000000  0.4927250000000 1.0
C      1  0.4927320000000  0.4459660000000  0.5387250000000 1.0
C      1  0.4928290000000  0.5540290000000  0.4612490000000 1.0
C      1  0.5073060000000  0.4462690000000  0.4608620000000 1.0
C      1  0.4609650000000  0.4925610000000  0.5537870000000 1.0
C      1  0.4611460000000  0.5074120000000  0.4460780000000 1.0
C      1  0.5390410000000  0.4930010000000  0.4461580000000 1.0
C      1  0.5538810000000  0.5389910000000  0.4930230000000 1.0
C      1  0.5072680000000  0.5540340000000  0.4612750000000 1.0
C      1  0.5390350000000  0.5074390000000  0.4462130000000 1.0
C      1  0.4461440000000  0.4610640000000  0.4925380000000 1.0
C      1  0.4460910000000  0.5388980000000  0.5072750000000 1.0
C      1  0.5538840000000  0.4610470000000  0.5071640000000 1.0
C      1  0.4928680000000  0.4462640000000  0.4608370000000 1.0
C      1  0.4926940000000  0.5537310000000  0.5391380000000 1.0
C      1  0.5071710000000  0.4459710000000  0.5387510000000 1.0
C      1  0.4611520000000  0.4929730000000  0.4460230000000 1.0
C      1  0.4609590000000  0.5069990000000  0.5538420000000 1.0
C      1  0.5388540000000  0.4925880000000  0.5539220000000 1.0
C      1  0.4670350000000  0.4707860000000  0.4513160000000 1.0
C      1  0.4515490000000  0.4670360000000  0.4704010000000 1.0
C      1  0.4706860000000  0.4516020000000  0.4667040000000 1.0
C      1  0.5331340000000  0.5295860000000  0.4516560000000 1.0
C      1  0.5329860000000  0.4704380000000  0.5484590000000 1.0
C      1  0.4668450000000  0.5291910000000  0.5485690000000 1.0
C      1  0.5485530000000  0.5331890000000  0.4708220000000 1.0
C      1  0.5484750000000  0.4668450000000  0.5293460000000 1.0
C      1  0.4514230000000  0.5329300000000  0.5294310000000 1.0
C      1  0.5294290000000  0.5486510000000  0.4671770000000 1.0
C      1  0.5293490000000  0.4513700000000  0.5329250000000 1.0
C      1  0.4705370000000  0.5483770000000  0.5331940000000 1.0
C      1  0.4668660000000  0.4704140000000  0.5483440000000 1.0
C      1  0.4514470000000  0.4668110000000  0.5291780000000 1.0
C      1  0.4705710000000  0.4513490000000  0.5328230000000 1.0
C      1  0.5329650000000  0.5292140000000  0.5486840000000 1.0
C      1  0.5331550000000  0.4708090000000  0.4514310000000 1.0
C      1  0.4670140000000  0.5295620000000  0.4515410000000 1.0
C      1  0.5484510000000  0.5329640000000  0.5295990000000 1.0
C      1  0.5485770000000  0.4670700000000  0.4705690000000 1.0
C      1  0.4515250000000  0.5331550000000  0.4706540000000 1.0
C      1  0.5293140000000  0.5483980000000  0.5332960000000 1.0
C      1  0.5294630000000  0.4516230000000  0.4668060000000 1.0
C      1  0.4706510000000  0.5486300000000  0.4670750000000 1.0
C      1  0.4928510000000  0.5070170000000  0.5564460000000 1.0
C      1  0.5564210000000  0.4929440000000  0.5073060000000 1.0
C      1  0.5072270000000  0.5564600000000  0.4931800000000 1.0
C      1  0.5069530000000  0.4925510000000  0.5564150000000 1.0
C      1  0.5071440000000  0.5074540000000  0.4436090000000 1.0
C      1  0.4930520000000  0.4929780000000  0.4435290000000 1.0
C      1  0.4435540000000  0.5070010000000  0.5071640000000 1.0
C      1  0.4435840000000  0.4929600000000  0.4926400000000 1.0
C      1  0.5564410000000  0.5070960000000  0.4928900000000 1.0
C      1  0.4927970000000  0.4435940000000  0.4927230000000 1.0
C      1  0.4927320000000  0.5564010000000  0.5072510000000 1.0
C      1  0.5072430000000  0.4435450000000  0.5068450000000 1.0
C      1  0.4930470000000  0.5074490000000  0.4435850000000 1.0
C      1  0.5564460000000  0.4929990000000  0.4928360000000 1.0
C      1  0.5072030000000  0.5564060000000  0.5072770000000 1.0
C      1  0.5071490000000  0.4929830000000  0.4435540000000 1.0
C      1  0.5069480000000  0.5070220000000  0.5564710000000 1.0
C      1  0.4928560000000  0.4925460000000  0.5563910000000 1.0
C      1  0.4435790000000  0.5070560000000  0.4926940000000 1.0
C      1  0.4435590000000  0.4929040000000  0.5071100000000 1.0
C      1  0.5564160000000  0.5070400000000  0.5073600000000 1.0
C      1  0.4927730000000  0.4435400000000  0.5068200000000 1.0
C      1  0.4927570000000  0.5564550000000  0.4931550000000 1.0
C      1  0.5072680000000  0.4435990000000  0.4927490000000 1.0
C      1  0.5262890000000  0.5413110000000  0.4552350000000 1.0
C      1  0.4549510000000  0.5260520000000  0.5411520000000 1.0
C      1  0.5411000000000  0.4549460000000  0.5261250000000 1.0
C      1  0.4738670000000  0.4590340000000  0.4548290000000 1.0
C      1  0.4736820000000  0.5409480000000  0.5450800000000 1.0
C      1  0.5261620000000  0.4587080000000  0.5448560000000 1.0
C      1  0.5449060000000  0.4736330000000  0.5411070000000 1.0
C      1  0.5450300000000  0.5263990000000  0.4590490000000 1.0
C      1  0.4551130000000  0.4739160000000  0.4586920000000 1.0
C      1  0.4588090000000  0.5448530000000  0.5263260000000 1.0
C      1  0.4589320000000  0.4551180000000  0.4735310000000 1.0
C      1  0.5411590000000  0.5450830000000  0.4740180000000 1.0
C      1  0.5261330000000  0.5409660000000  0.5451710000000 1.0
C      1  0.4550940000000  0.5263670000000  0.4588930000000 1.0
C      1  0.5411910000000  0.4551470000000  0.4736740000000 1.0
C      1  0.4737110000000  0.4586890000000  0.5447650000000 1.0
C      1  0.4738380000000  0.5412920000000  0.4551440000000 1.0
C      1  0.5263180000000  0.4590520000000  0.4549200000000 1.0
C      1  0.5450490000000  0.4739480000000  0.4588480000000 1.0
C      1  0.5448870000000  0.5260840000000  0.5413080000000 1.0
C      1  0.4549700000000  0.4736010000000  0.5409510000000 1.0
C      1  0.4589000000000  0.5450540000000  0.4738750000000 1.0
C      1  0.4588410000000  0.4549170000000  0.5259820000000 1.0
C      1  0.5410680000000  0.5448820000000  0.5264690000000 1.0
C      1  0.5137150000000  0.4544920000000  0.4503980000000 1.0
C      1  0.4506230000000  0.5137700000000  0.4542640000000 1.0
C      1  0.4542920000000  0.4504810000000  0.5133440000000 1.0
C      1  0.4864570000000  0.5458870000000  0.4507010000000 1.0
C      1  0.4863180000000  0.4541040000000  0.5492520000000 1.0
C      1  0.5135100000000  0.5455180000000  0.5496490000000 1.0
C      1  0.5495350000000  0.4865800000000  0.4543320000000 1.0
C      1  0.5493670000000  0.5134550000000  0.5458400000000 1.0
C      1  0.4504750000000  0.4861950000000  0.5455640000000 1.0
C      1  0.5456610000000  0.5494150000000  0.5138810000000 1.0
C      1  0.5457440000000  0.4506170000000  0.4862780000000 1.0
C      1  0.4543030000000  0.5494870000000  0.4864970000000 1.0
C      1  0.5135430000000  0.4541130000000  0.5492990000000 1.0
C      1  0.4504650000000  0.5134200000000  0.5456680000000 1.0
C      1  0.4543390000000  0.4505850000000  0.4861190000000 1.0
C      1  0.4862850000000  0.5455080000000  0.5496020000000 1.0
C      1  0.4864900000000  0.4544820000000  0.4503510000000 1.0
C      1  0.5136820000000  0.5458960000000  0.4507480000000 1.0
C      1  0.5493770000000  0.4862300000000  0.5457360000000 1.0
C      1  0.5495250000000  0.5138050000000  0.4544360000000 1.0
C      1  0.4506330000000  0.4865450000000  0.4541600000000 1.0
C      1  0.5457080000000  0.5495190000000  0.4866560000000 1.0
C      1  0.5456970000000  0.4505130000000  0.5135030000000 1.0
C      1  0.4542560000000  0.5493830000000  0.5137220000000 1.0
END
