TITL C-102689-8077-84 1.30800248867652 1000000 -1678.061261842 0 0 240 (C3) n - 1
REM
REM in /home/chem/mssmkc/work/GAP20/Larger-Clusters/Only-C240-new-series
REM
REM
REM
REM
REM
REM ./C.cell (0485df7495ed2a90f93db84a705cd676)
REM
REM compiler GCC version 8.3.0
REM options -cpp -mtune=generic -march=x86-64 -g -O0
REM seed -1533545847 2049335765 1800698458 -998385120 -1755415902 -784014386 752413813 -1292540625 -6630758 1168111151 1521092273 -364341581 36554430 -438782320 -1711652335 1611254361 -1665728626 1120193498 -223589853 1059448555 -878961923 2104186546 -1486325460 573838825 -848406825 -679508976 844849202 -1861218487 -385256571 -1063039157 -2069269396 568872929 -550287406
REM
CELL 1.54180  100.00000  100.00000  100.00000   90.00000   90.00000   90.00000
LATT -1
SFAC C  
C      1  0.5241660000000  0.5445930000000  0.5330730000000 1.0
C      1  0.5445510000000  0.5336510000000  0.5234340000000 1.0
C      1  0.5338070000000  0.5242090000000  0.5440160000000 1.0
C      1  0.5235790000000  0.4552820000000  0.4667790000000 1.0
C      1  0.4762630000000  0.5439720000000  0.4661480000000 1.0
C      1  0.4759180000000  0.4559410000000  0.5341980000000 1.0
C      1  0.5440180000000  0.4661130000000  0.4763990000000 1.0
C      1  0.4555700000000  0.5336170000000  0.4757830000000 1.0
C      1  0.4556480000000  0.4668150000000  0.5243080000000 1.0
C      1  0.5334640000000  0.4754180000000  0.4556550000000 1.0
C      1  0.4663670000000  0.5235340000000  0.4555680000000 1.0
C      1  0.4665570000000  0.4767620000000  0.5445480000000 1.0
C      1  0.5241890000000  0.5339890000000  0.5439670000000 1.0
C      1  0.5445640000000  0.5240930000000  0.5332720000000 1.0
C      1  0.5338800000000  0.5444810000000  0.5233900000000 1.0
C      1  0.5236380000000  0.4658650000000  0.4558630000000 1.0
C      1  0.4760370000000  0.4668620000000  0.5447990000000 1.0
C      1  0.4762240000000  0.5330820000000  0.4555600000000 1.0
C      1  0.5442060000000  0.4755310000000  0.4664390000000 1.0
C      1  0.4558300000000  0.4767300000000  0.5337960000000 1.0
C      1  0.4555880000000  0.5237320000000  0.4662890000000 1.0
C      1  0.5331940000000  0.4554590000000  0.4765710000000 1.0
C      1  0.4662980000000  0.4559650000000  0.5244360000000 1.0
C      1  0.4664260000000  0.5442850000000  0.4756920000000 1.0
C      1  0.4593630000000  0.5134820000000  0.5510190000000 1.0
C      1  0.5128930000000  0.5505730000000  0.4586210000000 1.0
C      1  0.5509130000000  0.4590980000000  0.5130760000000 1.0
C      1  0.4599450000000  0.4868410000000  0.4498170000000 1.0
C      1  0.5392960000000  0.5120900000000  0.4500480000000 1.0
C      1  0.5407680000000  0.4875240000000  0.5499710000000 1.0
C      1  0.5126630000000  0.4506320000000  0.5398500000000 1.0
C      1  0.4874920000000  0.5504150000000  0.5402080000000 1.0
C      1  0.4868790000000  0.4492270000000  0.4606830000000 1.0
C      1  0.5500810000000  0.5403490000000  0.4866330000000 1.0
C      1  0.4493820000000  0.4602100000000  0.4877320000000 1.0
C      1  0.4504740000000  0.5397090000000  0.5124880000000 1.0
C      1  0.4606770000000  0.5497890000000  0.5123710000000 1.0
C      1  0.5127440000000  0.4608960000000  0.5498670000000 1.0
C      1  0.5494450000000  0.5121660000000  0.4601810000000 1.0
C      1  0.4591910000000  0.4498490000000  0.4878050000000 1.0
C      1  0.5407800000000  0.4490990000000  0.5132340000000 1.0
C      1  0.5398360000000  0.5502880000000  0.4866080000000 1.0
C      1  0.5128530000000  0.5403790000000  0.4486830000000 1.0
C      1  0.4875260000000  0.5402320000000  0.5502100000000 1.0
C      1  0.4868850000000  0.4589720000000  0.4502620000000 1.0
C      1  0.5506380000000  0.4874270000000  0.5396600000000 1.0
C      1  0.4496510000000  0.4869770000000  0.4596950000000 1.0
C      1  0.4492950000000  0.5134480000000  0.5409540000000 1.0
C      1  0.4849720000000  0.5929900000000  0.4883530000000 1.0
C      1  0.5929560000000  0.4887240000000  0.4844870000000 1.0
C      1  0.4894490000000  0.4856160000000  0.5932220000000 1.0
C      1  0.4787460000000  0.4055070000000  0.5073760000000 1.0
C      1  0.5152080000000  0.5933410000000  0.5100170000000 1.0
C      1  0.5209700000000  0.4057050000000  0.4945750000000 1.0
C      1  0.5933780000000  0.5107780000000  0.5144390000000 1.0
C      1  0.4058840000000  0.4942740000000  0.5216820000000 1.0
C      1  0.4053220000000  0.5065290000000  0.4793000000000 1.0
C      1  0.4935040000000  0.5204340000000  0.4056550000000 1.0
C      1  0.5060160000000  0.4781230000000  0.4055530000000 1.0
C      1  0.5113200000000  0.5157050000000  0.5931100000000 1.0
C      1  0.4792250000000  0.4944040000000  0.5944060000000 1.0
C      1  0.5941840000000  0.4785460000000  0.4933210000000 1.0
C      1  0.4936830000000  0.5940950000000  0.4780540000000 1.0
C      1  0.4847270000000  0.5102130000000  0.4069130000000 1.0
C      1  0.5215360000000  0.5069150000000  0.5943510000000 1.0
C      1  0.5148160000000  0.4883440000000  0.4067160000000 1.0
C      1  0.5945760000000  0.5209320000000  0.5055710000000 1.0
C      1  0.4066760000000  0.5153830000000  0.4894500000000 1.0
C      1  0.4069510000000  0.4854270000000  0.5115000000000 1.0
C      1  0.4890190000000  0.4068450000000  0.5160910000000 1.0
C      1  0.5106820000000  0.4067880000000  0.4858530000000 1.0
C      1  0.5064790000000  0.5946610000000  0.5202760000000 1.0
C      1  0.4759260000000  0.4126680000000  0.4973650000000 1.0
C      1  0.4125250000000  0.4965260000000  0.4765600000000 1.0
C      1  0.4960790000000  0.4754160000000  0.4128580000000 1.0
C      1  0.4816230000000  0.5868150000000  0.4987520000000 1.0
C      1  0.5237850000000  0.4130350000000  0.5044760000000 1.0
C      1  0.5185700000000  0.5868760000000  0.4998040000000 1.0
C      1  0.4131720000000  0.5042540000000  0.5243200000000 1.0
C      1  0.5869990000000  0.5005700000000  0.5179760000000 1.0
C      1  0.5866940000000  0.4990430000000  0.4810480000000 1.0
C      1  0.5010470000000  0.5190970000000  0.5867560000000 1.0
C      1  0.4997450000000  0.4821600000000  0.5869350000000 1.0
C      1  0.5035170000000  0.5232260000000  0.4128400000000 1.0
C      1  0.4813370000000  0.4999110000000  0.4132270000000 1.0
C      1  0.4131090000000  0.4819310000000  0.5011390000000 1.0
C      1  0.5003190000000  0.4129950000000  0.4824530000000 1.0
C      1  0.4764540000000  0.5043430000000  0.5871140000000 1.0
C      1  0.5182740000000  0.4986100000000  0.4130450000000 1.0
C      1  0.5242560000000  0.4968970000000  0.5871600000000 1.0
C      1  0.4131600000000  0.5188600000000  0.4996130000000 1.0
C      1  0.5872750000000  0.5236400000000  0.4956300000000 1.0
C      1  0.5870010000000  0.4758850000000  0.5033700000000 1.0
C      1  0.4965250000000  0.5874450000000  0.5231570000000 1.0
C      1  0.5036470000000  0.5868280000000  0.4753090000000 1.0
C      1  0.4992690000000  0.4132800000000  0.5193980000000 1.0
C      1  0.5078590000000  0.4242240000000  0.5195990000000 1.0
C      1  0.4241590000000  0.5192380000000  0.5081260000000 1.0
C      1  0.5186750000000  0.5072650000000  0.4239320000000 1.0
C      1  0.5104890000000  0.5752790000000  0.4793240000000 1.0
C      1  0.4916210000000  0.4238590000000  0.4820480000000 1.0
C      1  0.4897650000000  0.5757150000000  0.5194870000000 1.0
C      1  0.4239160000000  0.4814800000000  0.4923730000000 1.0
C      1  0.5755230000000  0.5198130000000  0.4889990000000 1.0
C      1  0.5754740000000  0.4799180000000  0.5102380000000 1.0
C      1  0.5203900000000  0.4900920000000  0.5755210000000 1.0
C      1  0.4803660000000  0.5110860000000  0.5754720000000 1.0
C      1  0.4810130000000  0.4912820000000  0.4241490000000 1.0
C      1  0.5103410000000  0.5192690000000  0.4244210000000 1.0
C      1  0.4247470000000  0.5109750000000  0.5201730000000 1.0
C      1  0.5198040000000  0.4246790000000  0.5111780000000 1.0
C      1  0.5083640000000  0.4817600000000  0.5760090000000 1.0
C      1  0.4893470000000  0.4792430000000  0.4245510000000 1.0
C      1  0.4923830000000  0.5194190000000  0.5758710000000 1.0
C      1  0.4242190000000  0.4897380000000  0.4802780000000 1.0
C      1  0.5760620000000  0.4919830000000  0.5184910000000 1.0
C      1  0.5758230000000  0.5077330000000  0.4807350000000 1.0
C      1  0.5189000000000  0.5758840000000  0.4912780000000 1.0
C      1  0.4813490000000  0.5759980000000  0.5075130000000 1.0
C      1  0.4796360000000  0.4242950000000  0.4904580000000 1.0
C      1  0.5365180000000  0.4529170000000  0.5267380000000 1.0
C      1  0.4530010000000  0.5269190000000  0.5364930000000 1.0
C      1  0.5263760000000  0.5360480000000  0.4523540000000 1.0
C      1  0.5358920000000  0.5468390000000  0.4729400000000 1.0
C      1  0.4633930000000  0.4529660000000  0.4741720000000 1.0
C      1  0.4644360000000  0.5468090000000  0.5261430000000 1.0
C      1  0.4528800000000  0.4734180000000  0.4640490000000 1.0
C      1  0.5464060000000  0.5259670000000  0.4637850000000 1.0
C      1  0.5472460000000  0.4736890000000  0.5359150000000 1.0
C      1  0.5265020000000  0.4645430000000  0.5466880000000 1.0
C      1  0.4737890000000  0.5363600000000  0.5469600000000 1.0
C      1  0.4733220000000  0.4632850000000  0.4535280000000 1.0
C      1  0.5356330000000  0.5259110000000  0.4529460000000 1.0
C      1  0.4535250000000  0.5361110000000  0.5262930000000 1.0
C      1  0.5264400000000  0.4535660000000  0.5360560000000 1.0
C      1  0.5365090000000  0.4739330000000  0.5467600000000 1.0
C      1  0.4638020000000  0.4731740000000  0.4533570000000 1.0
C      1  0.4637550000000  0.5269730000000  0.5473060000000 1.0
C      1  0.4527720000000  0.4639600000000  0.4739970000000 1.0
C      1  0.5474030000000  0.4635970000000  0.5265860000000 1.0
C      1  0.5466660000000  0.5360300000000  0.4731110000000 1.0
C      1  0.5264350000000  0.5469990000000  0.4629680000000 1.0
C      1  0.4738930000000  0.5470670000000  0.5360840000000 1.0
C      1  0.4732170000000  0.4527330000000  0.4645880000000 1.0
C      1  0.4772470000000  0.4370300000000  0.4973860000000 1.0
C      1  0.4368940000000  0.4967120000000  0.4777130000000 1.0
C      1  0.4964220000000  0.4768840000000  0.4372090000000 1.0
C      1  0.4778900000000  0.5631480000000  0.5010890000000 1.0
C      1  0.5220520000000  0.4372670000000  0.5039700000000 1.0
C      1  0.5223670000000  0.5631620000000  0.4979770000000 1.0
C      1  0.4373950000000  0.5038730000000  0.5224280000000 1.0
C      1  0.5633230000000  0.4986480000000  0.5219590000000 1.0
C      1  0.5629900000000  0.5011870000000  0.4774460000000 1.0
C      1  0.4989410000000  0.5227630000000  0.5630440000000 1.0
C      1  0.5017520000000  0.4782670000000  0.5632640000000 1.0
C      1  0.5033110000000  0.5216440000000  0.4370870000000 1.0
C      1  0.4776060000000  0.4979060000000  0.4369360000000 1.0
C      1  0.4367640000000  0.4780250000000  0.4988540000000 1.0
C      1  0.4981430000000  0.4366410000000  0.4784310000000 1.0
C      1  0.4779820000000  0.5039590000000  0.5628500000000 1.0
C      1  0.5221090000000  0.5007250000000  0.4367200000000 1.0
C      1  0.5227400000000  0.4970730000000  0.5628200000000 1.0
C      1  0.4368860000000  0.5225450000000  0.5014010000000 1.0
C      1  0.5629290000000  0.5222920000000  0.4961280000000 1.0
C      1  0.5627460000000  0.4775770000000  0.5032880000000 1.0
C      1  0.4968410000000  0.5630890000000  0.5219520000000 1.0
C      1  0.5034230000000  0.5625850000000  0.4771510000000 1.0
C      1  0.5012640000000  0.4370150000000  0.5229130000000 1.0
C      1  0.5482800000000  0.5379120000000  0.5098330000000 1.0
C      1  0.5381770000000  0.5106830000000  0.5478900000000 1.0
C      1  0.5106460000000  0.5484410000000  0.5374850000000 1.0
C      1  0.5477910000000  0.4619170000000  0.4899820000000 1.0
C      1  0.4518080000000  0.5382650000000  0.4891810000000 1.0
C      1  0.4517700000000  0.4621760000000  0.5109360000000 1.0
C      1  0.5380040000000  0.4887940000000  0.4516900000000 1.0
C      1  0.4617840000000  0.5100840000000  0.4518940000000 1.0
C      1  0.4623030000000  0.4903670000000  0.5481750000000 1.0
C      1  0.5101220000000  0.4514680000000  0.4623360000000 1.0
C      1  0.4898160000000  0.5476260000000  0.4617550000000 1.0
C      1  0.4893480000000  0.4521160000000  0.5386970000000 1.0
C      1  0.5483390000000  0.5106760000000  0.5378490000000 1.0
C      1  0.5383090000000  0.5481430000000  0.5098920000000 1.0
C      1  0.5107700000000  0.5385320000000  0.5477760000000 1.0
C      1  0.5480580000000  0.4888950000000  0.4617540000000 1.0
C      1  0.4521670000000  0.4903400000000  0.5380390000000 1.0
C      1  0.4517350000000  0.5101690000000  0.4620530000000 1.0
C      1  0.5375870000000  0.4518500000000  0.4901470000000 1.0
C      1  0.4618620000000  0.4520590000000  0.5109520000000 1.0
C      1  0.4619400000000  0.5482500000000  0.4890910000000 1.0
C      1  0.5100760000000  0.4614980000000  0.4521580000000 1.0
C      1  0.4894560000000  0.4623090000000  0.5486190000000 1.0
C      1  0.4897830000000  0.5373610000000  0.4517500000000 1.0
C      1  0.4444190000000  0.4660480000000  0.4995900000000 1.0
C      1  0.4656760000000  0.4986690000000  0.4446620000000 1.0
C      1  0.4987770000000  0.4442180000000  0.4663990000000 1.0
C      1  0.4448070000000  0.5343500000000  0.5007110000000 1.0
C      1  0.5552670000000  0.4656020000000  0.5013360000000 1.0
C      1  0.5553010000000  0.5341860000000  0.4982100000000 1.0
C      1  0.4659690000000  0.5018390000000  0.5554790000000 1.0
C      1  0.5345700000000  0.4991300000000  0.5550840000000 1.0
C      1  0.5339710000000  0.5002090000000  0.4445680000000 1.0
C      1  0.4990250000000  0.5555180000000  0.5338650000000 1.0
C      1  0.5007800000000  0.4450130000000  0.5346770000000 1.0
C      1  0.5012670000000  0.5550470000000  0.4652480000000 1.0
C      1  0.4445590000000  0.4986420000000  0.4658060000000 1.0
C      1  0.4654170000000  0.4447870000000  0.4994220000000 1.0
C      1  0.4984780000000  0.4650870000000  0.4450130000000 1.0
C      1  0.4448360000000  0.5017870000000  0.5343910000000 1.0
C      1  0.5550900000000  0.5004140000000  0.4656230000000 1.0
C      1  0.5556470000000  0.4993140000000  0.5339160000000 1.0
C      1  0.4660050000000  0.5553260000000  0.5005160000000 1.0
C      1  0.5342790000000  0.5554080000000  0.4985360000000 1.0
C      1  0.5340380000000  0.4446140000000  0.5016850000000 1.0
C      1  0.4994810000000  0.5346240000000  0.5552110000000 1.0
C      1  0.5012020000000  0.5336890000000  0.4443890000000 1.0
C      1  0.5009980000000  0.4663380000000  0.5555230000000 1.0
C      1  0.5101090000000  0.4984120000000  0.4436140000000 1.0
C      1  0.4988280000000  0.4437400000000  0.5108420000000 1.0
C      1  0.4436680000000  0.5104850000000  0.4990740000000 1.0
C      1  0.5106360000000  0.5000450000000  0.5563130000000 1.0
C      1  0.4900430000000  0.5008880000000  0.5563700000000 1.0
C      1  0.4896420000000  0.5002110000000  0.4437670000000 1.0
C      1  0.5004740000000  0.5562420000000  0.4893150000000 1.0
C      1  0.5004870000000  0.4436410000000  0.4903630000000 1.0
C      1  0.4997710000000  0.5564440000000  0.5099120000000 1.0
C      1  0.4437060000000  0.4900280000000  0.5009960000000 1.0
C      1  0.5563790000000  0.5102510000000  0.4992580000000 1.0
C      1  0.5563080000000  0.4896640000000  0.5002260000000 1.0
C      1  0.5099570000000  0.4437010000000  0.5009660000000 1.0
C      1  0.5003080000000  0.5096080000000  0.4436330000000 1.0
C      1  0.4437650000000  0.5007520000000  0.5103280000000 1.0
C      1  0.5103580000000  0.5563480000000  0.5004470000000 1.0
C      1  0.4898820000000  0.5562320000000  0.4987850000000 1.0
C      1  0.4893590000000  0.4435740000000  0.5002670000000 1.0
C      1  0.4994400000000  0.4902320000000  0.5563040000000 1.0
C      1  0.4994690000000  0.4890160000000  0.4436420000000 1.0
C      1  0.5012420000000  0.5106970000000  0.5562720000000 1.0
C      1  0.4435030000000  0.4997880000000  0.4897430000000 1.0
C      1  0.5564120000000  0.5009220000000  0.5099660000000 1.0
C      1  0.5561680000000  0.4989960000000  0.4895140000000 1.0
END
