TITL C240-689702 0.037812738764987 1000000 -1780.23353558205 0 0 240 (Ih) n - 1
REM
REM in /home/chem/mssmkc/work/CARBON/AIRSS/Generating-Clusters/Str-Search/GAP20/LAMMPS-RUNS
REM
REM
REM
REM
REM
REM C240.cell (fef3d0f4d45fba4a0783b7c5269a2a7a)
REM
REM
REM
REM
REM
CELL 1.54180  100.00000  100.00000  100.00000   90.00000   90.00000   90.00000
LATT -1
SFAC C  
C      1  0.5000000000000  0.4508090000000  0.5567080000000 1.0
C      1  0.4885570000000  0.4578810000000  0.5610780000000 1.0
C      1  0.4318490000000  0.5070720000000  0.4693240000000 1.0
C      1  0.4318490000000  0.4929280000000  0.4693240000000 1.0
C      1  0.5421190000000  0.4389220000000  0.5114430000000 1.0
C      1  0.5114430000000  0.5421190000000  0.4389220000000 1.0
C      1  0.4929280000000  0.5306760000000  0.5681510000000 1.0
C      1  0.4578810000000  0.4389220000000  0.4885570000000 1.0
C      1  0.4693230000000  0.5681500000000  0.5070720000000 1.0
C      1  0.4318500000000  0.5070720000000  0.5306770000000 1.0
C      1  0.4929280000000  0.4693230000000  0.5681500000000 1.0
C      1  0.5000000000000  0.4508090000000  0.4432920000000 1.0
C      1  0.4432920000000  0.5000000000000  0.4508090000000 1.0
C      1  0.4389210000000  0.4885570000000  0.4578810000000 1.0
C      1  0.5000000000000  0.5491910000000  0.4432920000000 1.0
C      1  0.5567080000000  0.5000000000000  0.4508090000000 1.0
C      1  0.5610780000000  0.5114430000000  0.4578810000000 1.0
C      1  0.5421190000000  0.4389220000000  0.4885570000000 1.0
C      1  0.4885570000000  0.5421190000000  0.4389220000000 1.0
C      1  0.5114430000000  0.4578810000000  0.5610780000000 1.0
C      1  0.5070720000000  0.5306770000000  0.4318500000000 1.0
C      1  0.5306770000000  0.5681510000000  0.4929280000000 1.0
C      1  0.5306770000000  0.5681500000000  0.5070720000000 1.0
C      1  0.5070720000000  0.5306760000000  0.5681510000000 1.0
C      1  0.5681500000000  0.4929280000000  0.4693230000000 1.0
C      1  0.5681500000000  0.5070720000000  0.4693230000000 1.0
C      1  0.5070720000000  0.4693240000000  0.4318490000000 1.0
C      1  0.4578810000000  0.5610780000000  0.4885570000000 1.0
C      1  0.5114430000000  0.4578810000000  0.4389210000000 1.0
C      1  0.4885570000000  0.5421190000000  0.5610790000000 1.0
C      1  0.5421190000000  0.5610780000000  0.5114430000000 1.0
C      1  0.5000000000000  0.5491910000000  0.5567080000000 1.0
C      1  0.4432920000000  0.5000000000000  0.5491910000000 1.0
C      1  0.4508090000000  0.4432920000000  0.5000000000000 1.0
C      1  0.4318500000000  0.4929280000000  0.5306770000000 1.0
C      1  0.5306770000000  0.4318500000000  0.4929280000000 1.0
C      1  0.4389220000000  0.4885570000000  0.5421190000000 1.0
C      1  0.5567080000000  0.5000000000000  0.5491910000000 1.0
C      1  0.5491910000000  0.5567080000000  0.5000000000000 1.0
C      1  0.5421190000000  0.5610780000000  0.4885570000000 1.0
C      1  0.5306770000000  0.4318500000000  0.5070720000000 1.0
C      1  0.4578810000000  0.4389220000000  0.5114430000000 1.0
C      1  0.5114430000000  0.5421190000000  0.5610780000000 1.0
C      1  0.5681510000000  0.4929280000000  0.5306760000000 1.0
C      1  0.5681510000000  0.5070720000000  0.5306760000000 1.0
C      1  0.4693230000000  0.5681500000000  0.4929280000000 1.0
C      1  0.5610790000000  0.5114430000000  0.5421190000000 1.0
C      1  0.4508090000000  0.5567080000000  0.5000000000000 1.0
C      1  0.4578810000000  0.5610780000000  0.5114430000000 1.0
C      1  0.5491910000000  0.4432920000000  0.5000000000000 1.0
C      1  0.4885570000000  0.4578810000000  0.4389220000000 1.0
C      1  0.5070720000000  0.4693230000000  0.5681500000000 1.0
C      1  0.4929280000000  0.5306770000000  0.4318500000000 1.0
C      1  0.5610780000000  0.4885570000000  0.4578810000000 1.0
C      1  0.4693230000000  0.4318490000000  0.5070720000000 1.0
C      1  0.4693230000000  0.4318500000000  0.4929280000000 1.0
C      1  0.4929280000000  0.4693240000000  0.4318490000000 1.0
C      1  0.4389210000000  0.5114430000000  0.4578810000000 1.0
C      1  0.4389220000000  0.5114430000000  0.5421190000000 1.0
C      1  0.5610790000000  0.4885570000000  0.5421190000000 1.0
C      1  0.5000000000000  0.4423610000000  0.4547320000000 1.0
C      1  0.4307350000000  0.4851690000000  0.4811890000000 1.0
C      1  0.4760030000000  0.5428080000000  0.5544340000000 1.0
C      1  0.4760030000000  0.4571920000000  0.5544340000000 1.0
C      1  0.5148310000000  0.5188110000000  0.5692650000000 1.0
C      1  0.5692650000000  0.5148310000000  0.5188110000000 1.0
C      1  0.4571920000000  0.4455660000000  0.5239970000000 1.0
C      1  0.4851690000000  0.5188110000000  0.4307350000000 1.0
C      1  0.5544340000000  0.5239970000000  0.5428080000000 1.0
C      1  0.4760030000000  0.5428080000000  0.4455660000000 1.0
C      1  0.4571920000000  0.5544340000000  0.5239970000000 1.0
C      1  0.5000000000000  0.4423610000000  0.5452680000000 1.0
C      1  0.5452680000000  0.5000000000000  0.4423610000000 1.0
C      1  0.5188110000000  0.4307350000000  0.4851690000000 1.0
C      1  0.5000000000000  0.5576390000000  0.5452680000000 1.0
C      1  0.4547320000000  0.5000000000000  0.4423610000000 1.0
C      1  0.4811890000000  0.5692650000000  0.4851690000000 1.0
C      1  0.5148310000000  0.5188110000000  0.4307350000000 1.0
C      1  0.4307350000000  0.5148310000000  0.5188120000000 1.0
C      1  0.5692650000000  0.4851690000000  0.4811880000000 1.0
C      1  0.5428080000000  0.4455660000000  0.4760030000000 1.0
C      1  0.4455660000000  0.5239970000000  0.4571920000000 1.0
C      1  0.4455660000000  0.5239970000000  0.5428080000000 1.0
C      1  0.5428080000000  0.4455660000000  0.5239970000000 1.0
C      1  0.5239970000000  0.4571920000000  0.5544340000000 1.0
C      1  0.5239970000000  0.5428080000000  0.5544340000000 1.0
C      1  0.5428080000000  0.5544340000000  0.4760030000000 1.0
C      1  0.4851690000000  0.4811890000000  0.4307350000000 1.0
C      1  0.5692650000000  0.4851690000000  0.5188110000000 1.0
C      1  0.4307350000000  0.5148310000000  0.4811890000000 1.0
C      1  0.5148310000000  0.4811890000000  0.5692650000000 1.0
C      1  0.5000000000000  0.5576390000000  0.4547320000000 1.0
C      1  0.5452680000000  0.5000000000000  0.5576390000000 1.0
C      1  0.4423610000000  0.5452680000000  0.5000000000000 1.0
C      1  0.4760030000000  0.4571920000000  0.4455660000000 1.0
C      1  0.4455660000000  0.4760030000000  0.4571920000000 1.0
C      1  0.5188110000000  0.4307350000000  0.5148310000000 1.0
C      1  0.4547320000000  0.5000000000000  0.5576390000000 1.0
C      1  0.5576390000000  0.4547320000000  0.5000000000000 1.0
C      1  0.5148310000000  0.4811890000000  0.4307350000000 1.0
C      1  0.4455660000000  0.4760030000000  0.5428080000000 1.0
C      1  0.4851690000000  0.5188110000000  0.5692650000000 1.0
C      1  0.5692650000000  0.5148310000000  0.4811880000000 1.0
C      1  0.5239970000000  0.4571920000000  0.4455660000000 1.0
C      1  0.5239970000000  0.5428080000000  0.4455660000000 1.0
C      1  0.5544340000000  0.5239970000000  0.4571920000000 1.0
C      1  0.4811890000000  0.5692650000000  0.5148310000000 1.0
C      1  0.4423610000000  0.4547320000000  0.5000000000000 1.0
C      1  0.4851690000000  0.4811890000000  0.5692650000000 1.0
C      1  0.5576390000000  0.5452680000000  0.5000000000000 1.0
C      1  0.4307350000000  0.4851690000000  0.5188120000000 1.0
C      1  0.5428080000000  0.5544340000000  0.5239970000000 1.0
C      1  0.4571920000000  0.4455660000000  0.4760030000000 1.0
C      1  0.4811890000000  0.4307350000000  0.4851690000000 1.0
C      1  0.5544340000000  0.4760030000000  0.5428080000000 1.0
C      1  0.5544340000000  0.4760030000000  0.4571920000000 1.0
C      1  0.4571920000000  0.5544340000000  0.4760030000000 1.0
C      1  0.5188110000000  0.5692650000000  0.4851690000000 1.0
C      1  0.5188110000000  0.5692650000000  0.5148310000000 1.0
C      1  0.4811890000000  0.4307350000000  0.5148310000000 1.0
C      1  0.4279890000000  0.4927380000000  0.4927320000000 1.0
C      1  0.5072620000000  0.4927320000000  0.4279890000000 1.0
C      1  0.4476190000000  0.4558700000000  0.4755060000000 1.0
C      1  0.5200120000000  0.5641350000000  0.5278820000000 1.0
C      1  0.5244940000000  0.5523810000000  0.5441300000000 1.0
C      1  0.4358640000000  0.5278820000000  0.4799890000000 1.0
C      1  0.4755060000000  0.4476190000000  0.4558700000000 1.0
C      1  0.5523810000000  0.4558700000000  0.4755060000000 1.0
C      1  0.5072680000000  0.4279890000000  0.4927380000000 1.0
C      1  0.5323700000000  0.5317620000000  0.4431270000000 1.0
C      1  0.4279890000000  0.4927380000000  0.5072680000000 1.0
C      1  0.5568730000000  0.4676300000000  0.4682380000000 1.0
C      1  0.4927320000000  0.4279890000000  0.4927380000000 1.0
C      1  0.4558700000000  0.4755060000000  0.5523810000000 1.0
C      1  0.5720110000000  0.5072620000000  0.4927320000000 1.0
C      1  0.5072680000000  0.5720110000000  0.4927380000000 1.0
C      1  0.5441300000000  0.5244940000000  0.5523810000000 1.0
C      1  0.5072620000000  0.4927320000000  0.5720110000000 1.0
C      1  0.4755060000000  0.5523810000000  0.4558700000000 1.0
C      1  0.4927380000000  0.5072680000000  0.4279890000000 1.0
C      1  0.5441300000000  0.5244940000000  0.4476190000000 1.0
C      1  0.4927380000000  0.5072680000000  0.5720110000000 1.0
C      1  0.5523810000000  0.5441300000000  0.5244940000000 1.0
C      1  0.4721180000000  0.4799880000000  0.4358650000000 1.0
C      1  0.5720110000000  0.4927380000000  0.4927320000000 1.0
C      1  0.5568730000000  0.4676300000000  0.5317620000000 1.0
C      1  0.4603580000000  0.4872570000000  0.4403570000000 1.0
C      1  0.4431270000000  0.5323700000000  0.4682380000000 1.0
C      1  0.5523810000000  0.5441300000000  0.4755060000000 1.0
C      1  0.4799880000000  0.4358640000000  0.5278820000000 1.0
C      1  0.4755060000000  0.4476190000000  0.5441300000000 1.0
C      1  0.5641350000000  0.4721190000000  0.4799880000000 1.0
C      1  0.5244940000000  0.5523810000000  0.4558700000000 1.0
C      1  0.5596430000000  0.5396420000000  0.4872560000000 1.0
C      1  0.4799880000000  0.5641350000000  0.5278820000000 1.0
C      1  0.5200120000000  0.5641360000000  0.4721180000000 1.0
C      1  0.5072620000000  0.5072680000000  0.5720110000000 1.0
C      1  0.4476190000000  0.5441300000000  0.5244940000000 1.0
C      1  0.5317620000000  0.5568730000000  0.5323700000000 1.0
C      1  0.4872560000000  0.5596440000000  0.4603580000000 1.0
C      1  0.4279890000000  0.5072620000000  0.5072680000000 1.0
C      1  0.4431270000000  0.4676300000000  0.4682380000000 1.0
C      1  0.4676300000000  0.5317620000000  0.5568730000000 1.0
C      1  0.5396420000000  0.4872560000000  0.5596430000000 1.0
C      1  0.5720110000000  0.4927380000000  0.5072680000000 1.0
C      1  0.5317620000000  0.4431270000000  0.5323700000000 1.0
C      1  0.5127430000000  0.4403570000000  0.4603580000000 1.0
C      1  0.4476190000000  0.4558700000000  0.5244940000000 1.0
C      1  0.5244940000000  0.4476190000000  0.4558700000000 1.0
C      1  0.4927380000000  0.4927320000000  0.5720110000000 1.0
C      1  0.5523810000000  0.4558700000000  0.5244940000000 1.0
C      1  0.4682380000000  0.4431270000000  0.5323700000000 1.0
C      1  0.4799880000000  0.5641360000000  0.4721190000000 1.0
C      1  0.4403560000000  0.4603580000000  0.4872570000000 1.0
C      1  0.5200120000000  0.4358650000000  0.4721180000000 1.0
C      1  0.5200120000000  0.4358640000000  0.5278810000000 1.0
C      1  0.5323700000000  0.4682380000000  0.5568730000000 1.0
C      1  0.4431270000000  0.4676300000000  0.5317620000000 1.0
C      1  0.5317620000000  0.4431270000000  0.4676300000000 1.0
C      1  0.5127430000000  0.5596440000000  0.4603580000000 1.0
C      1  0.5278810000000  0.4799880000000  0.4358640000000 1.0
C      1  0.4676300000000  0.5317620000000  0.4431270000000 1.0
C      1  0.5396420000000  0.4872570000000  0.4403560000000 1.0
C      1  0.4872570000000  0.4403560000000  0.5396420000000 1.0
C      1  0.5596430000000  0.4603580000000  0.4872560000000 1.0
C      1  0.5596440000000  0.5396420000000  0.5127430000000 1.0
C      1  0.4403570000000  0.5396420000000  0.5127440000000 1.0
C      1  0.4682380000000  0.5568730000000  0.4676300000000 1.0
C      1  0.4279890000000  0.5072620000000  0.4927320000000 1.0
C      1  0.5278820000000  0.5200120000000  0.5641350000000 1.0
C      1  0.4721190000000  0.4799880000000  0.5641360000000 1.0
C      1  0.4872560000000  0.4403570000000  0.4603580000000 1.0
C      1  0.4721180000000  0.5200120000000  0.4358650000000 1.0
C      1  0.5278810000000  0.5200120000000  0.4358640000000 1.0
C      1  0.5568730000000  0.5323700000000  0.5317620000000 1.0
C      1  0.5323700000000  0.4682380000000  0.4431270000000 1.0
C      1  0.4799880000000  0.4358650000000  0.4721180000000 1.0
C      1  0.5720110000000  0.5072620000000  0.5072680000000 1.0
C      1  0.4927320000000  0.5720110000000  0.5072620000000 1.0
C      1  0.4927380000000  0.4927320000000  0.4279890000000 1.0
C      1  0.4682380000000  0.4431270000000  0.4676300000000 1.0
C      1  0.5127440000000  0.4403560000000  0.5396420000000 1.0
C      1  0.4676300000000  0.4682380000000  0.5568730000000 1.0
C      1  0.4927320000000  0.4279890000000  0.5072620000000 1.0
C      1  0.4558700000000  0.4755060000000  0.4476190000000 1.0
C      1  0.5072680000000  0.4279890000000  0.5072620000000 1.0
C      1  0.4603580000000  0.5127440000000  0.4403570000000 1.0
C      1  0.5127440000000  0.5596430000000  0.5396420000000 1.0
C      1  0.5596440000000  0.4603580000000  0.5127430000000 1.0
C      1  0.5072620000000  0.5072680000000  0.4279890000000 1.0
C      1  0.4431270000000  0.5323700000000  0.5317620000000 1.0
C      1  0.5396410000000  0.5127440000000  0.4403560000000 1.0
C      1  0.4476190000000  0.5441300000000  0.4755060000000 1.0
C      1  0.4927320000000  0.5720110000000  0.4927380000000 1.0
C      1  0.4676300000000  0.4682380000000  0.4431270000000 1.0
C      1  0.5317620000000  0.5568730000000  0.4676300000000 1.0
C      1  0.4872570000000  0.5596430000000  0.5396420000000 1.0
C      1  0.5323700000000  0.5317620000000  0.5568730000000 1.0
C      1  0.5072680000000  0.5720110000000  0.5072620000000 1.0
C      1  0.4682380000000  0.5568730000000  0.5323700000000 1.0
C      1  0.4403560000000  0.5396420000000  0.4872570000000 1.0
C      1  0.4403570000000  0.4603580000000  0.5127440000000 1.0
C      1  0.5641360000000  0.5278820000000  0.5200120000000 1.0
C      1  0.4603580000000  0.5127430000000  0.5596440000000 1.0
C      1  0.4358640000000  0.4721180000000  0.4799880000000 1.0
C      1  0.4755060000000  0.5523810000000  0.5441300000000 1.0
C      1  0.5396420000000  0.5127430000000  0.5596430000000 1.0
C      1  0.4358650000000  0.5278810000000  0.5200120000000 1.0
C      1  0.5568730000000  0.5323700000000  0.4682380000000 1.0
C      1  0.5641350000000  0.5278820000000  0.4799880000000 1.0
C      1  0.5244940000000  0.4476190000000  0.5441300000000 1.0
C      1  0.4603590000000  0.4872560000000  0.5596440000000 1.0
C      1  0.5641360000000  0.4721180000000  0.5200110000000 1.0
C      1  0.4558700000000  0.5244940000000  0.4476190000000 1.0
C      1  0.5441300000000  0.4755060000000  0.4476180000000 1.0
C      1  0.4558700000000  0.5244940000000  0.5523820000000 1.0
C      1  0.5278820000000  0.4799880000000  0.5641350000000 1.0
C      1  0.4721190000000  0.5200120000000  0.5641360000000 1.0
C      1  0.5441300000000  0.4755060000000  0.5523810000000 1.0
C      1  0.4358650000000  0.4721180000000  0.5200120000000 1.0
END
