TITL C240-973563 0.00602401529728727 1000000 -1665.40613821745 0 0 240 (C1) n - 1
REM
REM in /home/chem/mssmkc/work/CARBON/AIRSS/Generating-Clusters/Str-Search/GAP20/LAMMPS-RUNS
REM
REM
REM
REM
REM
REM C240.cell (df4497b581b5c8bb1672d0dd58756682)
REM
REM
REM
REM
REM
CELL 1.54180  100.00000  100.00000  100.00000   90.00000   90.00000   90.00000
LATT -1
SFAC C  
C      1  0.4925070000000  0.4675740000000  0.5367210000000 1.0
C      1  0.4904000000000  0.4796590000000  0.5434860000000 1.0
C      1  0.4558360000000  0.5119650000000  0.4792710000000 1.0
C      1  0.4568580000000  0.4976840000000  0.4843920000000 1.0
C      1  0.5413690000000  0.4655100000000  0.5083770000000 1.0
C      1  0.5177390000000  0.5415920000000  0.4665350000000 1.0
C      1  0.4899760000000  0.5047740000000  0.5424370000000 1.0
C      1  0.4804650000000  0.4613550000000  0.4895320000000 1.0
C      1  0.4826070000000  0.5436280000000  0.5105270000000 1.0
C      1  0.4616660000000  0.5122100000000  0.5168750000000 1.0
C      1  0.4996530000000  0.4862630000000  0.5529740000000 1.0
C      1  0.5035770000000  0.4634430000000  0.4639170000000 1.0
C      1  0.4702320000000  0.4843270000000  0.4632800000000 1.0
C      1  0.4642540000000  0.4861560000000  0.4775220000000 1.0
C      1  0.4835650000000  0.5419900000000  0.4626310000000 1.0
C      1  0.5307650000000  0.4933000000000  0.4548810000000 1.0
C      1  0.5331640000000  0.5089560000000  0.4571680000000 1.0
C      1  0.5193360000000  0.4501680000000  0.4818110000000 1.0
C      1  0.4830510000000  0.5309470000000  0.4529560000000 1.0
C      1  0.5010390000000  0.4576560000000  0.5421200000000 1.0
C      1  0.5196080000000  0.5281650000000  0.4584510000000 1.0
C      1  0.5165810000000  0.5497300000000  0.4884560000000 1.0
C      1  0.5130320000000  0.5498300000000  0.5023580000000 1.0
C      1  0.5156030000000  0.5076560000000  0.5461630000000 1.0
C      1  0.5458810000000  0.4997950000000  0.4855590000000 1.0
C      1  0.5471710000000  0.5130840000000  0.4815160000000 1.0
C      1  0.5037650000000  0.4824910000000  0.4455050000000 1.0
C      1  0.4776750000000  0.5439880000000  0.4864970000000 1.0
C      1  0.5117800000000  0.4748890000000  0.4551380000000 1.0
C      1  0.4886640000000  0.5268930000000  0.5302420000000 1.0
C      1  0.5225960000000  0.5413140000000  0.5111250000000 1.0
C      1  0.5015170000000  0.5307470000000  0.5363650000000 1.0
C      1  0.4692090000000  0.4954080000000  0.5352990000000 1.0
C      1  0.4690740000000  0.4690690000000  0.4952600000000 1.0
C      1  0.4584510000000  0.4975930000000  0.5120060000000 1.0
C      1  0.5125450000000  0.4476220000000  0.4946870000000 1.0
C      1  0.4621070000000  0.4877260000000  0.5238540000000 1.0
C      1  0.5369440000000  0.4941520000000  0.5350100000000 1.0
C      1  0.5337650000000  0.5327840000000  0.5018800000000 1.0
C      1  0.5316610000000  0.5330330000000  0.4865080000000 1.0
C      1  0.5137830000000  0.4512540000000  0.5219430000000 1.0
C      1  0.4693050000000  0.4660470000000  0.5101770000000 1.0
C      1  0.5152900000000  0.5258130000000  0.5319050000000 1.0
C      1  0.5455200000000  0.4977290000000  0.5124260000000 1.0
C      1  0.5400880000000  0.5115230000000  0.5169770000000 1.0
C      1  0.4869610000000  0.5492220000000  0.4969730000000 1.0
C      1  0.5354880000000  0.5091900000000  0.5313230000000 1.0
C      1  0.4660540000000  0.5355090000000  0.4917180000000 1.0
C      1  0.4687640000000  0.5352460000000  0.5074000000000 1.0
C      1  0.5442560000000  0.4681350000000  0.4940620000000 1.0
C      1  0.4889910000000  0.4672860000000  0.4671750000000 1.0
C      1  0.5131210000000  0.4818430000000  0.5578050000000 1.0
C      1  0.4899100000000  0.5250390000000  0.4404640000000 1.0
C      1  0.5504670000000  0.4864500000000  0.4812060000000 1.0
C      1  0.4820890000000  0.4576540000000  0.5128920000000 1.0
C      1  0.4888740000000  0.4544070000000  0.4998070000000 1.0
C      1  0.4902030000000  0.4837100000000  0.4490240000000 1.0
C      1  0.4575630000000  0.5146030000000  0.4644700000000 1.0
C      1  0.4701620000000  0.5100530000000  0.5300930000000 1.0
C      1  0.5426170000000  0.4869470000000  0.5227200000000 1.0
C      1  0.4952770000000  0.5266670000000  0.4806740000000 1.0
C      1  0.5112620000000  0.5065000000000  0.5231290000000 1.0
C      1  0.5205330000000  0.4835420000000  0.5118230000000 1.0
C      1  0.5240510000000  0.4940840000000  0.5007430000000 1.0
C      1  0.5050370000000  0.4731220000000  0.4944730000000 1.0
C      1  0.4995230000000  0.5290240000000  0.4948510000000 1.0
C      1  0.5140930000000  0.5052700000000  0.4754860000000 1.0
C      1  0.4801390000000  0.5024040000000  0.4953620000000 1.0
C      1  0.4943760000000  0.4889960000000  0.4737170000000 1.0
C      1  0.5045370000000  0.4955520000000  0.5287640000000 1.0
C      1  0.4837610000000  0.5116460000000  0.5064420000000 1.0
C      1  0.4913200000000  0.4921450000000  0.5233620000000 1.0
C      1  0.5088370000000  0.5149540000000  0.5114350000000 1.0
C      1  0.4944920000000  0.4794880000000  0.5156290000000 1.0
C      1  0.5156420000000  0.4739670000000  0.4854360000000 1.0
C      1  0.4994290000000  0.5027980000000  0.4715970000000 1.0
C      1  0.4841280000000  0.4878620000000  0.4953380000000 1.0
C      1  0.5079610000000  0.4764040000000  0.5088800000000 1.0
C      1  0.5240460000000  0.4850650000000  0.4874500000000 1.0
C      1  0.5189960000000  0.5088530000000  0.5014930000000 1.0
C      1  0.4942760000000  0.4809660000000  0.4866730000000 1.0
C      1  0.4953460000000  0.5212560000000  0.5068770000000 1.0
C      1  0.4786390000000  0.5117930000000  0.4845840000000 1.0
C      1  0.5097670000000  0.5257070000000  0.4852700000000 1.0
C      1  0.5181390000000  0.5134810000000  0.4874190000000 1.0
C      1  0.4830840000000  0.4834800000000  0.5092710000000 1.0
C      1  0.5189240000000  0.4915660000000  0.4759170000000 1.0
C      1  0.4889020000000  0.5151210000000  0.4754630000000 1.0
C      1  0.5157060000000  0.4881830000000  0.5247860000000 1.0
C      1  0.4855590000000  0.5048310000000  0.5190440000000 1.0
C      1  0.4902390000000  0.5631310000000  0.4887690000000 1.0
C      1  0.4444410000000  0.4915000000000  0.4906070000000 1.0
C      1  0.4709830000000  0.5113890000000  0.5531180000000 1.0
C      1  0.5524380000000  0.4759610000000  0.5263840000000 1.0
C      1  0.4423930000000  0.5292500000000  0.4892410000000 1.0
C      1  0.5150920000000  0.5216410000000  0.4458100000000 1.0
C      1  0.5545650000000  0.4694130000000  0.5134660000000 1.0
C      1  0.5314200000000  0.4984010000000  0.5583300000000 1.0
C      1  0.5120280000000  0.4995940000000  0.5742760000000 1.0
C      1  0.4769230000000  0.4557100000000  0.4658820000000 1.0
C      1  0.4970410000000  0.5646970000000  0.5134420000000 1.0
C      1  0.5415130000000  0.5209130000000  0.5384680000000 1.0
C      1  0.4886420000000  0.4912870000000  0.5620170000000 1.0
C      1  0.5032840000000  0.5446560000000  0.5375890000000 1.0
C      1  0.5031100000000  0.4385310000000  0.4888800000000 1.0
C      1  0.5011070000000  0.5064670000000  0.5768740000000 1.0
C      1  0.4808170000000  0.4439010000000  0.5320570000000 1.0
C      1  0.4449010000000  0.4921230000000  0.5073800000000 1.0
C      1  0.5484820000000  0.5319230000000  0.5037530000000 1.0
C      1  0.5666550000000  0.5102850000000  0.4990730000000 1.0
C      1  0.4863410000000  0.4444210000000  0.4686920000000 1.0
C      1  0.5629990000000  0.5134140000000  0.5127560000000 1.0
C      1  0.5226600000000  0.4972070000000  0.4425960000000 1.0
C      1  0.4780250000000  0.4435510000000  0.5169590000000 1.0
C      1  0.5033550000000  0.5667160000000  0.4903890000000 1.0
C      1  0.5429730000000  0.5206560000000  0.4587420000000 1.0
C      1  0.4633800000000  0.4465320000000  0.5194750000000 1.0
C      1  0.4525260000000  0.4677260000000  0.5349070000000 1.0
C      1  0.5393620000000  0.4900120000000  0.5497160000000 1.0
C      1  0.4396990000000  0.5196400000000  0.5108860000000 1.0
C      1  0.5578860000000  0.4727950000000  0.4997920000000 1.0
C      1  0.4810360000000  0.4925930000000  0.4435210000000 1.0
C      1  0.4365270000000  0.5299520000000  0.5016030000000 1.0
C      1  0.4685950000000  0.5284810000000  0.4503790000000 1.0
C      1  0.4435390000000  0.4784340000000  0.5142290000000 1.0
C      1  0.5614000000000  0.4845520000000  0.4923460000000 1.0
C      1  0.4371240000000  0.5054930000000  0.5061330000000 1.0
C      1  0.4697080000000  0.4945110000000  0.4525400000000 1.0
C      1  0.4535700000000  0.5373210000000  0.4837630000000 1.0
C      1  0.4556360000000  0.4736310000000  0.4757360000000 1.0
C      1  0.4872000000000  0.4347670000000  0.5076640000000 1.0
C      1  0.4687040000000  0.5193870000000  0.5418560000000 1.0
C      1  0.5151080000000  0.4619250000000  0.5427700000000 1.0
C      1  0.5329930000000  0.4540220000000  0.4755940000000 1.0
C      1  0.5068460000000  0.5636620000000  0.5041130000000 1.0
C      1  0.4590140000000  0.4624810000000  0.4856720000000 1.0
C      1  0.5509100000000  0.5221400000000  0.4699410000000 1.0
C      1  0.4631070000000  0.5069140000000  0.4532160000000 1.0
C      1  0.4460230000000  0.4655520000000  0.5072550000000 1.0
C      1  0.5603280000000  0.4993920000000  0.5124350000000 1.0
C      1  0.5245420000000  0.5110270000000  0.4450820000000 1.0
C      1  0.5420710000000  0.4640420000000  0.4796540000000 1.0
C      1  0.4441900000000  0.4774890000000  0.4850170000000 1.0
C      1  0.5268640000000  0.4707380000000  0.4560440000000 1.0
C      1  0.5586910000000  0.5176430000000  0.4902850000000 1.0
C      1  0.5514980000000  0.5224800000000  0.5155490000000 1.0
C      1  0.4770470000000  0.5458030000000  0.5369870000000 1.0
C      1  0.4591330000000  0.5282640000000  0.4610160000000 1.0
C      1  0.4573770000000  0.4575780000000  0.5128250000000 1.0
C      1  0.5453110000000  0.4765760000000  0.4712310000000 1.0
C      1  0.5035670000000  0.4410920000000  0.5253040000000 1.0
C      1  0.5258920000000  0.4604210000000  0.4649350000000 1.0
C      1  0.5224170000000  0.4569970000000  0.5316500000000 1.0
C      1  0.4512500000000  0.5229390000000  0.5181460000000 1.0
C      1  0.4658420000000  0.4594280000000  0.4578040000000 1.0
C      1  0.4763620000000  0.5314400000000  0.5381160000000 1.0
C      1  0.5324150000000  0.5241150000000  0.5491480000000 1.0
C      1  0.5399990000000  0.5412860000000  0.5265670000000 1.0
C      1  0.4891930000000  0.4393670000000  0.4936340000000 1.0
C      1  0.5107530000000  0.5592380000000  0.4806390000000 1.0
C      1  0.4805440000000  0.4408460000000  0.4814360000000 1.0
C      1  0.4582850000000  0.5391030000000  0.4700950000000 1.0
C      1  0.4892040000000  0.5560170000000  0.5200990000000 1.0
C      1  0.5182860000000  0.5456610000000  0.5376090000000 1.0
C      1  0.5378530000000  0.4801750000000  0.4592230000000 1.0
C      1  0.4691900000000  0.5476460000000  0.4669700000000 1.0
C      1  0.4426310000000  0.5156260000000  0.4849640000000 1.0
C      1  0.4987740000000  0.4337110000000  0.5148410000000 1.0
C      1  0.4803970000000  0.5150040000000  0.4367230000000 1.0
C      1  0.5661410000000  0.4956370000000  0.4996000000000 1.0
C      1  0.5332880000000  0.4649090000000  0.5274270000000 1.0
C      1  0.5468270000000  0.5297220000000  0.5281200000000 1.0
C      1  0.5227240000000  0.5330700000000  0.5433240000000 1.0
C      1  0.4866280000000  0.5025880000000  0.4354720000000 1.0
C      1  0.5074200000000  0.5527600000000  0.4679450000000 1.0
C      1  0.5007860000000  0.5046400000000  0.4355170000000 1.0
C      1  0.4664680000000  0.5404330000000  0.5300140000000 1.0
C      1  0.5433010000000  0.4698920000000  0.5362960000000 1.0
C      1  0.4592790000000  0.4581410000000  0.5405330000000 1.0
C      1  0.4370260000000  0.5046490000000  0.4921010000000 1.0
C      1  0.4611210000000  0.4718400000000  0.4621180000000 1.0
C      1  0.5276220000000  0.5467980000000  0.5250940000000 1.0
C      1  0.4675360000000  0.4972720000000  0.5505930000000 1.0
C      1  0.4911540000000  0.5047430000000  0.5671730000000 1.0
C      1  0.5329230000000  0.5433920000000  0.4653420000000 1.0
C      1  0.4592950000000  0.5356090000000  0.5188890000000 1.0
C      1  0.4503420000000  0.4785120000000  0.5269160000000 1.0
C      1  0.4669510000000  0.4484240000000  0.5338780000000 1.0
C      1  0.5028300000000  0.5190010000000  0.4392410000000 1.0
C      1  0.5523810000000  0.5347440000000  0.4779100000000 1.0
C      1  0.5344310000000  0.5320640000000  0.4568370000000 1.0
C      1  0.5211730000000  0.4748310000000  0.5476940000000 1.0
C      1  0.4854260000000  0.5111220000000  0.5555790000000 1.0
C      1  0.4733230000000  0.5555340000000  0.4773620000000 1.0
C      1  0.5094040000000  0.4937100000000  0.4387400000000 1.0
C      1  0.5560380000000  0.5314210000000  0.4915460000000 1.0
C      1  0.5404880000000  0.5416760000000  0.4774540000000 1.0
C      1  0.5269320000000  0.5114130000000  0.5541580000000 1.0
C      1  0.5374380000000  0.4755540000000  0.5480450000000 1.0
C      1  0.4682800000000  0.5162030000000  0.4438100000000 1.0
C      1  0.4464800000000  0.4660130000000  0.4932460000000 1.0
C      1  0.4715540000000  0.4527700000000  0.4807680000000 1.0
C      1  0.4753350000000  0.4893050000000  0.5586510000000 1.0
C      1  0.5000590000000  0.4475200000000  0.4661760000000 1.0
C      1  0.4932570000000  0.5529000000000  0.4664340000000 1.0
C      1  0.4948000000000  0.4456240000000  0.5360670000000 1.0
C      1  0.5085150000000  0.4416280000000  0.4759910000000 1.0
C      1  0.4858200000000  0.5615470000000  0.4755590000000 1.0
C      1  0.4905420000000  0.5511940000000  0.5334620000000 1.0
C      1  0.5196050000000  0.4923450000000  0.5654230000000 1.0
C      1  0.4872720000000  0.5376460000000  0.4766790000000 1.0
C      1  0.5196030000000  0.5119600000000  0.5329620000000 1.0
C      1  0.5328890000000  0.4751510000000  0.5161600000000 1.0
C      1  0.5392880000000  0.4951200000000  0.4989100000000 1.0
C      1  0.5034960000000  0.4582510000000  0.5002170000000 1.0
C      1  0.5001480000000  0.5430370000000  0.4975090000000 1.0
C      1  0.5242550000000  0.5154260000000  0.4677220000000 1.0
C      1  0.4655970000000  0.4967400000000  0.4974500000000 1.0
C      1  0.4858840000000  0.4813770000000  0.4630910000000 1.0
C      1  0.5036720000000  0.4991660000000  0.5438580000000 1.0
C      1  0.4705180000000  0.5193840000000  0.5058500000000 1.0
C      1  0.4838520000000  0.4909610000000  0.5364910000000 1.0
C      1  0.5178800000000  0.5271310000000  0.5163840000000 1.0
C      1  0.4927620000000  0.4657670000000  0.5212460000000 1.0
C      1  0.5145100000000  0.4636210000000  0.4746950000000 1.0
C      1  0.4958130000000  0.5063270000000  0.4583620000000 1.0
C      1  0.4705130000000  0.4834920000000  0.4913490000000 1.0
C      1  0.5064610000000  0.4615130000000  0.5142020000000 1.0
C      1  0.5387170000000  0.4817380000000  0.4907680000000 1.0
C      1  0.5289870000000  0.5191200000000  0.5088470000000 1.0
C      1  0.4892280000000  0.4685710000000  0.4813720000000 1.0
C      1  0.4900770000000  0.5319080000000  0.5161850000000 1.0
C      1  0.4675450000000  0.5198150000000  0.4897580000000 1.0
C      1  0.5183230000000  0.5371980000000  0.4815570000000 1.0
C      1  0.5316150000000  0.5187480000000  0.4814580000000 1.0
C      1  0.4714170000000  0.4790300000000  0.5162520000000 1.0
C      1  0.5192120000000  0.4867890000000  0.4623840000000 1.0
C      1  0.4872300000000  0.5168610000000  0.4612710000000 1.0
C      1  0.5236310000000  0.4863860000000  0.5359100000000 1.0
C      1  0.4854570000000  0.5126970000000  0.5306650000000 1.0
END
