TITL C-102688-8074-7 -0.0296444481515978 1000000 -1742.55266036586 0 0 240 (Td) n - 1
REM
REM in /home/chem/mssmkc/work/GAP20/Larger-Clusters/Only-C240-new-series
REM
REM
REM
REM
REM
REM ./C.cell (0485df7495ed2a90f93db84a705cd676)
REM
REM compiler GCC version 8.3.0
REM options -cpp -mtune=generic -march=x86-64 -g -O0
REM seed 82750245 -492528588 -2048205819 -283271323 115852047 1340730216 -99038627 -337121953 -1225466061 1417069274 1008084141 -186221390 1607008564 858013235 -654469272 -1429795211 8393856 73650325 1812490079 1486007950 1348625042 -845596340 -931513583 -751671791 -1780178718 -1633081865 770475992 -673287871 2075226848 -497515714 1200267482 -1409789275 -273246798
REM
CELL 1.54180  100.00000  100.00000  100.00000   90.00000   90.00000   90.00000
LATT -1
SFAC C  
C      1  0.4832540000000  0.5560570000000  0.5068570000000 1.0
C      1  0.5560590000000  0.5068590000000  0.4832640000000 1.0
C      1  0.5068500000000  0.4832550000000  0.5560580000000 1.0
C      1  0.4832680000000  0.4439390000000  0.4931420000000 1.0
C      1  0.5167330000000  0.5560620000000  0.4931570000000 1.0
C      1  0.5167450000000  0.4439410000000  0.5068440000000 1.0
C      1  0.5560600000000  0.4931540000000  0.5167400000000 1.0
C      1  0.4439390000000  0.5068420000000  0.5167380000000 1.0
C      1  0.4439420000000  0.4931450000000  0.4832580000000 1.0
C      1  0.5068500000000  0.5167470000000  0.4439430000000 1.0
C      1  0.4931540000000  0.4832670000000  0.4439380000000 1.0
C      1  0.4931460000000  0.5167310000000  0.5560610000000 1.0
C      1  0.4832580000000  0.5068410000000  0.5560600000000 1.0
C      1  0.5560610000000  0.4832670000000  0.5068500000000 1.0
C      1  0.5068440000000  0.5560630000000  0.4832680000000 1.0
C      1  0.4832640000000  0.4931550000000  0.4439390000000 1.0
C      1  0.5167380000000  0.4931450000000  0.5560590000000 1.0
C      1  0.5167400000000  0.5068590000000  0.4439420000000 1.0
C      1  0.5560580000000  0.5167460000000  0.4931540000000 1.0
C      1  0.4439380000000  0.5167310000000  0.5068500000000 1.0
C      1  0.4439430000000  0.4832550000000  0.4931460000000 1.0
C      1  0.5068560000000  0.4439390000000  0.5167320000000 1.0
C      1  0.4931570000000  0.4439420000000  0.4832540000000 1.0
C      1  0.4931430000000  0.5560570000000  0.5167460000000 1.0
C      1  0.5360140000000  0.4836340000000  0.5261860000000 1.0
C      1  0.4836290000000  0.5261800000000  0.5360150000000 1.0
C      1  0.5261830000000  0.5360180000000  0.4836380000000 1.0
C      1  0.5360120000000  0.5163740000000  0.4738170000000 1.0
C      1  0.4639900000000  0.4836320000000  0.4738100000000 1.0
C      1  0.4639840000000  0.5163600000000  0.5261870000000 1.0
C      1  0.4836370000000  0.4738160000000  0.4639830000000 1.0
C      1  0.5163650000000  0.5261930000000  0.4639910000000 1.0
C      1  0.5163690000000  0.4738110000000  0.5360100000000 1.0
C      1  0.5261900000000  0.4639880000000  0.5163640000000 1.0
C      1  0.4738090000000  0.5360080000000  0.5163700000000 1.0
C      1  0.4738180000000  0.4639860000000  0.4836280000000 1.0
C      1  0.5360100000000  0.5261930000000  0.4836380000000 1.0
C      1  0.4836280000000  0.5360080000000  0.5261900000000 1.0
C      1  0.5261870000000  0.4836320000000  0.5360120000000 1.0
C      1  0.5360150000000  0.4738160000000  0.5163650000000 1.0
C      1  0.4639910000000  0.4738110000000  0.4836280000000 1.0
C      1  0.4639840000000  0.5261800000000  0.5163690000000 1.0
C      1  0.4836380000000  0.4639890000000  0.4738080000000 1.0
C      1  0.5163700000000  0.4639860000000  0.5261830000000 1.0
C      1  0.5163640000000  0.5360180000000  0.4738190000000 1.0
C      1  0.5261860000000  0.5163750000000  0.4639900000000 1.0
C      1  0.4738100000000  0.5163590000000  0.5360140000000 1.0
C      1  0.4738170000000  0.4836340000000  0.4639840000000 1.0
C      1  0.5580080000000  0.5394300000000  0.4795760000000 1.0
C      1  0.5394210000000  0.4795660000000  0.5580110000000 1.0
C      1  0.4795600000000  0.5580050000000  0.5394270000000 1.0
C      1  0.5580160000000  0.4605830000000  0.5204290000000 1.0
C      1  0.4419820000000  0.5394120000000  0.5204340000000 1.0
C      1  0.4419930000000  0.4605750000000  0.4795620000000 1.0
C      1  0.5394210000000  0.5204430000000  0.4419920000000 1.0
C      1  0.4605840000000  0.4795710000000  0.4419840000000 1.0
C      1  0.4605740000000  0.5204190000000  0.5580130000000 1.0
C      1  0.4795770000000  0.4419900000000  0.4605710000000 1.0
C      1  0.5204260000000  0.5580190000000  0.4605870000000 1.0
C      1  0.5204370000000  0.4419850000000  0.5394150000000 1.0
C      1  0.5580130000000  0.4795710000000  0.5394210000000 1.0
C      1  0.5394150000000  0.5580190000000  0.4795770000000 1.0
C      1  0.4795620000000  0.5394110000000  0.5580160000000 1.0
C      1  0.5580110000000  0.5204430000000  0.4605840000000 1.0
C      1  0.4419840000000  0.5204200000000  0.5394210000000 1.0
C      1  0.4419920000000  0.4795670000000  0.4605740000000 1.0
C      1  0.5394270000000  0.4419900000000  0.5204260000000 1.0
C      1  0.4605870000000  0.4419860000000  0.4795600000000 1.0
C      1  0.4605710000000  0.5580050000000  0.5204370000000 1.0
C      1  0.4795760000000  0.4605840000000  0.4419820000000 1.0
C      1  0.5204340000000  0.4605740000000  0.5580080000000 1.0
C      1  0.5204290000000  0.5394310000000  0.4419940000000 1.0
C      1  0.5094550000000  0.5585770000000  0.4514650000000 1.0
C      1  0.5585750000000  0.4514630000000  0.5094560000000 1.0
C      1  0.4514540000000  0.5094470000000  0.5585690000000 1.0
C      1  0.5094650000000  0.4414250000000  0.5485360000000 1.0
C      1  0.4905310000000  0.5585630000000  0.5485500000000 1.0
C      1  0.4905490000000  0.4414350000000  0.4514500000000 1.0
C      1  0.5585640000000  0.5485510000000  0.4905480000000 1.0
C      1  0.4414360000000  0.4514520000000  0.4905320000000 1.0
C      1  0.4414240000000  0.5485350000000  0.5094640000000 1.0
C      1  0.4514610000000  0.4905420000000  0.4414270000000 1.0
C      1  0.5485440000000  0.5094730000000  0.4414330000000 1.0
C      1  0.5485420000000  0.4905390000000  0.5585700000000 1.0
C      1  0.5094630000000  0.4514510000000  0.5585640000000 1.0
C      1  0.5585700000000  0.5094730000000  0.4514610000000 1.0
C      1  0.4514500000000  0.5585630000000  0.5094650000000 1.0
C      1  0.5094560000000  0.5485510000000  0.4414370000000 1.0
C      1  0.4905320000000  0.5485340000000  0.5585750000000 1.0
C      1  0.4905480000000  0.4514630000000  0.4414240000000 1.0
C      1  0.5585690000000  0.4905410000000  0.5485440000000 1.0
C      1  0.4414330000000  0.4905390000000  0.4514540000000 1.0
C      1  0.4414270000000  0.5094470000000  0.5485420000000 1.0
C      1  0.4514650000000  0.4414260000000  0.4905310000000 1.0
C      1  0.5485490000000  0.4414350000000  0.5094540000000 1.0
C      1  0.5485360000000  0.5585770000000  0.4905490000000 1.0
C      1  0.4497550000000  0.5394810000000  0.4998580000000 1.0
C      1  0.5394890000000  0.4998660000000  0.4497610000000 1.0
C      1  0.4998590000000  0.4497550000000  0.5394810000000 1.0
C      1  0.4497640000000  0.4605070000000  0.5001390000000 1.0
C      1  0.5502360000000  0.5394930000000  0.5001520000000 1.0
C      1  0.5502450000000  0.4605190000000  0.4998520000000 1.0
C      1  0.5394850000000  0.5001440000000  0.5502420000000 1.0
C      1  0.4605110000000  0.4998440000000  0.5502390000000 1.0
C      1  0.4605150000000  0.5001470000000  0.4497580000000 1.0
C      1  0.4998500000000  0.5502450000000  0.4605190000000 1.0
C      1  0.5001530000000  0.4497640000000  0.4605070000000 1.0
C      1  0.5001380000000  0.5502360000000  0.5394930000000 1.0
C      1  0.4497580000000  0.4998440000000  0.5394850000000 1.0
C      1  0.5394930000000  0.4497640000000  0.4998500000000 1.0
C      1  0.4998520000000  0.5394930000000  0.4497640000000 1.0
C      1  0.4497610000000  0.5001440000000  0.4605110000000 1.0
C      1  0.5502390000000  0.5001460000000  0.5394890000000 1.0
C      1  0.5502420000000  0.4998650000000  0.4605150000000 1.0
C      1  0.5394810000000  0.5502450000000  0.5001530000000 1.0
C      1  0.4605070000000  0.5502360000000  0.4998590000000 1.0
C      1  0.4605190000000  0.4497550000000  0.5001380000000 1.0
C      1  0.4998570000000  0.4605070000000  0.5502360000000 1.0
C      1  0.5001520000000  0.4605190000000  0.4497550000000 1.0
C      1  0.5001390000000  0.5394810000000  0.5502450000000 1.0
C      1  0.4881350000000  0.5295690000000  0.5498960000000 1.0
C      1  0.5295720000000  0.5498980000000  0.4881470000000 1.0
C      1  0.5498930000000  0.4881420000000  0.5295770000000 1.0
C      1  0.4881450000000  0.4704280000000  0.4501030000000 1.0
C      1  0.5118580000000  0.5295840000000  0.4501120000000 1.0
C      1  0.5118610000000  0.4704180000000  0.5498890000000 1.0
C      1  0.5295820000000  0.4501090000000  0.5118550000000 1.0
C      1  0.4704170000000  0.5498880000000  0.5118650000000 1.0
C      1  0.4704290000000  0.4501050000000  0.4881330000000 1.0
C      1  0.5498920000000  0.5118690000000  0.4704260000000 1.0
C      1  0.4501100000000  0.4881380000000  0.4704200000000 1.0
C      1  0.4501050000000  0.5118500000000  0.5295770000000 1.0
C      1  0.4881330000000  0.5498880000000  0.5295830000000 1.0
C      1  0.5295760000000  0.4881370000000  0.5498920000000 1.0
C      1  0.5498900000000  0.5295840000000  0.4881460000000 1.0
C      1  0.4881470000000  0.4501100000000  0.4704160000000 1.0
C      1  0.5118650000000  0.4501050000000  0.5295710000000 1.0
C      1  0.5118550000000  0.5498980000000  0.4704300000000 1.0
C      1  0.5295770000000  0.5118700000000  0.4501100000000 1.0
C      1  0.4704200000000  0.5118500000000  0.5498930000000 1.0
C      1  0.4704260000000  0.4881430000000  0.4501050000000 1.0
C      1  0.5498960000000  0.4704270000000  0.5118580000000 1.0
C      1  0.4501110000000  0.4704190000000  0.4881350000000 1.0
C      1  0.4501030000000  0.5295700000000  0.5118620000000 1.0
C      1  0.5537260000000  0.5435350000000  0.4665380000000 1.0
C      1  0.5435260000000  0.4665290000000  0.5537280000000 1.0
C      1  0.4665230000000  0.5537210000000  0.5435300000000 1.0
C      1  0.5537340000000  0.4564780000000  0.5334660000000 1.0
C      1  0.4462630000000  0.5435140000000  0.5334720000000 1.0
C      1  0.4462760000000  0.4564740000000  0.4665230000000 1.0
C      1  0.5435220000000  0.5334810000000  0.4462760000000 1.0
C      1  0.4564820000000  0.4665320000000  0.4462640000000 1.0
C      1  0.4564700000000  0.5334570000000  0.5537330000000 1.0
C      1  0.4665390000000  0.4462710000000  0.4564680000000 1.0
C      1  0.5334640000000  0.5537400000000  0.4564840000000 1.0
C      1  0.5334740000000  0.4462680000000  0.5435190000000 1.0
C      1  0.5537330000000  0.4665320000000  0.5435220000000 1.0
C      1  0.5435190000000  0.5537400000000  0.4665390000000 1.0
C      1  0.4665240000000  0.5435140000000  0.5537340000000 1.0
C      1  0.5537280000000  0.5334810000000  0.4564820000000 1.0
C      1  0.4462640000000  0.5334570000000  0.5435260000000 1.0
C      1  0.4462750000000  0.4665300000000  0.4564700000000 1.0
C      1  0.5435290000000  0.4462710000000  0.5334640000000 1.0
C      1  0.4564830000000  0.4462690000000  0.4665230000000 1.0
C      1  0.4564680000000  0.5537210000000  0.5334740000000 1.0
C      1  0.4665380000000  0.4564780000000  0.4462630000000 1.0
C      1  0.5334720000000  0.4564730000000  0.5537260000000 1.0
C      1  0.5334660000000  0.5435350000000  0.4462760000000 1.0
C      1  0.5517340000000  0.4690090000000  0.4884150000000 1.0
C      1  0.4690010000000  0.4884070000000  0.5517270000000 1.0
C      1  0.4884120000000  0.5517330000000  0.4690080000000 1.0
C      1  0.5517260000000  0.5310030000000  0.5115880000000 1.0
C      1  0.4482730000000  0.4689940000000  0.5115770000000 1.0
C      1  0.4482670000000  0.5309940000000  0.4884190000000 1.0
C      1  0.4690020000000  0.5115850000000  0.4482700000000 1.0
C      1  0.5310020000000  0.4884270000000  0.4482700000000 1.0
C      1  0.5309950000000  0.5115800000000  0.5517330000000 1.0
C      1  0.4884220000000  0.4482650000000  0.5309920000000 1.0
C      1  0.5115750000000  0.5517280000000  0.5310050000000 1.0
C      1  0.5115900000000  0.4482750000000  0.4689960000000 1.0
C      1  0.5517330000000  0.4884270000000  0.4690020000000 1.0
C      1  0.4689960000000  0.5517280000000  0.4884230000000 1.0
C      1  0.4884190000000  0.4689940000000  0.5517260000000 1.0
C      1  0.5517280000000  0.5115850000000  0.5310020000000 1.0
C      1  0.4482700000000  0.5115800000000  0.4690010000000 1.0
C      1  0.4482700000000  0.4884070000000  0.5309950000000 1.0
C      1  0.4690070000000  0.4482650000000  0.5115750000000 1.0
C      1  0.5310050000000  0.4482750000000  0.4884120000000 1.0
C      1  0.5309920000000  0.5517320000000  0.5115900000000 1.0
C      1  0.4884160000000  0.5310030000000  0.4482730000000 1.0
C      1  0.5115770000000  0.5309930000000  0.5517340000000 1.0
C      1  0.5115880000000  0.4690090000000  0.4482670000000 1.0
C      1  0.4925290000000  0.5559510000000  0.4825170000000 1.0
C      1  0.5559520000000  0.4825180000000  0.4925350000000 1.0
C      1  0.4825100000000  0.4925260000000  0.5559480000000 1.0
C      1  0.4925410000000  0.4440480000000  0.5174820000000 1.0
C      1  0.5074580000000  0.5559480000000  0.5174960000000 1.0
C      1  0.5074720000000  0.4440540000000  0.4825040000000 1.0
C      1  0.5559470000000  0.5174950000000  0.5074690000000 1.0
C      1  0.4440520000000  0.4825030000000  0.5074610000000 1.0
C      1  0.4440490000000  0.5174830000000  0.4925350000000 1.0
C      1  0.4825120000000  0.5074700000000  0.4440510000000 1.0
C      1  0.5174920000000  0.4925440000000  0.4440500000000 1.0
C      1  0.5174860000000  0.5074600000000  0.5559510000000 1.0
C      1  0.4925350000000  0.4825030000000  0.5559470000000 1.0
C      1  0.5559510000000  0.4925440000000  0.4825120000000 1.0
C      1  0.4825050000000  0.5559480000000  0.4925410000000 1.0
C      1  0.4925350000000  0.5174950000000  0.4440530000000 1.0
C      1  0.5074610000000  0.5174830000000  0.5559520000000 1.0
C      1  0.5074690000000  0.4825190000000  0.4440490000000 1.0
C      1  0.5559480000000  0.5074690000000  0.5174920000000 1.0
C      1  0.4440500000000  0.5074600000000  0.4825100000000 1.0
C      1  0.4440510000000  0.4925260000000  0.5174860000000 1.0
C      1  0.4825170000000  0.4440480000000  0.5074570000000 1.0
C      1  0.5174960000000  0.4440540000000  0.4925290000000 1.0
C      1  0.5174820000000  0.5559500000000  0.5074720000000 1.0
C      1  0.4563800000000  0.5232340000000  0.4667080000000 1.0
C      1  0.5232400000000  0.4667150000000  0.4563780000000 1.0
C      1  0.4667110000000  0.4563750000000  0.5232280000000 1.0
C      1  0.4563830000000  0.4767560000000  0.5332890000000 1.0
C      1  0.5436150000000  0.5232360000000  0.5332980000000 1.0
C      1  0.5436230000000  0.4767740000000  0.4667060000000 1.0
C      1  0.5232290000000  0.5332900000000  0.5436240000000 1.0
C      1  0.4767670000000  0.4666990000000  0.5436140000000 1.0
C      1  0.4767630000000  0.5332960000000  0.4563850000000 1.0
C      1  0.4667030000000  0.5436180000000  0.4767690000000 1.0
C      1  0.5332990000000  0.4563880000000  0.4767610000000 1.0
C      1  0.5332870000000  0.5436200000000  0.5232420000000 1.0
C      1  0.4563840000000  0.4666990000000  0.5232290000000 1.0
C      1  0.5232410000000  0.4563880000000  0.4667020000000 1.0
C      1  0.4667060000000  0.5232360000000  0.4563830000000 1.0
C      1  0.4563780000000  0.5332910000000  0.4767680000000 1.0
C      1  0.5436140000000  0.5332950000000  0.5232410000000 1.0
C      1  0.5436230000000  0.4667150000000  0.4767630000000 1.0
C      1  0.5232290000000  0.5436170000000  0.5332990000000 1.0
C      1  0.4767610000000  0.5436200000000  0.4667110000000 1.0
C      1  0.4767690000000  0.4563740000000  0.5332870000000 1.0
C      1  0.4667080000000  0.4767560000000  0.5436150000000 1.0
C      1  0.5332980000000  0.4767740000000  0.4563800000000 1.0
C      1  0.5332890000000  0.5232330000000  0.5436230000000 1.0
END
