TITL C240-177 -3.0166421167534 1000000 -1713.61854183603 0 0 240 (Ih) n - 1
REM
REM in /home/chem/mssmkc/work/CARBON/AIRSS/Generating-Clusters/Str-Search/GAP20/LAMMPS-RUNS
REM
REM
REM
REM
REM
REM C240.cell (20155db8bbe73de327ce646da1efaba1)
REM
REM
REM
REM
REM
CELL 1.54180  100.00000  100.00000  100.00000   90.00000   90.00000   90.00000
LATT -1
SFAC C  
C      1  0.4167090000000  0.5186530000000  0.5072110000000 1.0
C      1  0.4813460000000  0.5072120000000  0.4167090000000 1.0
C      1  0.4210610000000  0.4699530000000  0.4857470000000 1.0
C      1  0.5372230000000  0.5558280000000  0.5532440000000 1.0
C      1  0.5142530000000  0.5789390000000  0.5300470000000 1.0
C      1  0.4441720000000  0.5532440000000  0.4627760000000 1.0
C      1  0.4857470000000  0.4210610000000  0.4699530000000 1.0
C      1  0.5789390000000  0.4699530000000  0.4857470000000 1.0
C      1  0.4927890000000  0.4167090000000  0.5186530000000 1.0
C      1  0.5417150000000  0.5070420000000  0.4255180000000 1.0
C      1  0.4167090000000  0.5186540000000  0.4927890000000 1.0
C      1  0.5744820000000  0.4582850000000  0.4929590000000 1.0
C      1  0.5072110000000  0.4167090000000  0.5186530000000 1.0
C      1  0.4699530000000  0.4857470000000  0.5789390000000 1.0
C      1  0.5832910000000  0.4813460000000  0.5072110000000 1.0
C      1  0.4927890000000  0.5832910000000  0.5186540000000 1.0
C      1  0.5300470000000  0.5142530000000  0.5789390000000 1.0
C      1  0.4813460000000  0.5072110000000  0.5832910000000 1.0
C      1  0.4857470000000  0.5789390000000  0.4699530000000 1.0
C      1  0.5186540000000  0.4927890000000  0.4167090000000 1.0
C      1  0.5300470000000  0.5142530000000  0.4210610000000 1.0
C      1  0.5186540000000  0.4927880000000  0.5832910000000 1.0
C      1  0.5789390000000  0.5300470000000  0.5142530000000 1.0
C      1  0.4467560000000  0.4627760000000  0.4441720000000 1.0
C      1  0.5832910000000  0.5186540000000  0.5072120000000 1.0
C      1  0.5744820000000  0.4582850000000  0.5070410000000 1.0
C      1  0.4584250000000  0.4555650000000  0.4397150000000 1.0
C      1  0.4255180000000  0.5417150000000  0.4929590000000 1.0
C      1  0.5789390000000  0.5300470000000  0.4857470000000 1.0
C      1  0.4627760000000  0.4441720000000  0.5532440000000 1.0
C      1  0.4857470000000  0.4210610000000  0.5300470000000 1.0
C      1  0.5558280000000  0.4467560000000  0.4627760000000 1.0
C      1  0.5142530000000  0.5789390000000  0.4699530000000 1.0
C      1  0.5602850000000  0.5415760000000  0.4555650000000 1.0
C      1  0.4627760000000  0.5558280000000  0.5532440000000 1.0
C      1  0.5372240000000  0.5558280000000  0.4467560000000 1.0
C      1  0.4813460000000  0.4927880000000  0.5832910000000 1.0
C      1  0.4210610000000  0.5300470000000  0.5142530000000 1.0
C      1  0.5070410000000  0.5744820000000  0.5417150000000 1.0
C      1  0.4555650000000  0.5602850000000  0.4584250000000 1.0
C      1  0.4167090000000  0.4813460000000  0.4927880000000 1.0
C      1  0.4255180000000  0.4582850000000  0.4929580000000 1.0
C      1  0.4582850000000  0.5070410000000  0.5744820000000 1.0
C      1  0.5415750000000  0.4555650000000  0.5602850000000 1.0
C      1  0.5832910000000  0.5186540000000  0.4927890000000 1.0
C      1  0.5070410000000  0.4255180000000  0.5417150000000 1.0
C      1  0.5444350000000  0.4397150000000  0.4584250000000 1.0
C      1  0.4210610000000  0.4699530000000  0.5142530000000 1.0
C      1  0.5142530000000  0.4210610000000  0.4699530000000 1.0
C      1  0.5186530000000  0.5072110000000  0.5832910000000 1.0
C      1  0.5789390000000  0.4699530000000  0.5142530000000 1.0
C      1  0.4929590000000  0.4255180000000  0.5417150000000 1.0
C      1  0.4627760000000  0.5558280000000  0.4467560000000 1.0
C      1  0.4397150000000  0.4584250000000  0.4555650000000 1.0
C      1  0.5372240000000  0.4441720000000  0.4467560000000 1.0
C      1  0.5372240000000  0.4441720000000  0.5532440000000 1.0
C      1  0.5417150000000  0.4929580000000  0.5744820000000 1.0
C      1  0.4255180000000  0.4582850000000  0.5070410000000 1.0
C      1  0.5070420000000  0.4255180000000  0.4582850000000 1.0
C      1  0.5444350000000  0.5602850000000  0.4584250000000 1.0
C      1  0.5532440000000  0.4627770000000  0.4441720000000 1.0
C      1  0.4582850000000  0.5070420000000  0.4255180000000 1.0
C      1  0.5415760000000  0.4555650000000  0.4397150000000 1.0
C      1  0.4555650000000  0.4397150000000  0.5415750000000 1.0
C      1  0.5602850000000  0.4584250000000  0.4555650000000 1.0
C      1  0.5602850000000  0.5415750000000  0.5444350000000 1.0
C      1  0.4397150000000  0.5415750000000  0.5444350000000 1.0
C      1  0.4929590000000  0.5744820000000  0.4582850000000 1.0
C      1  0.4167090000000  0.4813460000000  0.5072110000000 1.0
C      1  0.5532440000000  0.5372240000000  0.5558280000000 1.0
C      1  0.4467560000000  0.4627760000000  0.5558280000000 1.0
C      1  0.4555650000000  0.4397150000000  0.4584240000000 1.0
C      1  0.4467560000000  0.5372240000000  0.4441720000000 1.0
C      1  0.5532440000000  0.5372240000000  0.4441720000000 1.0
C      1  0.5744820000000  0.5417150000000  0.5070420000000 1.0
C      1  0.5417150000000  0.4929590000000  0.4255180000000 1.0
C      1  0.4627770000000  0.4441720000000  0.4467560000000 1.0
C      1  0.5832910000000  0.4813470000000  0.4927890000000 1.0
C      1  0.5072110000000  0.5832910000000  0.4813470000000 1.0
C      1  0.5186540000000  0.5072120000000  0.4167090000000 1.0
C      1  0.4929590000000  0.4255180000000  0.4582850000000 1.0
C      1  0.5444350000000  0.4397150000000  0.5415750000000 1.0
C      1  0.4582850000000  0.4929580000000  0.5744820000000 1.0
C      1  0.5072110000000  0.4167090000000  0.4813460000000 1.0
C      1  0.4699530000000  0.4857470000000  0.4210610000000 1.0
C      1  0.4927890000000  0.4167090000000  0.4813460000000 1.0
C      1  0.4584250000000  0.5444350000000  0.4397150000000 1.0
C      1  0.5444350000000  0.5602850000000  0.5415760000000 1.0
C      1  0.5602850000000  0.4584250000000  0.5444350000000 1.0
C      1  0.4813470000000  0.4927890000000  0.4167090000000 1.0
C      1  0.4255180000000  0.5417150000000  0.5070410000000 1.0
C      1  0.5415750000000  0.5444350000000  0.4397150000000 1.0
C      1  0.4210610000000  0.5300470000000  0.4857470000000 1.0
C      1  0.5072110000000  0.5832910000000  0.5186540000000 1.0
C      1  0.4582850000000  0.4929590000000  0.4255180000000 1.0
C      1  0.5070410000000  0.5744820000000  0.4582850000000 1.0
C      1  0.4555650000000  0.5602850000000  0.5415750000000 1.0
C      1  0.5417150000000  0.5070410000000  0.5744820000000 1.0
C      1  0.4927890000000  0.5832910000000  0.4813470000000 1.0
C      1  0.4929580000000  0.5744820000000  0.5417150000000 1.0
C      1  0.4397150000000  0.5415750000000  0.4555650000000 1.0
C      1  0.4397150000000  0.4584240000000  0.5444350000000 1.0
C      1  0.5558280000000  0.5532440000000  0.5372240000000 1.0
C      1  0.4584240000000  0.5444350000000  0.5602850000000 1.0
C      1  0.4441720000000  0.4467560000000  0.4627760000000 1.0
C      1  0.4857470000000  0.5789390000000  0.5300470000000 1.0
C      1  0.5415750000000  0.5444350000000  0.5602850000000 1.0
C      1  0.4441720000000  0.5532440000000  0.5372240000000 1.0
C      1  0.5744820000000  0.5417150000000  0.4929590000000 1.0
C      1  0.5558280000000  0.5532440000000  0.4627770000000 1.0
C      1  0.5142530000000  0.4210610000000  0.5300470000000 1.0
C      1  0.4584250000000  0.4555650000000  0.5602850000000 1.0
C      1  0.5558280000000  0.4467560000000  0.5372240000000 1.0
C      1  0.4699530000000  0.5142530000000  0.4210610000000 1.0
C      1  0.5300470000000  0.4857470000000  0.4210610000000 1.0
C      1  0.4699530000000  0.5142530000000  0.5789390000000 1.0
C      1  0.5532440000000  0.4627760000000  0.5558280000000 1.0
C      1  0.4467560000000  0.5372230000000  0.5558280000000 1.0
C      1  0.5300470000000  0.4857470000000  0.5789390000000 1.0
C      1  0.4441720000000  0.4467560000000  0.5372230000000 1.0
C      1  0.5554910000000  0.4757840000000  0.4387450000000 1.0
C      1  0.5242160000000  0.4387450000000  0.5554910000000 1.0
C      1  0.5759300000000  0.4707070000000  0.5281840000000 1.0
C      1  0.4938890000000  0.4861430000000  0.4152150000000 1.0
C      1  0.4718160000000  0.4240700000000  0.5292930000000 1.0
C      1  0.5138570000000  0.4152150000000  0.5061110000000 1.0
C      1  0.5281840000000  0.5759300000000  0.4707070000000 1.0
C      1  0.4240700000000  0.4707060000000  0.5281840000000 1.0
C      1  0.5612550000000  0.5554910000000  0.4757840000000 1.0
C      1  0.4301810000000  0.5330710000000  0.5380730000000 1.0
C      1  0.5554910000000  0.4757840000000  0.5612550000000 1.0
C      1  0.4619270000000  0.5698190000000  0.4669290000000 1.0
C      1  0.4387450000000  0.5554910000000  0.4757840000000 1.0
C      1  0.4707070000000  0.5281840000000  0.4240700000000 1.0
C      1  0.4445090000000  0.5242160000000  0.4387450000000 1.0
C      1  0.5612550000000  0.4445090000000  0.4757840000000 1.0
C      1  0.5292940000000  0.4718160000000  0.4240700000000 1.0
C      1  0.5242160000000  0.4387460000000  0.4445090000000 1.0
C      1  0.5281840000000  0.4240700000000  0.4707060000000 1.0
C      1  0.4757840000000  0.5612540000000  0.5554910000000 1.0
C      1  0.5292930000000  0.4718160000000  0.5759300000000 1.0
C      1  0.4757840000000  0.5612550000000  0.4445090000000 1.0
C      1  0.4240700000000  0.5292930000000  0.4718160000000 1.0
C      1  0.5847850000000  0.5061120000000  0.5138570000000 1.0
C      1  0.4445090000000  0.4757840000000  0.4387450000000 1.0
C      1  0.4619270000000  0.5698180000000  0.5330710000000 1.0
C      1  0.4856730000000  0.5673660000000  0.5517140000000 1.0
C      1  0.5380730000000  0.4301820000000  0.4669290000000 1.0
C      1  0.4240700000000  0.5292930000000  0.5281840000000 1.0
C      1  0.5061120000000  0.5138570000000  0.4152150000000 1.0
C      1  0.5281840000000  0.5759300000000  0.5292940000000 1.0
C      1  0.4861430000000  0.5847850000000  0.5061120000000 1.0
C      1  0.4718160000000  0.4240700000000  0.4707060000000 1.0
C      1  0.4482860000000  0.5143270000000  0.5673660000000 1.0
C      1  0.5061120000000  0.4861430000000  0.4152150000000 1.0
C      1  0.4938880000000  0.4861430000000  0.5847850000000 1.0
C      1  0.5242160000000  0.5612550000000  0.4445090000000 1.0
C      1  0.5759300000000  0.5292940000000  0.4718160000000 1.0
C      1  0.5330710000000  0.4619280000000  0.4301810000000 1.0
C      1  0.5673660000000  0.4482860000000  0.4856730000000 1.0
C      1  0.5554910000000  0.5242160000000  0.5612550000000 1.0
C      1  0.5380730000000  0.5698190000000  0.4669300000000 1.0
C      1  0.5698190000000  0.5330710000000  0.4619270000000 1.0
C      1  0.5143270000000  0.5673660000000  0.4482860000000 1.0
C      1  0.4445090000000  0.4757840000000  0.5612540000000 1.0
C      1  0.5330710000000  0.5380730000000  0.4301820000000 1.0
C      1  0.4326340000000  0.5517140000000  0.4856730000000 1.0
C      1  0.5759300000000  0.4707070000000  0.4718160000000 1.0
C      1  0.4718160000000  0.5759300000000  0.4707070000000 1.0
C      1  0.4757840000000  0.4387450000000  0.4445090000000 1.0
C      1  0.4240700000000  0.4707060000000  0.4718160000000 1.0
C      1  0.4669290000000  0.5380730000000  0.4301820000000 1.0
C      1  0.5061110000000  0.4861430000000  0.5847850000000 1.0
C      1  0.5517140000000  0.4856730000000  0.5673660000000 1.0
C      1  0.4938880000000  0.5138570000000  0.5847850000000 1.0
C      1  0.4938890000000  0.5138570000000  0.4152150000000 1.0
C      1  0.4301820000000  0.4669290000000  0.4619270000000 1.0
C      1  0.5380730000000  0.5698180000000  0.5330710000000 1.0
C      1  0.5330710000000  0.5380730000000  0.5698190000000 1.0
C      1  0.4326340000000  0.4482860000000  0.4856730000000 1.0
C      1  0.4152150000000  0.5061110000000  0.5138570000000 1.0
C      1  0.5698180000000  0.5330710000000  0.5380730000000 1.0
C      1  0.5143270000000  0.5673660000000  0.5517140000000 1.0
C      1  0.5673660000000  0.5517140000000  0.5143270000000 1.0
C      1  0.4482860000000  0.4856730000000  0.5673660000000 1.0
C      1  0.4482860000000  0.5143270000000  0.4326340000000 1.0
C      1  0.5517140000000  0.5143270000000  0.4326340000000 1.0
C      1  0.4669290000000  0.4619270000000  0.5698180000000 1.0
C      1  0.5554910000000  0.5242160000000  0.4387460000000 1.0
C      1  0.4152150000000  0.4938880000000  0.4861430000000 1.0
C      1  0.5847850000000  0.5061120000000  0.4861430000000 1.0
C      1  0.5673660000000  0.5517140000000  0.4856730000000 1.0
C      1  0.5847850000000  0.4938890000000  0.5138570000000 1.0
C      1  0.4152150000000  0.4938880000000  0.5138570000000 1.0
C      1  0.4619270000000  0.4301810000000  0.5330700000000 1.0
C      1  0.4301810000000  0.4669290000000  0.5380730000000 1.0
C      1  0.5061110000000  0.5138570000000  0.5847850000000 1.0
C      1  0.4445090000000  0.5242160000000  0.5612550000000 1.0
C      1  0.4387450000000  0.4445090000000  0.5242160000000 1.0
C      1  0.4757840000000  0.4387450000000  0.5554910000000 1.0
C      1  0.4669290000000  0.5380720000000  0.5698190000000 1.0
C      1  0.4326340000000  0.5517140000000  0.5143270000000 1.0
C      1  0.5698190000000  0.4669290000000  0.4619270000000 1.0
C      1  0.4387450000000  0.5554910000000  0.5242160000000 1.0
C      1  0.4707060000000  0.5281840000000  0.5759300000000 1.0
C      1  0.5612550000000  0.5554910000000  0.5242160000000 1.0
C      1  0.4856730000000  0.4326340000000  0.5517140000000 1.0
C      1  0.4326340000000  0.4482860000000  0.5143270000000 1.0
C      1  0.4482860000000  0.4856730000000  0.4326340000000 1.0
C      1  0.5242160000000  0.5612550000000  0.5554910000000 1.0
C      1  0.5380730000000  0.4301810000000  0.5330710000000 1.0
C      1  0.5143270000000  0.4326340000000  0.5517140000000 1.0
C      1  0.5759300000000  0.5292940000000  0.5281840000000 1.0
C      1  0.4387450000000  0.4445090000000  0.4757840000000 1.0
C      1  0.5698190000000  0.4669290000000  0.5380730000000 1.0
C      1  0.5330710000000  0.4619270000000  0.5698180000000 1.0
C      1  0.5673660000000  0.4482860000000  0.5143270000000 1.0
C      1  0.4301810000000  0.5330710000000  0.4619270000000 1.0
C      1  0.5612550000000  0.4445090000000  0.5242160000000 1.0
C      1  0.4669290000000  0.4619270000000  0.4301810000000 1.0
C      1  0.5517140000000  0.5143270000000  0.5673660000000 1.0
C      1  0.5517140000000  0.4856730000000  0.4326340000000 1.0
C      1  0.4861430000000  0.4152150000000  0.4938880000000 1.0
C      1  0.4856730000000  0.4326340000000  0.4482860000000 1.0
C      1  0.5138570000000  0.5847850000000  0.5061120000000 1.0
C      1  0.5281840000000  0.4240700000000  0.5292930000000 1.0
C      1  0.5143270000000  0.4326340000000  0.4482860000000 1.0
C      1  0.5138570000000  0.4152150000000  0.4938880000000 1.0
C      1  0.4619270000000  0.4301820000000  0.4669290000000 1.0
C      1  0.4861430000000  0.4152150000000  0.5061110000000 1.0
C      1  0.4718160000000  0.5759300000000  0.5292940000000 1.0
C      1  0.4856730000000  0.5673660000000  0.4482860000000 1.0
C      1  0.4861430000000  0.5847850000000  0.4938890000000 1.0
C      1  0.4707060000000  0.4718160000000  0.5759300000000 1.0
C      1  0.5292930000000  0.5281840000000  0.5759300000000 1.0
C      1  0.4707070000000  0.4718160000000  0.4240700000000 1.0
C      1  0.4152150000000  0.5061110000000  0.4861430000000 1.0
C      1  0.5847850000000  0.4938890000000  0.4861430000000 1.0
C      1  0.5292940000000  0.5281840000000  0.4240700000000 1.0
C      1  0.5138570000000  0.5847850000000  0.4938890000000 1.0
END
