TITL C-102689-8077-191 0.00804659450810745 1000000 -1639.67349347753 0 0 240 (Th) n - 1
REM
REM in /home/chem/mssmkc/work/GAP20/Larger-Clusters/Only-C240-new-series
REM
REM
REM
REM
REM
REM ./C.cell (0485df7495ed2a90f93db84a705cd676)
REM
REM compiler GCC version 8.3.0
REM options -cpp -mtune=generic -march=x86-64 -g -O0
REM seed 459763730 -323008257 1760428112 1266462272 230421381 -1564443091 -313126757 -1284952781 1346231444 125340641 800302010 -1374378005 1979170511 -321436800 -1246257353 -205141273 -1784377017 -472021312 1805991711 -243583379 940835577 -1929073724 -1841579501 -1519163626 -2004838142 -594458213 -1749643778 2005549412 -1514393041 1629972598 -1727933930 1533289692 1323701389
REM
CELL 1.54180  100.00000  100.00000  100.00000   90.00000   90.00000   90.00000
LATT -1
SFAC C  
C      1  0.5493390000000  0.4842520000000  0.5468160000000 1.0
C      1  0.5468150000000  0.5493410000000  0.4842550000000 1.0
C      1  0.4842510000000  0.5468140000000  0.5493400000000 1.0
C      1  0.5493460000000  0.5157450000000  0.4531910000000 1.0
C      1  0.4506550000000  0.5157500000000  0.5468090000000 1.0
C      1  0.4506600000000  0.4842540000000  0.4531840000000 1.0
C      1  0.5468100000000  0.4506560000000  0.5157510000000 1.0
C      1  0.4531870000000  0.4506590000000  0.4842500000000 1.0
C      1  0.4531880000000  0.5493440000000  0.5157430000000 1.0
C      1  0.4842550000000  0.4531870000000  0.4506570000000 1.0
C      1  0.5157420000000  0.4531880000000  0.5493440000000 1.0
C      1  0.5157520000000  0.5468110000000  0.4506580000000 1.0
C      1  0.4506540000000  0.4842550000000  0.5468090000000 1.0
C      1  0.4531900000000  0.5493440000000  0.4842490000000 1.0
C      1  0.5157450000000  0.5468130000000  0.5493430000000 1.0
C      1  0.4506610000000  0.5157480000000  0.4531840000000 1.0
C      1  0.5493400000000  0.5157460000000  0.5468160000000 1.0
C      1  0.5493450000000  0.4842500000000  0.4531910000000 1.0
C      1  0.4531850000000  0.4506590000000  0.5157450000000 1.0
C      1  0.5468120000000  0.4506560000000  0.4842570000000 1.0
C      1  0.5468130000000  0.5493410000000  0.5157500000000 1.0
C      1  0.5157490000000  0.4531860000000  0.4506600000000 1.0
C      1  0.4842480000000  0.4531890000000  0.5493420000000 1.0
C      1  0.4842580000000  0.5468120000000  0.4506560000000 1.0
C      1  0.5502790000000  0.5387720000000  0.4581890000000 1.0
C      1  0.4581850000000  0.5502770000000  0.5387710000000 1.0
C      1  0.5387700000000  0.4581860000000  0.5502780000000 1.0
C      1  0.5502710000000  0.4612240000000  0.5418180000000 1.0
C      1  0.4497270000000  0.4612260000000  0.4581830000000 1.0
C      1  0.4497240000000  0.5387770000000  0.5418100000000 1.0
C      1  0.4581870000000  0.4497260000000  0.4612230000000 1.0
C      1  0.5418100000000  0.4497240000000  0.5387780000000 1.0
C      1  0.5418180000000  0.5502730000000  0.4612270000000 1.0
C      1  0.5387800000000  0.5418120000000  0.4497270000000 1.0
C      1  0.4612230000000  0.5418160000000  0.5502710000000 1.0
C      1  0.4612270000000  0.4581870000000  0.4497230000000 1.0
C      1  0.4497290000000  0.5387760000000  0.4581820000000 1.0
C      1  0.5418130000000  0.5502740000000  0.5387770000000 1.0
C      1  0.4612200000000  0.4581880000000  0.5502730000000 1.0
C      1  0.4497210000000  0.4612280000000  0.5418110000000 1.0
C      1  0.5502760000000  0.4612230000000  0.4581900000000 1.0
C      1  0.5502730000000  0.5387740000000  0.5418170000000 1.0
C      1  0.5418150000000  0.4497230000000  0.4612290000000 1.0
C      1  0.4581820000000  0.4497270000000  0.5387730000000 1.0
C      1  0.4581900000000  0.5502760000000  0.4612220000000 1.0
C      1  0.4612300000000  0.5418140000000  0.4497220000000 1.0
C      1  0.5387730000000  0.5418130000000  0.5502770000000 1.0
C      1  0.5387770000000  0.4581840000000  0.4497290000000 1.0
C      1  0.5067610000000  0.4567190000000  0.4401680000000 1.0
C      1  0.4401700000000  0.5067590000000  0.4567160000000 1.0
C      1  0.4567180000000  0.4401680000000  0.5067560000000 1.0
C      1  0.5067550000000  0.5432810000000  0.5598330000000 1.0
C      1  0.4932480000000  0.5432790000000  0.4401650000000 1.0
C      1  0.4932370000000  0.4567210000000  0.5598340000000 1.0
C      1  0.4401630000000  0.4932450000000  0.5432760000000 1.0
C      1  0.5598360000000  0.4932390000000  0.4567240000000 1.0
C      1  0.5598310000000  0.5067570000000  0.5432840000000 1.0
C      1  0.4567230000000  0.5598350000000  0.4932380000000 1.0
C      1  0.5432810000000  0.5598320000000  0.5067600000000 1.0
C      1  0.5432780000000  0.4401650000000  0.4932460000000 1.0
C      1  0.4932450000000  0.4567190000000  0.4401670000000 1.0
C      1  0.5598370000000  0.5067550000000  0.4567240000000 1.0
C      1  0.5432770000000  0.4401650000000  0.5067620000000 1.0
C      1  0.4932390000000  0.5432810000000  0.5598320000000 1.0
C      1  0.5067630000000  0.5432790000000  0.4401660000000 1.0
C      1  0.5067520000000  0.4567210000000  0.5598350000000 1.0
C      1  0.5598300000000  0.4932410000000  0.5432840000000 1.0
C      1  0.4401690000000  0.4932430000000  0.4567160000000 1.0
C      1  0.4401640000000  0.5067610000000  0.5432760000000 1.0
C      1  0.5432820000000  0.5598320000000  0.4932440000000 1.0
C      1  0.4567220000000  0.5598350000000  0.5067540000000 1.0
C      1  0.4567190000000  0.4401680000000  0.4932400000000 1.0
C      1  0.4614700000000  0.5559280000000  0.4734660000000 1.0
C      1  0.4734640000000  0.4614680000000  0.5559260000000 1.0
C      1  0.5559290000000  0.4734670000000  0.4614710000000 1.0
C      1  0.4614630000000  0.4440740000000  0.5265290000000 1.0
C      1  0.5385330000000  0.4440710000000  0.4734730000000 1.0
C      1  0.5385340000000  0.5559270000000  0.5265320000000 1.0
C      1  0.4734750000000  0.5385340000000  0.4440700000000 1.0
C      1  0.5265280000000  0.5385330000000  0.5559290000000 1.0
C      1  0.5265330000000  0.4614650000000  0.4440750000000 1.0
C      1  0.5559260000000  0.5265290000000  0.5385370000000 1.0
C      1  0.4440760000000  0.5265320000000  0.4614620000000 1.0
C      1  0.4440690000000  0.4734720000000  0.5385300000000 1.0
C      1  0.5385370000000  0.5559260000000  0.4734710000000 1.0
C      1  0.5265250000000  0.4614660000000  0.5559300000000 1.0
C      1  0.4440740000000  0.4734710000000  0.4614630000000 1.0
C      1  0.5385300000000  0.4440720000000  0.5265340000000 1.0
C      1  0.4614660000000  0.4440730000000  0.4734680000000 1.0
C      1  0.4614670000000  0.5559290000000  0.5265270000000 1.0
C      1  0.5265360000000  0.5385320000000  0.4440740000000 1.0
C      1  0.4734670000000  0.5385350000000  0.5559250000000 1.0
C      1  0.4734720000000  0.4614670000000  0.4440710000000 1.0
C      1  0.4440710000000  0.5265330000000  0.5385290000000 1.0
C      1  0.5559310000000  0.5265280000000  0.4614700000000 1.0
C      1  0.5559240000000  0.4734680000000  0.5385380000000 1.0
C      1  0.5074680000000  0.4808930000000  0.5638070000000 1.0
C      1  0.5638080000000  0.5074700000000  0.4808960000000 1.0
C      1  0.4808940000000  0.5638070000000  0.5074700000000 1.0
C      1  0.5074780000000  0.5191070000000  0.4361940000000 1.0
C      1  0.4925240000000  0.5191090000000  0.5638050000000 1.0
C      1  0.4925310000000  0.4808910000000  0.4361940000000 1.0
C      1  0.5638050000000  0.4925260000000  0.5191120000000 1.0
C      1  0.4361950000000  0.4925290000000  0.4808880000000 1.0
C      1  0.4361930000000  0.5074750000000  0.5191030000000 1.0
C      1  0.4808910000000  0.4361940000000  0.4925270000000 1.0
C      1  0.5191050000000  0.4361930000000  0.5074750000000 1.0
C      1  0.5191110000000  0.5638050000000  0.4925280000000 1.0
C      1  0.4925220000000  0.4808930000000  0.5638060000000 1.0
C      1  0.4361950000000  0.5074740000000  0.4808880000000 1.0
C      1  0.5191090000000  0.5638060000000  0.5074730000000 1.0
C      1  0.4925320000000  0.5191070000000  0.4361930000000 1.0
C      1  0.5074690000000  0.5191090000000  0.5638060000000 1.0
C      1  0.5074760000000  0.4808910000000  0.4361950000000 1.0
C      1  0.4361920000000  0.4925300000000  0.5191040000000 1.0
C      1  0.5638070000000  0.4925250000000  0.4808970000000 1.0
C      1  0.5638050000000  0.5074710000000  0.5191120000000 1.0
C      1  0.5191060000000  0.4361930000000  0.4925300000000 1.0
C      1  0.4808890000000  0.4361950000000  0.5074720000000 1.0
C      1  0.4808950000000  0.5638070000000  0.4925250000000 1.0
C      1  0.5074100000000  0.5611060000000  0.5149660000000 1.0
C      1  0.5149620000000  0.5074090000000  0.5611070000000 1.0
C      1  0.5611060000000  0.5149650000000  0.5074130000000 1.0
C      1  0.5074080000000  0.4388940000000  0.4850350000000 1.0
C      1  0.4925880000000  0.4388950000000  0.5149670000000 1.0
C      1  0.4925940000000  0.5611060000000  0.4850320000000 1.0
C      1  0.5149700000000  0.4925900000000  0.4388950000000 1.0
C      1  0.4850290000000  0.4925930000000  0.5611050000000 1.0
C      1  0.4850380000000  0.5074080000000  0.4388930000000 1.0
C      1  0.5611060000000  0.4850310000000  0.4925960000000 1.0
C      1  0.4388930000000  0.4850360000000  0.5074050000000 1.0
C      1  0.4388950000000  0.5149680000000  0.4925870000000 1.0
C      1  0.4925920000000  0.5611060000000  0.5149650000000 1.0
C      1  0.4850300000000  0.5074100000000  0.5611050000000 1.0
C      1  0.4388940000000  0.5149690000000  0.5074040000000 1.0
C      1  0.4925900000000  0.4388940000000  0.4850340000000 1.0
C      1  0.5074060000000  0.4388940000000  0.5149680000000 1.0
C      1  0.5074120000000  0.5611050000000  0.4850330000000 1.0
C      1  0.4850380000000  0.4925910000000  0.4388930000000 1.0
C      1  0.5149620000000  0.4925920000000  0.5611070000000 1.0
C      1  0.5149710000000  0.5074070000000  0.4388950000000 1.0
C      1  0.4388940000000  0.4850350000000  0.4925870000000 1.0
C      1  0.5611050000000  0.4850320000000  0.5074130000000 1.0
C      1  0.5611070000000  0.5149640000000  0.4925950000000 1.0
C      1  0.4365590000000  0.5150960000000  0.4681750000000 1.0
C      1  0.4681760000000  0.4365570000000  0.5150930000000 1.0
C      1  0.5150980000000  0.4681780000000  0.4365570000000 1.0
C      1  0.4365530000000  0.4849080000000  0.5318160000000 1.0
C      1  0.5634460000000  0.4849030000000  0.4681840000000 1.0
C      1  0.5634420000000  0.5150930000000  0.5318250000000 1.0
C      1  0.4681830000000  0.5634450000000  0.4849020000000 1.0
C      1  0.5318220000000  0.5634430000000  0.5150960000000 1.0
C      1  0.5318190000000  0.4365550000000  0.4849090000000 1.0
C      1  0.5150910000000  0.5318210000000  0.5634450000000 1.0
C      1  0.4849110000000  0.5318200000000  0.4365540000000 1.0
C      1  0.4849000000000  0.4681810000000  0.5634440000000 1.0
C      1  0.5634470000000  0.5150920000000  0.4681840000000 1.0
C      1  0.5318170000000  0.4365550000000  0.5150980000000 1.0
C      1  0.4849090000000  0.4681790000000  0.4365550000000 1.0
C      1  0.5634410000000  0.4849040000000  0.5318250000000 1.0
C      1  0.4365580000000  0.4849070000000  0.4681750000000 1.0
C      1  0.4365540000000  0.5150970000000  0.5318160000000 1.0
C      1  0.5318240000000  0.5634430000000  0.4849070000000 1.0
C      1  0.4681810000000  0.5634450000000  0.5150910000000 1.0
C      1  0.4681780000000  0.4365570000000  0.4849040000000 1.0
C      1  0.4849020000000  0.5318220000000  0.5634430000000 1.0
C      1  0.5151000000000  0.5318190000000  0.4365560000000 1.0
C      1  0.5150890000000  0.4681800000000  0.5634460000000 1.0
C      1  0.5227520000000  0.5339580000000  0.4703870000000 1.0
C      1  0.4703850000000  0.5227500000000  0.5339570000000 1.0
C      1  0.5339560000000  0.4703860000000  0.5227510000000 1.0
C      1  0.5227450000000  0.4660410000000  0.5296160000000 1.0
C      1  0.4772520000000  0.4660410000000  0.4703850000000 1.0
C      1  0.4772510000000  0.5339600000000  0.5296110000000 1.0
C      1  0.4703880000000  0.4772520000000  0.4660390000000 1.0
C      1  0.5296100000000  0.4772510000000  0.5339610000000 1.0
C      1  0.5296170000000  0.5227470000000  0.4660430000000 1.0
C      1  0.5339620000000  0.5296120000000  0.4772530000000 1.0
C      1  0.4660400000000  0.5296150000000  0.5227460000000 1.0
C      1  0.4660420000000  0.4703870000000  0.4772500000000 1.0
C      1  0.4772550000000  0.5339590000000  0.4703840000000 1.0
C      1  0.5296120000000  0.5227480000000  0.5339610000000 1.0
C      1  0.4660380000000  0.4703880000000  0.5227470000000 1.0
C      1  0.4772480000000  0.4660420000000  0.5296130000000 1.0
C      1  0.5227490000000  0.4660400000000  0.4703890000000 1.0
C      1  0.5227480000000  0.5339590000000  0.5296150000000 1.0
C      1  0.5296150000000  0.4772500000000  0.4660430000000 1.0
C      1  0.4703830000000  0.4772530000000  0.5339570000000 1.0
C      1  0.4703900000000  0.5227490000000  0.4660390000000 1.0
C      1  0.4660440000000  0.5296140000000  0.4772490000000 1.0
C      1  0.5339580000000  0.5296130000000  0.5227500000000 1.0
C      1  0.5339600000000  0.4703850000000  0.4772540000000 1.0
C      1  0.5451420000000  0.5350720000000  0.4846930000000 1.0
C      1  0.4846900000000  0.5451410000000  0.5350720000000 1.0
C      1  0.5350700000000  0.4846900000000  0.5451430000000 1.0
C      1  0.5451380000000  0.4649250000000  0.5153130000000 1.0
C      1  0.4548600000000  0.4649280000000  0.4846880000000 1.0
C      1  0.4548600000000  0.5350750000000  0.5153060000000 1.0
C      1  0.4846920000000  0.4548600000000  0.4649260000000 1.0
C      1  0.5153050000000  0.4548600000000  0.5350750000000 1.0
C      1  0.5153130000000  0.5451390000000  0.4649270000000 1.0
C      1  0.5350770000000  0.5153070000000  0.4548620000000 1.0
C      1  0.4649240000000  0.5153110000000  0.5451370000000 1.0
C      1  0.4649290000000  0.4846910000000  0.4548580000000 1.0
C      1  0.4548620000000  0.5350750000000  0.4846870000000 1.0
C      1  0.5153080000000  0.5451400000000  0.5350740000000 1.0
C      1  0.4649230000000  0.4846930000000  0.5451380000000 1.0
C      1  0.4548580000000  0.4649280000000  0.5153070000000 1.0
C      1  0.5451400000000  0.4649250000000  0.4846940000000 1.0
C      1  0.5451400000000  0.5350720000000  0.5153120000000 1.0
C      1  0.5153100000000  0.4548590000000  0.4649280000000 1.0
C      1  0.4846870000000  0.4548610000000  0.5350730000000 1.0
C      1  0.4846950000000  0.5451400000000  0.4649250000000 1.0
C      1  0.4649300000000  0.5153100000000  0.4548570000000 1.0
C      1  0.5350710000000  0.5153090000000  0.5451420000000 1.0
C      1  0.5350760000000  0.4846890000000  0.4548630000000 1.0
C      1  0.5277680000000  0.4927630000000  0.5538140000000 1.0
C      1  0.5538130000000  0.5277700000000  0.4927660000000 1.0
C      1  0.4927630000000  0.5538130000000  0.5277700000000 1.0
C      1  0.5277760000000  0.5072350000000  0.4461900000000 1.0
C      1  0.4722250000000  0.5072390000000  0.5538100000000 1.0
C      1  0.4722320000000  0.4927630000000  0.4461860000000 1.0
C      1  0.5538110000000  0.4722260000000  0.5072410000000 1.0
C      1  0.4461880000000  0.4722300000000  0.4927590000000 1.0
C      1  0.4461880000000  0.5277740000000  0.5072330000000 1.0
C      1  0.4927630000000  0.4461880000000  0.4722280000000 1.0
C      1  0.5072330000000  0.4461880000000  0.5277730000000 1.0
C      1  0.5072410000000  0.5538110000000  0.4722280000000 1.0
C      1  0.4722240000000  0.4927650000000  0.5538100000000 1.0
C      1  0.4461890000000  0.5277740000000  0.4927590000000 1.0
C      1  0.5072370000000  0.5538120000000  0.5277720000000 1.0
C      1  0.4722320000000  0.5072370000000  0.4461860000000 1.0
C      1  0.5277680000000  0.5072370000000  0.5538140000000 1.0
C      1  0.5277750000000  0.4927610000000  0.4461900000000 1.0
C      1  0.4461870000000  0.4722300000000  0.5072340000000 1.0
C      1  0.5538120000000  0.4722260000000  0.4927670000000 1.0
C      1  0.5538120000000  0.5277700000000  0.5072410000000 1.0
C      1  0.5072370000000  0.4461870000000  0.4722300000000 1.0
C      1  0.4927590000000  0.4461890000000  0.5277720000000 1.0
C      1  0.4927670000000  0.5538120000000  0.4722270000000 1.0
END
