TITL C-102688-8074-111 -199.903431496588 1000000 -1697.00063765034 0 0 240 (C1) n - 1
REM
REM in /home/chem/mssmkc/work/GAP20/Larger-Clusters/Only-C240-new-series
REM
REM
REM
REM
REM
REM ./C.cell (0485df7495ed2a90f93db84a705cd676)
REM
REM compiler GCC version 8.3.0
REM options -cpp -mtune=generic -march=x86-64 -g -O0
REM seed 1678444769 -2008902888 -1524988999 81839270 -1943410590 1645776367 1978721911 1860600886 33083719 -2103770491 1440537151 871649323 -907663134 1279909828 -758168041 1514447637 1932023189 -1840214891 989655217 -1875752208 -619340277 1684776664 1467409975 637782137 -1854946667 -951483744 88481858 -57426761 -358438011 -1718102294 1684219421 2020292306 194646338
REM
CELL 1.54180  100.00000  100.00000  100.00000   90.00000   90.00000   90.00000
LATT -1
SFAC C  
C      1  0.4897330000000  0.5595290000000  0.4367390000000 1.0
C      1  0.4349690000000  0.4967520000000  0.5569410000000 1.0
C      1  0.5603200000000  0.4390160000000  0.4926820000000 1.0
C      1  0.4899610000000  0.4410630000000  0.5653960000000 1.0
C      1  0.5070780000000  0.4410930000000  0.4364020000000 1.0
C      1  0.5073400000000  0.5582790000000  0.5614750000000 1.0
C      1  0.4338200000000  0.5078540000000  0.4416680000000 1.0
C      1  0.5624110000000  0.5044860000000  0.5583890000000 1.0
C      1  0.5632830000000  0.4974730000000  0.4398060000000 1.0
C      1  0.5607340000000  0.5660580000000  0.5041200000000 1.0
C      1  0.4405060000000  0.5650400000000  0.4970210000000 1.0
C      1  0.4412890000000  0.4390010000000  0.5061520000000 1.0
C      1  0.5024890000000  0.5596260000000  0.4356460000000 1.0
C      1  0.5610670000000  0.4918420000000  0.5592840000000 1.0
C      1  0.4414110000000  0.4392330000000  0.4934280000000 1.0
C      1  0.5026840000000  0.4392790000000  0.5652590000000 1.0
C      1  0.4943570000000  0.4407270000000  0.4365020000000 1.0
C      1  0.4946950000000  0.5572820000000  0.5627420000000 1.0
C      1  0.5622360000000  0.5102360000000  0.4397960000000 1.0
C      1  0.4330600000000  0.5088550000000  0.5607350000000 1.0
C      1  0.4342270000000  0.4950670000000  0.4404460000000 1.0
C      1  0.4409600000000  0.5643780000000  0.5098050000000 1.0
C      1  0.5591640000000  0.5665040000000  0.4913730000000 1.0
C      1  0.5591630000000  0.4375870000000  0.5053010000000 1.0
C      1  0.4374740000000  0.4827160000000  0.5071660000000 1.0
C      1  0.5080530000000  0.4317610000000  0.4822260000000 1.0
C      1  0.4805980000000  0.5057480000000  0.4350780000000 1.0
C      1  0.4377990000000  0.5194800000000  0.4930890000000 1.0
C      1  0.5645630000000  0.5195590000000  0.5077120000000 1.0
C      1  0.5648260000000  0.4827780000000  0.4919260000000 1.0
C      1  0.5088490000000  0.5641300000000  0.5176630000000 1.0
C      1  0.4927550000000  0.5632720000000  0.4809180000000 1.0
C      1  0.4937410000000  0.4333110000000  0.5194310000000 1.0
C      1  0.4801890000000  0.4924100000000  0.5612250000000 1.0
C      1  0.5180540000000  0.4926860000000  0.4386270000000 1.0
C      1  0.5171040000000  0.5054030000000  0.5649490000000 1.0
C      1  0.5657540000000  0.4826810000000  0.5063370000000 1.0
C      1  0.4936970000000  0.4315950000000  0.4821190000000 1.0
C      1  0.5180250000000  0.5072100000000  0.4378690000000 1.0
C      1  0.5662950000000  0.5200200000000  0.4934150000000 1.0
C      1  0.4373970000000  0.5197220000000  0.5075530000000 1.0
C      1  0.4378700000000  0.4827740000000  0.4927760000000 1.0
C      1  0.4945310000000  0.5654860000000  0.5177990000000 1.0
C      1  0.5073340000000  0.5629450000000  0.4809230000000 1.0
C      1  0.5080950000000  0.4348340000000  0.5192520000000 1.0
C      1  0.5169860000000  0.4910490000000  0.5638700000000 1.0
C      1  0.4811210000000  0.4915290000000  0.4370900000000 1.0
C      1  0.4804340000000  0.5066770000000  0.5611970000000 1.0
C      1  0.4544250000000  0.4648140000000  0.5306560000000 1.0
C      1  0.5287380000000  0.4504140000000  0.4629570000000 1.0
C      1  0.4609260000000  0.5286890000000  0.4500060000000 1.0
C      1  0.4582090000000  0.5348790000000  0.4622970000000 1.0
C      1  0.5409290000000  0.5337550000000  0.5370530000000 1.0
C      1  0.5451320000000  0.4659090000000  0.4690550000000 1.0
C      1  0.5317420000000  0.5446070000000  0.5345470000000 1.0
C      1  0.4678020000000  0.5452810000000  0.4649310000000 1.0
C      1  0.4707530000000  0.4505920000000  0.5374760000000 1.0
C      1  0.4645670000000  0.4627220000000  0.5404590000000 1.0
C      1  0.5344350000000  0.4628380000000  0.4598950000000 1.0
C      1  0.5371620000000  0.5270790000000  0.5487080000000 1.0
C      1  0.5486430000000  0.4627040000000  0.5275500000000 1.0
C      1  0.4724110000000  0.4499530000000  0.4631860000000 1.0
C      1  0.5346960000000  0.5323200000000  0.4549000000000 1.0
C      1  0.5501180000000  0.5393730000000  0.4709290000000 1.0
C      1  0.4546140000000  0.5363400000000  0.5319810000000 1.0
C      1  0.4560820000000  0.4651770000000  0.4694990000000 1.0
C      1  0.4727200000000  0.5490020000000  0.5375010000000 1.0
C      1  0.5376600000000  0.5420340000000  0.4650720000000 1.0
C      1  0.5369210000000  0.4588630000000  0.5340480000000 1.0
C      1  0.5342110000000  0.4680220000000  0.5448680000000 1.0
C      1  0.4663920000000  0.4621350000000  0.4599150000000 1.0
C      1  0.4657240000000  0.5374380000000  0.5409550000000 1.0
C      1  0.5393450000000  0.5132190000000  0.5521530000000 1.0
C      1  0.5560380000000  0.5420410000000  0.5111320000000 1.0
C      1  0.5178740000000  0.5485030000000  0.5388490000000 1.0
C      1  0.5406670000000  0.4900240000000  0.4463960000000 1.0
C      1  0.4575600000000  0.4927500000000  0.5530860000000 1.0
C      1  0.4577940000000  0.5152560000000  0.4461260000000 1.0
C      1  0.5494930000000  0.4614270000000  0.4826730000000 1.0
C      1  0.4519180000000  0.4612500000000  0.5162200000000 1.0
C      1  0.4458700000000  0.5418830000000  0.4898150000000 1.0
C      1  0.5154200000000  0.4456930000000  0.4601090000000 1.0
C      1  0.4837620000000  0.4460690000000  0.5412250000000 1.0
C      1  0.4812640000000  0.5490710000000  0.4598970000000 1.0
C      1  0.4576540000000  0.5075280000000  0.5535260000000 1.0
C      1  0.4512080000000  0.5411650000000  0.5182670000000 1.0
C      1  0.4867460000000  0.5517140000000  0.5393410000000 1.0
C      1  0.4583660000000  0.4882870000000  0.4449550000000 1.0
C      1  0.5384980000000  0.4818670000000  0.5488650000000 1.0
C      1  0.5395560000000  0.5187810000000  0.4511750000000 1.0
C      1  0.4526290000000  0.4613010000000  0.4835930000000 1.0
C      1  0.5523510000000  0.4605810000000  0.5137560000000 1.0
C      1  0.5543720000000  0.5425460000000  0.4842390000000 1.0
C      1  0.4856690000000  0.4453070000000  0.4600890000000 1.0
C      1  0.5106050000000  0.4439810000000  0.5416010000000 1.0
C      1  0.5100000000000  0.5543780000000  0.4586270000000 1.0
C      1  0.5693540000000  0.4940330000000  0.4847860000000 1.0
C      1  0.4857650000000  0.5687190000000  0.4921250000000 1.0
C      1  0.4907650000000  0.4851210000000  0.5669980000000 1.0
C      1  0.5686890000000  0.5084650000000  0.5146890000000 1.0
C      1  0.4329910000000  0.5085640000000  0.4860880000000 1.0
C      1  0.4327700000000  0.4937930000000  0.5147400000000 1.0
C      1  0.4860230000000  0.4289470000000  0.5080860000000 1.0
C      1  0.5158130000000  0.4289970000000  0.4937210000000 1.0
C      1  0.5158990000000  0.5684360000000  0.5063270000000 1.0
C      1  0.4921340000000  0.5134390000000  0.4312070000000 1.0
C      1  0.5058490000000  0.5132040000000  0.5686650000000 1.0
C      1  0.5073820000000  0.4852250000000  0.4340330000000 1.0
C      1  0.4328680000000  0.4937680000000  0.4855070000000 1.0
C      1  0.5147560000000  0.5679380000000  0.4915460000000 1.0
C      1  0.5054580000000  0.4840720000000  0.5678660000000 1.0
C      1  0.4329640000000  0.5083510000000  0.5150330000000 1.0
C      1  0.5702710000000  0.5086360000000  0.4854550000000 1.0
C      1  0.5696510000000  0.4937210000000  0.5144110000000 1.0
C      1  0.5154680000000  0.4304650000000  0.5084590000000 1.0
C      1  0.4860140000000  0.4284920000000  0.4935560000000 1.0
C      1  0.4867180000000  0.5698550000000  0.5067080000000 1.0
C      1  0.5066990000000  0.5141190000000  0.4324880000000 1.0
C      1  0.4912130000000  0.5134220000000  0.5670400000000 1.0
C      1  0.4924830000000  0.4846900000000  0.4335730000000 1.0
C      1  0.4650090000000  0.4404990000000  0.4861850000000 1.0
C      1  0.4854730000000  0.4634600000000  0.4446790000000 1.0
C      1  0.4416690000000  0.4867050000000  0.4632050000000 1.0
C      1  0.4649250000000  0.5612220000000  0.5158910000000 1.0
C      1  0.5363670000000  0.5579300000000  0.4835550000000 1.0
C      1  0.5359060000000  0.4437700000000  0.5147450000000 1.0
C      1  0.4851860000000  0.5344310000000  0.5552590000000 1.0
C      1  0.5122030000000  0.5370350000000  0.4415740000000 1.0
C      1  0.5122320000000  0.4618740000000  0.5587260000000 1.0
C      1  0.4390890000000  0.5166210000000  0.5385870000000 1.0
C      1  0.5605250000000  0.5168660000000  0.4638010000000 1.0
C      1  0.5588040000000  0.4852130000000  0.5354910000000 1.0
C      1  0.5365620000000  0.4405920000000  0.4856170000000 1.0
C      1  0.5150960000000  0.4639900000000  0.4449700000000 1.0
C      1  0.5586640000000  0.4880260000000  0.4628340000000 1.0
C      1  0.5380490000000  0.5590810000000  0.5130280000000 1.0
C      1  0.4629790000000  0.5591600000000  0.4870810000000 1.0
C      1  0.4645890000000  0.4409040000000  0.5142850000000 1.0
C      1  0.5144440000000  0.5346430000000  0.5588020000000 1.0
C      1  0.4835470000000  0.5355050000000  0.4395440000000 1.0
C      1  0.4825670000000  0.4640950000000  0.5566940000000 1.0
C      1  0.5558950000000  0.5143440000000  0.5354750000000 1.0
C      1  0.4425220000000  0.5161930000000  0.4642010000000 1.0
C      1  0.4389100000000  0.4844270000000  0.5376070000000 1.0
C      1  0.5683960000000  0.4946900000000  0.4702840000000 1.0
C      1  0.4712310000000  0.5685350000000  0.4932840000000 1.0
C      1  0.4899730000000  0.4707390000000  0.5663780000000 1.0
C      1  0.5663720000000  0.5078900000000  0.5290400000000 1.0
C      1  0.4333280000000  0.5088230000000  0.4715660000000 1.0
C      1  0.4321730000000  0.4936150000000  0.5294080000000 1.0
C      1  0.4714840000000  0.4308850000000  0.5076550000000 1.0
C      1  0.5300500000000  0.4316360000000  0.4940300000000 1.0
C      1  0.5302190000000  0.5677510000000  0.5053120000000 1.0
C      1  0.4916970000000  0.5280320000000  0.4311330000000 1.0
C      1  0.5058940000000  0.5276730000000  0.5672640000000 1.0
C      1  0.5074950000000  0.4708350000000  0.4355870000000 1.0
C      1  0.4331040000000  0.4944220000000  0.4711190000000 1.0
C      1  0.5292900000000  0.5673220000000  0.4909260000000 1.0
C      1  0.5043950000000  0.4697140000000  0.5672290000000 1.0
C      1  0.4325220000000  0.5079400000000  0.5297670000000 1.0
C      1  0.5694280000000  0.5089130000000  0.4708860000000 1.0
C      1  0.5676130000000  0.4936340000000  0.5287870000000 1.0
C      1  0.5297820000000  0.4331460000000  0.5082650000000 1.0
C      1  0.4715040000000  0.4306290000000  0.4934970000000 1.0
C      1  0.4721430000000  0.5697310000000  0.5074980000000 1.0
C      1  0.5058930000000  0.5286970000000  0.4323730000000 1.0
C      1  0.4916260000000  0.5277690000000  0.5655510000000 1.0
C      1  0.4930810000000  0.4703960000000  0.4353260000000 1.0
C      1  0.4428880000000  0.4727810000000  0.5154840000000 1.0
C      1  0.5158400000000  0.4370330000000  0.4717150000000 1.0
C      1  0.4698280000000  0.5143220000000  0.4382760000000 1.0
C      1  0.4438030000000  0.5301700000000  0.4843190000000 1.0
C      1  0.5574740000000  0.5299760000000  0.5162280000000 1.0
C      1  0.5581140000000  0.4733930000000  0.4835540000000 1.0
C      1  0.5171440000000  0.5575080000000  0.5271700000000 1.0
C      1  0.4832970000000  0.5574300000000  0.4718490000000 1.0
C      1  0.4848490000000  0.4379810000000  0.5294040000000 1.0
C      1  0.4693220000000  0.4849030000000  0.5548730000000 1.0
C      1  0.5289880000000  0.4842930000000  0.4448830000000 1.0
C      1  0.5276710000000  0.5134110000000  0.5605500000000 1.0
C      1  0.5608640000000  0.4721730000000  0.5141580000000 1.0
C      1  0.4856320000000  0.4369100000000  0.4718710000000 1.0
C      1  0.5273260000000  0.5166820000000  0.4432500000000 1.0
C      1  0.5624530000000  0.5306640000000  0.4849260000000 1.0
C      1  0.4424040000000  0.5295380000000  0.5166480000000 1.0
C      1  0.4440150000000  0.4731810000000  0.4843790000000 1.0
C      1  0.4865860000000  0.5608600000000  0.5282630000000 1.0
C      1  0.5158270000000  0.5566270000000  0.4701450000000 1.0
C      1  0.5162060000000  0.4422430000000  0.5298000000000 1.0
C      1  0.5266200000000  0.4826560000000  0.5575760000000 1.0
C      1  0.4704240000000  0.4830920000000  0.4436970000000 1.0
C      1  0.4699110000000  0.5148390000000  0.5549650000000 1.0
C      1  0.5092710000000  0.5452900000000  0.5501990000000 1.0
C      1  0.5496910000000  0.5060180000000  0.5461180000000 1.0
C      1  0.5499670000000  0.5535440000000  0.5064810000000 1.0
C      1  0.5081390000000  0.4519600000000  0.4498010000000 1.0
C      1  0.4897430000000  0.4518010000000  0.5524890000000 1.0
C      1  0.4886610000000  0.5463880000000  0.4478490000000 1.0
C      1  0.5518480000000  0.4955500000000  0.4520730000000 1.0
C      1  0.4438450000000  0.4879150000000  0.5505860000000 1.0
C      1  0.4468260000000  0.5089000000000  0.4520830000000 1.0
C      1  0.5466970000000  0.4497410000000  0.4909280000000 1.0
C      1  0.4552230000000  0.4500710000000  0.5078350000000 1.0
C      1  0.4520700000000  0.5529950000000  0.4949220000000 1.0
C      1  0.4936370000000  0.5452300000000  0.5495560000000 1.0
C      1  0.4440500000000  0.5130250000000  0.5516190000000 1.0
C      1  0.4538900000000  0.5531190000000  0.5107830000000 1.0
C      1  0.4927670000000  0.4516790000000  0.4497010000000 1.0
C      1  0.5056310000000  0.4501190000000  0.5529320000000 1.0
C      1  0.5045370000000  0.5480380000000  0.4477610000000 1.0
C      1  0.4469250000000  0.4930210000000  0.4510540000000 1.0
C      1  0.5500100000000  0.4903540000000  0.5459840000000 1.0
C      1  0.5517360000000  0.5114760000000  0.4534550000000 1.0
C      1  0.4554050000000  0.4499320000000  0.4920980000000 1.0
C      1  0.5466210000000  0.4500550000000  0.5065510000000 1.0
C      1  0.5485890000000  0.5535680000000  0.4906540000000 1.0
C      1  0.5576690000000  0.4737410000000  0.5283120000000 1.0
C      1  0.5299970000000  0.5522380000000  0.4724630000000 1.0
C      1  0.4728770000000  0.5287860000000  0.5506580000000 1.0
C      1  0.5591570000000  0.5283180000000  0.4708180000000 1.0
C      1  0.4444860000000  0.5263300000000  0.5306330000000 1.0
C      1  0.4466600000000  0.4761500000000  0.4703980000000 1.0
C      1  0.5297560000000  0.4482230000000  0.5266640000000 1.0
C      1  0.4718070000000  0.4411380000000  0.4744490000000 1.0
C      1  0.4722660000000  0.5587060000000  0.5269990000000 1.0
C      1  0.4736090000000  0.4695070000000  0.4493430000000 1.0
C      1  0.5232510000000  0.4688420000000  0.5543210000000 1.0
C      1  0.5233090000000  0.5304970000000  0.4460610000000 1.0
C      1  0.4443750000000  0.4748250000000  0.5296180000000 1.0
C      1  0.4695370000000  0.5545030000000  0.4760320000000 1.0
C      1  0.5260350000000  0.5276200000000  0.5576430000000 1.0
C      1  0.4481310000000  0.5275340000000  0.4702060000000 1.0
C      1  0.5514910000000  0.5264550000000  0.5296740000000 1.0
C      1  0.5544200000000  0.4770470000000  0.4698810000000 1.0
C      1  0.4709550000000  0.4417950000000  0.5262080000000 1.0
C      1  0.5296770000000  0.4412720000000  0.4739120000000 1.0
C      1  0.5309670000000  0.5543440000000  0.5238120000000 1.0
C      1  0.5266860000000  0.4703290000000  0.4498250000000 1.0
C      1  0.4714350000000  0.4707450000000  0.5508960000000 1.0
C      1  0.4721080000000  0.5285190000000  0.4411030000000 1.0
END
