TITL C240-690998 35.6920543101086 1000000 -1616.94645058687 0 0 240 (C1) n - 1
REM
REM in /home/chem/mssmkc/work/CARBON/AIRSS/Generating-Clusters/Str-Search/GAP20/LAMMPS-RUNS
REM
REM
REM
REM
REM
REM C240.cell (b63ef37eb3d523ea5c481c74a93ce539)
REM
REM
REM
REM
REM
CELL 1.54180  100.00000  100.00000  100.00000   90.00000   90.00000   90.00000
LATT -1
SFAC C  
C      1  0.5414540000000  0.4805410000000  0.5569110000000 1.0
C      1  0.5194430000000  0.5572490000000  0.5519860000000 1.0
C      1  0.5368690000000  0.5665230000000  0.4624030000000 1.0
C      1  0.4300890000000  0.4538550000000  0.5164200000000 1.0
C      1  0.5357620000000  0.4663560000000  0.4374820000000 1.0
C      1  0.5441910000000  0.5156860000000  0.5690340000000 1.0
C      1  0.4717590000000  0.5343010000000  0.5663990000000 1.0
C      1  0.4643100000000  0.5659530000000  0.4611170000000 1.0
C      1  0.4333140000000  0.5485640000000  0.4711330000000 1.0
C      1  0.5322640000000  0.4752370000000  0.5748600000000 1.0
C      1  0.5474920000000  0.4743200000000  0.4429810000000 1.0
C      1  0.4255050000000  0.4660050000000  0.5241910000000 1.0
C      1  0.5714740000000  0.5541170000000  0.4684590000000 1.0
C      1  0.5718150000000  0.4597250000000  0.4653510000000 1.0
C      1  0.4511320000000  0.5176990000000  0.5561120000000 1.0
C      1  0.4425450000000  0.4594800000000  0.4822380000000 1.0
C      1  0.4286850000000  0.5358050000000  0.4633170000000 1.0
C      1  0.5292380000000  0.5610780000000  0.4504280000000 1.0
C      1  0.4703330000000  0.4730250000000  0.5611810000000 1.0
C      1  0.4813220000000  0.4426020000000  0.5427040000000 1.0
C      1  0.4386340000000  0.5307300000000  0.5284720000000 1.0
C      1  0.4840000000000  0.4508370000000  0.4623350000000 1.0
C      1  0.4736530000000  0.4379200000000  0.5295390000000 1.0
C      1  0.4830580000000  0.5697220000000  0.5466250000000 1.0
C      1  0.4570310000000  0.4805290000000  0.5565810000000 1.0
C      1  0.4239520000000  0.4663070000000  0.4760490000000 1.0
C      1  0.5939470000000  0.5061830000000  0.5061630000000 1.0
C      1  0.5747130000000  0.5334560000000  0.5240060000000 1.0
C      1  0.4763640000000  0.4460490000000  0.4748850000000 1.0
C      1  0.5698740000000  0.5455460000000  0.5162110000000 1.0
C      1  0.4588390000000  0.5337420000000  0.4275810000000 1.0
C      1  0.4544790000000  0.4824580000000  0.5698520000000 1.0
C      1  0.5285850000000  0.4724500000000  0.5620280000000 1.0
C      1  0.4928330000000  0.4050210000000  0.5072300000000 1.0
C      1  0.5665410000000  0.4549960000000  0.5157470000000 1.0
C      1  0.4298470000000  0.4548430000000  0.4839540000000 1.0
C      1  0.5315470000000  0.4308960000000  0.4470050000000 1.0
C      1  0.5249790000000  0.4380160000000  0.5299280000000 1.0
C      1  0.4758800000000  0.4248910000000  0.5331660000000 1.0
C      1  0.5055710000000  0.4923880000000  0.5908900000000 1.0
C      1  0.5502620000000  0.5270950000000  0.4379700000000 1.0
C      1  0.5708010000000  0.4675640000000  0.5231430000000 1.0
C      1  0.4649180000000  0.4768060000000  0.4264910000000 1.0
C      1  0.4092110000000  0.5035790000000  0.4914900000000 1.0
C      1  0.4547870000000  0.4830690000000  0.4433580000000 1.0
C      1  0.4758060000000  0.5740890000000  0.5343070000000 1.0
C      1  0.4928770000000  0.5077800000000  0.5953640000000 1.0
C      1  0.5333850000000  0.5658250000000  0.5288930000000 1.0
C      1  0.5277450000000  0.5336770000000  0.5662660000000 1.0
C      1  0.4720370000000  0.5612710000000  0.4488520000000 1.0
C      1  0.4669140000000  0.5660420000000  0.5284290000000 1.0
C      1  0.5247940000000  0.5740330000000  0.5349710000000 1.0
C      1  0.5780010000000  0.4487790000000  0.4808040000000 1.0
C      1  0.5083900000000  0.5846490000000  0.5068740000000 1.0
C      1  0.4225770000000  0.5471940000000  0.4791800000000 1.0
C      1  0.4298520000000  0.5448950000000  0.5162030000000 1.0
C      1  0.5290490000000  0.5271930000000  0.4370030000000 1.0
C      1  0.5827290000000  0.4612020000000  0.4732490000000 1.0
C      1  0.4752390000000  0.5649710000000  0.4689810000000 1.0
C      1  0.4928380000000  0.4925200000000  0.5954440000000 1.0
C      1  0.5171900000000  0.5695350000000  0.5469990000000 1.0
C      1  0.4670350000000  0.4752690000000  0.5742980000000 1.0
C      1  0.4103870000000  0.5037380000000  0.5070440000000 1.0
C      1  0.4985050000000  0.5086130000000  0.4258010000000 1.0
C      1  0.4934190000000  0.5846350000000  0.5066800000000 1.0
C      1  0.4935580000000  0.4116270000000  0.4954490000000 1.0
C      1  0.5090850000000  0.4105880000000  0.4952340000000 1.0
C      1  0.5279540000000  0.4230620000000  0.4657160000000 1.0
C      1  0.5492640000000  0.5176720000000  0.5568580000000 1.0
C      1  0.5200380000000  0.4290530000000  0.4538000000000 1.0
C      1  0.4833540000000  0.5598150000000  0.4560970000000 1.0
C      1  0.5055930000000  0.5080320000000  0.5907480000000 1.0
C      1  0.4835010000000  0.4294170000000  0.5454380000000 1.0
C      1  0.5160300000000  0.4291010000000  0.5460420000000 1.0
C      1  0.4182160000000  0.5344780000000  0.4718230000000 1.0
C      1  0.5324930000000  0.5239340000000  0.5741030000000 1.0
C      1  0.5729590000000  0.5472330000000  0.4799950000000 1.0
C      1  0.4461440000000  0.5258680000000  0.4323640000000 1.0
C      1  0.5533140000000  0.4587420000000  0.5168760000000 1.0
C      1  0.4804710000000  0.5575970000000  0.5517920000000 1.0
C      1  0.5299200000000  0.5694970000000  0.4734350000000 1.0
C      1  0.4911150000000  0.5077180000000  0.4143590000000 1.0
C      1  0.4594140000000  0.5261170000000  0.4164050000000 1.0
C      1  0.5573970000000  0.5444590000000  0.5212870000000 1.0
C      1  0.5577500000000  0.4714700000000  0.5247440000000 1.0
C      1  0.4426590000000  0.5442220000000  0.5206910000000 1.0
C      1  0.5888960000000  0.4936670000000  0.5065020000000 1.0
C      1  0.4910780000000  0.4926160000000  0.4154900000000 1.0
C      1  0.4868140000000  0.5782060000000  0.4970300000000 1.0
C      1  0.5174740000000  0.4423500000000  0.5433670000000 1.0
C      1  0.5780720000000  0.5347550000000  0.4721190000000 1.0
C      1  0.4044070000000  0.4916150000000  0.5078600000000 1.0
C      1  0.5394700000000  0.4255560000000  0.4589430000000 1.0
C      1  0.5676380000000  0.4466540000000  0.4723850000000 1.0
C      1  0.4671080000000  0.5243280000000  0.5739840000000 1.0
C      1  0.4777520000000  0.4329450000000  0.4707180000000 1.0
C      1  0.4983590000000  0.4927410000000  0.4270100000000 1.0
C      1  0.5267590000000  0.4747180000000  0.4438360000000 1.0
C      1  0.4432990000000  0.4565840000000  0.5183720000000 1.0
C      1  0.5236850000000  0.4249110000000  0.5336880000000 1.0
C      1  0.5080000000000  0.4046140000000  0.5073450000000 1.0
C      1  0.5150810000000  0.5784700000000  0.4969900000000 1.0
C      1  0.4471560000000  0.5184620000000  0.4210610000000 1.0
C      1  0.5900410000000  0.4931330000000  0.4910510000000 1.0
C      1  0.5446470000000  0.4825190000000  0.5700410000000 1.0
C      1  0.4686880000000  0.4759450000000  0.4395630000000 1.0
C      1  0.4034780000000  0.4913330000000  0.4926860000000 1.0
C      1  0.5408450000000  0.5193770000000  0.4442420000000 1.0
C      1  0.4260630000000  0.5322230000000  0.5236560000000 1.0
C      1  0.4557720000000  0.5158440000000  0.5684680000000 1.0
C      1  0.5389420000000  0.5350870000000  0.4319400000000 1.0
C      1  0.5942000000000  0.5060470000000  0.4908040000000 1.0
C      1  0.4519790000000  0.4838030000000  0.4300320000000 1.0
C      1  0.5623340000000  0.5313560000000  0.5292000000000 1.0
C      1  0.4385870000000  0.4696630000000  0.5261080000000 1.0
C      1  0.5759110000000  0.5417420000000  0.4606960000000 1.0
C      1  0.5160960000000  0.5589000000000  0.4510630000000 1.0
C      1  0.4853590000000  0.4376740000000  0.4583530000000 1.0
C      1  0.4363240000000  0.4714540000000  0.4735280000000 1.0
C      1  0.5387400000000  0.4827870000000  0.4494440000000 1.0
C      1  0.4933320000000  0.5797540000000  0.5440770000000 1.0
C      1  0.4190290000000  0.5410210000000  0.4915330000000 1.0
C      1  0.4530500000000  0.5454380000000  0.5300180000000 1.0
C      1  0.5286320000000  0.4657550000000  0.5497550000000 1.0
C      1  0.4603920000000  0.5541300000000  0.4446350000000 1.0
C      1  0.5493390000000  0.5625000000000  0.4558410000000 1.0
C      1  0.5244110000000  0.4544770000000  0.5426670000000 1.0
C      1  0.5471260000000  0.5452870000000  0.5306230000000 1.0
C      1  0.4576010000000  0.4925960000000  0.5796890000000 1.0
C      1  0.5158470000000  0.4180480000000  0.4706290000000 1.0
C      1  0.4949220000000  0.5627270000000  0.4632940000000 1.0
C      1  0.5301270000000  0.4854200000000  0.5848120000000 1.0
C      1  0.5421130000000  0.4925200000000  0.5802210000000 1.0
C      1  0.5451010000000  0.5287210000000  0.5492340000000 1.0
C      1  0.5067960000000  0.4185010000000  0.5432550000000 1.0
C      1  0.4579870000000  0.5063820000000  0.5790790000000 1.0
C      1  0.4576430000000  0.4731760000000  0.5446490000000 1.0
C      1  0.4214580000000  0.5406170000000  0.5052600000000 1.0
C      1  0.5298230000000  0.5491580000000  0.5470750000000 1.0
C      1  0.5810460000000  0.4556550000000  0.4930000000000 1.0
C      1  0.4557500000000  0.4768150000000  0.4558450000000 1.0
C      1  0.5772410000000  0.4572260000000  0.5062990000000 1.0
C      1  0.5596140000000  0.4433430000000  0.4614160000000 1.0
C      1  0.4507080000000  0.4690290000000  0.5332330000000 1.0
C      1  0.5070870000000  0.5797300000000  0.5443180000000 1.0
C      1  0.5198230000000  0.4870640000000  0.4419960000000 1.0
C      1  0.5074620000000  0.4075530000000  0.5214010000000 1.0
C      1  0.4691960000000  0.5142280000000  0.5843760000000 1.0
C      1  0.5418190000000  0.4583000000000  0.5252050000000 1.0
C      1  0.4660780000000  0.5375890000000  0.5539100000000 1.0
C      1  0.5412620000000  0.4411470000000  0.4452120000000 1.0
C      1  0.4674600000000  0.4570340000000  0.4731040000000 1.0
C      1  0.4701400000000  0.5495110000000  0.5468070000000 1.0
C      1  0.4774680000000  0.4928150000000  0.4109540000000 1.0
C      1  0.4696980000000  0.4658630000000  0.5491150000000 1.0
C      1  0.5429140000000  0.4542470000000  0.4408120000000 1.0
C      1  0.4193780000000  0.4563530000000  0.5072600000000 1.0
C      1  0.4546690000000  0.4618470000000  0.4757080000000 1.0
C      1  0.4179800000000  0.5284760000000  0.5125370000000 1.0
C      1  0.4075900000000  0.4777010000000  0.5078500000000 1.0
C      1  0.4948120000000  0.4271610000000  0.4607110000000 1.0
C      1  0.4694890000000  0.4854050000000  0.5843700000000 1.0
C      1  0.4856100000000  0.4143160000000  0.5311240000000 1.0
C      1  0.4940110000000  0.4150880000000  0.4819840000000 1.0
C      1  0.5088330000000  0.5628480000000  0.4623890000000 1.0
C      1  0.4147060000000  0.4679870000000  0.5147470000000 1.0
C      1  0.5894040000000  0.5196290000000  0.5057680000000 1.0
C      1  0.4414840000000  0.5519030000000  0.4603720000000 1.0
C      1  0.4739700000000  0.4545420000000  0.5420600000000 1.0
C      1  0.5778440000000  0.5411950000000  0.5052140000000 1.0
C      1  0.5615930000000  0.5566830000000  0.4584570000000 1.0
C      1  0.5809740000000  0.4694570000000  0.5132410000000 1.0
C      1  0.4688770000000  0.4707890000000  0.4525660000000 1.0
C      1  0.5100050000000  0.5085310000000  0.4338110000000 1.0
C      1  0.5460650000000  0.5469400000000  0.4364470000000 1.0
C      1  0.5339050000000  0.5371930000000  0.5541020000000 1.0
C      1  0.5147030000000  0.5842530000000  0.5323850000000 1.0
C      1  0.4663000000000  0.4858480000000  0.4154210000000 1.0
C      1  0.4133860000000  0.4675320000000  0.4859570000000 1.0
C      1  0.5874140000000  0.4797900000000  0.5066570000000 1.0
C      1  0.5461640000000  0.4701970000000  0.5327030000000 1.0
C      1  0.4875610000000  0.4226400000000  0.4723310000000 1.0
C      1  0.4927820000000  0.4077360000000  0.5212330000000 1.0
C      1  0.4110450000000  0.5174880000000  0.4914600000000 1.0
C      1  0.4772790000000  0.5073760000000  0.4099920000000 1.0
C      1  0.4793710000000  0.4926440000000  0.5908380000000 1.0
C      1  0.5194800000000  0.4926030000000  0.5900230000000 1.0
C      1  0.5841280000000  0.5301210000000  0.4839090000000 1.0
C      1  0.4928770000000  0.4188560000000  0.5429080000000 1.0
C      1  0.5656900000000  0.5445860000000  0.4510600000000 1.0
C      1  0.4487710000000  0.4724350000000  0.4671950000000 1.0
C      1  0.4123620000000  0.5175200000000  0.5062370000000 1.0
C      1  0.4494160000000  0.5333010000000  0.5368980000000 1.0
C      1  0.5513370000000  0.5333930000000  0.5376260000000 1.0
C      1  0.5212660000000  0.5155790000000  0.4381710000000 1.0
C      1  0.5158690000000  0.5684140000000  0.4741860000000 1.0
C      1  0.4556610000000  0.5436470000000  0.4368540000000 1.0
C      1  0.5082850000000  0.4242470000000  0.4594110000000 1.0
C      1  0.5322290000000  0.5083630000000  0.4449440000000 1.0
C      1  0.5787750000000  0.5417740000000  0.4914180000000 1.0
C      1  0.5862610000000  0.4671800000000  0.4856200000000 1.0
C      1  0.5894950000000  0.5195140000000  0.4910890000000 1.0
C      1  0.4861450000000  0.5841400000000  0.5318270000000 1.0
C      1  0.5312580000000  0.4946350000000  0.4472030000000 1.0
C      1  0.5575030000000  0.5391100000000  0.4413610000000 1.0
C      1  0.4539970000000  0.4928710000000  0.4188620000000 1.0
C      1  0.5080780000000  0.5882370000000  0.5210370000000 1.0
C      1  0.5893300000000  0.4791050000000  0.4919380000000 1.0
C      1  0.4792870000000  0.5074200000000  0.5909120000000 1.0
C      1  0.4190770000000  0.4563150000000  0.4933500000000 1.0
C      1  0.4650900000000  0.5138680000000  0.4116050000000 1.0
C      1  0.4932130000000  0.5882620000000  0.5208190000000 1.0
C      1  0.4552360000000  0.4570990000000  0.5257580000000 1.0
C      1  0.5419450000000  0.5063400000000  0.5797890000000 1.0
C      1  0.4876380000000  0.5674590000000  0.4747980000000 1.0
C      1  0.4145810000000  0.5289420000000  0.4844770000000 1.0
C      1  0.4067740000000  0.4773930000000  0.4931830000000 1.0
C      1  0.5143290000000  0.4140490000000  0.5315390000000 1.0
C      1  0.4532140000000  0.5064590000000  0.4160390000000 1.0
C      1  0.5829390000000  0.5298120000000  0.5127220000000 1.0
C      1  0.5094870000000  0.4937450000000  0.4354450000000 1.0
C      1  0.5195780000000  0.5075480000000  0.5900150000000 1.0
C      1  0.4633610000000  0.5538390000000  0.5344020000000 1.0
C      1  0.5085300000000  0.5730920000000  0.4857830000000 1.0
C      1  0.5490460000000  0.4358970000000  0.4564240000000 1.0
C      1  0.5417830000000  0.5575130000000  0.4443040000000 1.0
C      1  0.4938030000000  0.5727610000000  0.4861380000000 1.0
C      1  0.5367150000000  0.5535580000000  0.5348560000000 1.0
C      1  0.5304350000000  0.5141210000000  0.5845840000000 1.0
C      1  0.4530690000000  0.5584540000000  0.4564420000000 1.0
C      1  0.4747220000000  0.4615900000000  0.4612330000000 1.0
C      1  0.5087990000000  0.4135240000000  0.4816120000000 1.0
C      1  0.4665770000000  0.4500670000000  0.5300310000000 1.0
C      1  0.5540340000000  0.4619640000000  0.4460130000000 1.0
C      1  0.4436980000000  0.5361440000000  0.4414220000000 1.0
C      1  0.5401400000000  0.4736330000000  0.5447720000000 1.0
C      1  0.5628850000000  0.4564450000000  0.4551110000000 1.0
C      1  0.4370030000000  0.5398970000000  0.4528630000000 1.0
C      1  0.4553960000000  0.5288230000000  0.5486580000000 1.0
C      1  0.5313500000000  0.4505020000000  0.5301980000000 1.0
END
