TITL C240-887976 3.85914685975603 1000000 -1865.76817482044 0 0 240 (Cs) n - 1
REM
REM in /home/chem/mssmkc/work/CARBON/AIRSS/Generating-Clusters/Str-Search/GAP20/LAMMPS-RUNS
REM
REM
REM
REM
REM
REM C240.cell (82b6486c2a48c2282e31b5d3a7ef49e0)
REM
REM
REM
REM
REM
CELL 1.54180  100.00000  100.00000  100.00000   90.00000   90.00000   90.00000
LATT -1
SFAC C  
C      1  0.5001370000000  0.4859590000000  0.5694340000000 1.0
C      1  0.5234160000000  0.4717230000000  0.5605760000000 1.0
C      1  0.4540340000000  0.4856320000000  0.4483220000000 1.0
C      1  0.4540120000000  0.5144640000000  0.4483680000000 1.0
C      1  0.5284870000000  0.4400880000000  0.4763820000000 1.0
C      1  0.4765110000000  0.5284230000000  0.4396850000000 1.0
C      1  0.5144340000000  0.5512910000000  0.5458860000000 1.0
C      1  0.4718420000000  0.4397230000000  0.5232640000000 1.0
C      1  0.4483440000000  0.5458340000000  0.4857240000000 1.0
C      1  0.4542620000000  0.4854710000000  0.5517580000000 1.0
C      1  0.5145110000000  0.4485850000000  0.5457220000000 1.0
C      1  0.4998100000000  0.4861740000000  0.4305240000000 1.0
C      1  0.4308180000000  0.4999700000000  0.4861800000000 1.0
C      1  0.4396780000000  0.5233250000000  0.4717740000000 1.0
C      1  0.4997890000000  0.5140460000000  0.4305680000000 1.0
C      1  0.5701840000000  0.5000770000000  0.4846790000000 1.0
C      1  0.5606950000000  0.4768130000000  0.4705940000000 1.0
C      1  0.5284430000000  0.4406080000000  0.5229960000000 1.0
C      1  0.5231810000000  0.5284490000000  0.4393390000000 1.0
C      1  0.4767930000000  0.4715430000000  0.5603690000000 1.0
C      1  0.4855100000000  0.5516820000000  0.4541570000000 1.0
C      1  0.5510830000000  0.5444380000000  0.5139910000000 1.0
C      1  0.5516820000000  0.5453810000000  0.4852770000000 1.0
C      1  0.4856770000000  0.5515270000000  0.5460170000000 1.0
C      1  0.5458780000000  0.5145320000000  0.4475680000000 1.0
C      1  0.5459000000000  0.4857030000000  0.4475220000000 1.0
C      1  0.4855870000000  0.4484430000000  0.4539930000000 1.0
C      1  0.4717520000000  0.5601610000000  0.5234550000000 1.0
C      1  0.4765530000000  0.4717340000000  0.4395940000000 1.0
C      1  0.5233740000000  0.5281190000000  0.5606650000000 1.0
C      1  0.5283980000000  0.5600290000000  0.4765730000000 1.0
C      1  0.5001160000000  0.5138200000000  0.5694780000000 1.0
C      1  0.4308780000000  0.4999260000000  0.5140460000000 1.0
C      1  0.4862840000000  0.4309580000000  0.4998740000000 1.0
C      1  0.4542410000000  0.5142960000000  0.5518040000000 1.0
C      1  0.5511490000000  0.4555940000000  0.5138500000000 1.0
C      1  0.4397970000000  0.5232350000000  0.5284870000000 1.0
C      1  0.5699090000000  0.5000330000000  0.5118050000000 1.0
C      1  0.5140540000000  0.5688200000000  0.5000220000000 1.0
C      1  0.5283540000000  0.5593610000000  0.5231850000000 1.0
C      1  0.5517490000000  0.4547430000000  0.4851330000000 1.0
C      1  0.4717700000000  0.4398060000000  0.4765900000000 1.0
C      1  0.4767510000000  0.5282300000000  0.5604590000000 1.0
C      1  0.5462570000000  0.5149170000000  0.5530920000000 1.0
C      1  0.5462800000000  0.4849840000000  0.5530440000000 1.0
C      1  0.4484000000000  0.5457930000000  0.5145670000000 1.0
C      1  0.5582260000000  0.4803530000000  0.5271430000000 1.0
C      1  0.4861810000000  0.5690220000000  0.5000930000000 1.0
C      1  0.4716800000000  0.5602260000000  0.4767810000000 1.0
C      1  0.5141570000000  0.4312010000000  0.4998040000000 1.0
C      1  0.5232230000000  0.4717790000000  0.4392490000000 1.0
C      1  0.4857540000000  0.4483060000000  0.5458530000000 1.0
C      1  0.5143530000000  0.5516550000000  0.4540040000000 1.0
C      1  0.5606600000000  0.5233700000000  0.4706680000000 1.0
C      1  0.4484130000000  0.4541350000000  0.4855790000000 1.0
C      1  0.4484680000000  0.4540840000000  0.5144210000000 1.0
C      1  0.5144300000000  0.4485130000000  0.4538400000000 1.0
C      1  0.4397130000000  0.4766750000000  0.4717000000000 1.0
C      1  0.4398320000000  0.4765850000000  0.5284130000000 1.0
C      1  0.5581960000000  0.5196470000000  0.5272050000000 1.0
C      1  0.4859100000000  0.4368130000000  0.5241180000000 1.0
C      1  0.5636890000000  0.5240790000000  0.4847330000000 1.0
C      1  0.5124050000000  0.4930120000000  0.4318990000000 1.0
C      1  0.4411750000000  0.5356530000000  0.5073370000000 1.0
C      1  0.5680190000000  0.4879570000000  0.5058060000000 1.0
C      1  0.4644060000000  0.5070680000000  0.5590030000000 1.0
C      1  0.4323090000000  0.5125480000000  0.4930250000000 1.0
C      1  0.4872260000000  0.4929930000000  0.4321000000000 1.0
C      1  0.4756260000000  0.4857890000000  0.4366130000000 1.0
C      1  0.5455830000000  0.5416310000000  0.5268870000000 1.0
C      1  0.4858380000000  0.4368780000000  0.4756530000000 1.0
C      1  0.4724410000000  0.4537920000000  0.4564180000000 1.0
C      1  0.5240870000000  0.4858280000000  0.4362260000000 1.0
C      1  0.4930840000000  0.4324820000000  0.4872690000000 1.0
C      1  0.5143850000000  0.5627230000000  0.5242010000000 1.0
C      1  0.4756050000000  0.5143760000000  0.4366590000000 1.0
C      1  0.5071970000000  0.5674770000000  0.4874380000000 1.0
C      1  0.5620430000000  0.5225620000000  0.5135430000000 1.0
C      1  0.4323280000000  0.4873730000000  0.4929850000000 1.0
C      1  0.4367690000000  0.4757570000000  0.4857640000000 1.0
C      1  0.5072310000000  0.5673280000000  0.5126150000000 1.0
C      1  0.4368290000000  0.4757100000000  0.5143580000000 1.0
C      1  0.4875370000000  0.5069870000000  0.5678970000000 1.0
C      1  0.4927990000000  0.5588230000000  0.4643140000000 1.0
C      1  0.5144780000000  0.4372220000000  0.5240020000000 1.0
C      1  0.4726000000000  0.4536480000000  0.5435010000000 1.0
C      1  0.5319330000000  0.5347150000000  0.4489000000000 1.0
C      1  0.5275160000000  0.5462630000000  0.4562480000000 1.0
C      1  0.4872160000000  0.5072040000000  0.4321230000000 1.0
C      1  0.5583020000000  0.4656850000000  0.5066500000000 1.0
C      1  0.4323390000000  0.5125260000000  0.5072340000000 1.0
C      1  0.5363490000000  0.4926740000000  0.5600630000000 1.0
C      1  0.5685310000000  0.4876100000000  0.4915180000000 1.0
C      1  0.5495740000000  0.4702330000000  0.5336010000000 1.0
C      1  0.5582510000000  0.5343810000000  0.5067590000000 1.0
C      1  0.4411460000000  0.5356750000000  0.4929550000000 1.0
C      1  0.5620760000000  0.4774880000000  0.5134710000000 1.0
C      1  0.5127600000000  0.5069980000000  0.5681910000000 1.0
C      1  0.5429720000000  0.4732750000000  0.5460620000000 1.0
C      1  0.5344170000000  0.5494240000000  0.5316550000000 1.0
C      1  0.4857440000000  0.5631780000000  0.4758540000000 1.0
C      1  0.5275850000000  0.4539180000000  0.4561010000000 1.0
C      1  0.4536860000000  0.5434810000000  0.4725630000000 1.0
C      1  0.4680840000000  0.5345430000000  0.5508420000000 1.0
C      1  0.5144400000000  0.4370200000000  0.4755520000000 1.0
C      1  0.5429320000000  0.5266430000000  0.5461460000000 1.0
C      1  0.4655090000000  0.4492740000000  0.5319840000000 1.0
C      1  0.5127710000000  0.4928040000000  0.5681690000000 1.0
C      1  0.5685130000000  0.5125190000000  0.4915580000000 1.0
C      1  0.4367930000000  0.5241490000000  0.5144350000000 1.0
C      1  0.4875470000000  0.4927790000000  0.5678740000000 1.0
C      1  0.4565960000000  0.5274440000000  0.5464350000000 1.0
C      1  0.5588570000000  0.5350980000000  0.4922940000000 1.0
C      1  0.4494020000000  0.5319000000000  0.5348050000000 1.0
C      1  0.4411990000000  0.4642590000000  0.4928420000000 1.0
C      1  0.4412280000000  0.4642360000000  0.5072240000000 1.0
C      1  0.5464220000000  0.4568660000000  0.4719030000000 1.0
C      1  0.5274220000000  0.4543470000000  0.5431640000000 1.0
C      1  0.5435190000000  0.5276300000000  0.4530730000000 1.0
C      1  0.4654340000000  0.5505720000000  0.5321450000000 1.0
C      1  0.5071830000000  0.5587940000000  0.4642500000000 1.0
C      1  0.4537910000000  0.5433990000000  0.5277040000000 1.0
C      1  0.4678860000000  0.5347030000000  0.4493520000000 1.0
C      1  0.5347540000000  0.4496360000000  0.4676050000000 1.0
C      1  0.5495300000000  0.5297340000000  0.5336950000000 1.0
C      1  0.5508740000000  0.4682000000000  0.4645640000000 1.0
C      1  0.4493100000000  0.4680260000000  0.4653440000000 1.0
C      1  0.4564480000000  0.4724910000000  0.4536850000000 1.0
C      1  0.4858160000000  0.5630890000000  0.5243180000000 1.0
C      1  0.5073480000000  0.4413780000000  0.5355590000000 1.0
C      1  0.4928970000000  0.5586790000000  0.5358160000000 1.0
C      1  0.5344910000000  0.4505270000000  0.5314980000000 1.0
C      1  0.4928870000000  0.4412800000000  0.4641270000000 1.0
C      1  0.5072710000000  0.4413310000000  0.4640630000000 1.0
C      1  0.4725310000000  0.5461730000000  0.5436480000000 1.0
C      1  0.5456450000000  0.4583520000000  0.5267550000000 1.0
C      1  0.5589100000000  0.4650140000000  0.4921820000000 1.0
C      1  0.5143460000000  0.5630790000000  0.4757520000000 1.0
C      1  0.5244910000000  0.5141220000000  0.5639280000000 1.0
C      1  0.4367330000000  0.5241940000000  0.4858410000000 1.0
C      1  0.4564070000000  0.5275910000000  0.4537720000000 1.0
C      1  0.4653930000000  0.4493840000000  0.4679400000000 1.0
C      1  0.4537510000000  0.4565370000000  0.4724250000000 1.0
C      1  0.5245120000000  0.4857120000000  0.5638830000000 1.0
C      1  0.4931220000000  0.4324740000000  0.5124510000000 1.0
C      1  0.4759140000000  0.4855930000000  0.5633810000000 1.0
C      1  0.5319850000000  0.4654950000000  0.4487900000000 1.0
C      1  0.4653170000000  0.5506650000000  0.4681010000000 1.0
C      1  0.5508260000000  0.5319890000000  0.4646650000000 1.0
C      1  0.5637250000000  0.4760650000000  0.4846570000000 1.0
C      1  0.5273540000000  0.5455560000000  0.5433090000000 1.0
C      1  0.4679380000000  0.4654100000000  0.4492420000000 1.0
C      1  0.5123950000000  0.5072220000000  0.4319220000000 1.0
C      1  0.5240650000000  0.5144100000000  0.4362710000000 1.0
C      1  0.4538560000000  0.4564440000000  0.5275660000000 1.0
C      1  0.5435600000000  0.4725840000000  0.4529860000000 1.0
C      1  0.5346780000000  0.5505180000000  0.4677650000000 1.0
C      1  0.5463580000000  0.5432920000000  0.4720400000000 1.0
C      1  0.4758930000000  0.5141690000000  0.5634260000000 1.0
C      1  0.4566370000000  0.4723440000000  0.5463480000000 1.0
C      1  0.4494500000000  0.4679140000000  0.5347030000000 1.0
C      1  0.4492620000000  0.5320080000000  0.4654450000000 1.0
C      1  0.5356260000000  0.5073100000000  0.4404930000000 1.0
C      1  0.5317870000000  0.4657860000000  0.5505210000000 1.0
C      1  0.4644170000000  0.4926910000000  0.5589810000000 1.0
C      1  0.4323580000000  0.4873500000000  0.5071940000000 1.0
C      1  0.4681360000000  0.4652480000000  0.5507310000000 1.0
C      1  0.4641370000000  0.5072570000000  0.4410970000000 1.0
C      1  0.4723720000000  0.5463060000000  0.4565650000000 1.0
C      1  0.5363380000000  0.5071900000000  0.5600860000000 1.0
C      1  0.5680010000000  0.5121260000000  0.5058440000000 1.0
C      1  0.5317360000000  0.5341010000000  0.5506290000000 1.0
C      1  0.5356370000000  0.4929320000000  0.4404700000000 1.0
C      1  0.4930210000000  0.5674760000000  0.5126650000000 1.0
C      1  0.5073310000000  0.4326430000000  0.5124010000000 1.0
C      1  0.4929830000000  0.5675480000000  0.4874830000000 1.0
C      1  0.5072600000000  0.5585200000000  0.5357450000000 1.0
C      1  0.4929840000000  0.4411970000000  0.5356290000000 1.0
C      1  0.5072980000000  0.4325740000000  0.4872230000000 1.0
C      1  0.4641470000000  0.4928770000000  0.4410750000000 1.0
C      1  0.5072050000000  0.5462370000000  0.5566710000000 1.0
C      1  0.5611990000000  0.5076620000000  0.5347400000000 1.0
C      1  0.5070520000000  0.4536870000000  0.4432060000000 1.0
C      1  0.5113310000000  0.5350340000000  0.4361330000000 1.0
C      1  0.4998310000000  0.4722860000000  0.4316920000000 1.0
C      1  0.4319380000000  0.4999930000000  0.4722900000000 1.0
C      1  0.5464330000000  0.5558880000000  0.4927570000000 1.0
C      1  0.5000900000000  0.4720760000000  0.5682300000000 1.0
C      1  0.4363220000000  0.4884930000000  0.4651410000000 1.0
C      1  0.5116300000000  0.4650430000000  0.5637910000000 1.0
C      1  0.5465160000000  0.4442050000000  0.4925800000000 1.0
C      1  0.5069830000000  0.5465030000000  0.4433530000000 1.0
C      1  0.4435880000000  0.5069990000000  0.5465650000000 1.0
C      1  0.4722870000000  0.5679220000000  0.5001250000000 1.0
C      1  0.4928200000000  0.4536680000000  0.4432920000000 1.0
C      1  0.5649850000000  0.4999570000000  0.5574460000000 1.0
C      1  0.5280320000000  0.4325330000000  0.4997810000000 1.0
C      1  0.4885990000000  0.4649600000000  0.5637390000000 1.0
C      1  0.5687190000000  0.5000980000000  0.4708070000000 1.0
C      1  0.4320590000000  0.4999050000000  0.5279310000000 1.0
C      1  0.4651700000000  0.5635340000000  0.5116470000000 1.0
C      1  0.5587840000000  0.4906340000000  0.5493490000000 1.0
C      1  0.5640720000000  0.4885680000000  0.4638650000000 1.0
C      1  0.4536080000000  0.5564670000000  0.4930310000000 1.0
C      1  0.4927500000000  0.5465010000000  0.4434390000000 1.0
C      1  0.4883570000000  0.4651620000000  0.4361790000000 1.0
C      1  0.4652650000000  0.4363770000000  0.5114450000000 1.0
C      1  0.5000480000000  0.5277070000000  0.5683190000000 1.0
C      1  0.4363050000000  0.5115230000000  0.4651780000000 1.0
C      1  0.5612100000000  0.4923190000000  0.5347150000000 1.0
C      1  0.4883050000000  0.5350230000000  0.4362900000000 1.0
C      1  0.5072750000000  0.4535940000000  0.5565240000000 1.0
C      1  0.4433930000000  0.4929150000000  0.4536060000000 1.0
C      1  0.5464250000000  0.4445230000000  0.5068000000000 1.0
C      1  0.5115780000000  0.5347720000000  0.5639010000000 1.0
C      1  0.5587700000000  0.5092970000000  0.5493780000000 1.0
C      1  0.4651330000000  0.5635640000000  0.4886200000000 1.0
C      1  0.5566690000000  0.4929950000000  0.4525260000000 1.0
C      1  0.4536320000000  0.5564480000000  0.5072640000000 1.0
C      1  0.4885470000000  0.5348200000000  0.5638500000000 1.0
C      1  0.5566590000000  0.5072400000000  0.4525490000000 1.0
C      1  0.5113830000000  0.4651860000000  0.4360220000000 1.0
C      1  0.4364750000000  0.4883830000000  0.5350250000000 1.0
C      1  0.4929710000000  0.5462980000000  0.5566870000000 1.0
C      1  0.4930400000000  0.4535120000000  0.5565390000000 1.0
C      1  0.4435990000000  0.4927680000000  0.5465420000000 1.0
C      1  0.5351080000000  0.4368920000000  0.4882280000000 1.0
C      1  0.5463420000000  0.5555240000000  0.5069770000000 1.0
C      1  0.4997900000000  0.5279300000000  0.4317800000000 1.0
C      1  0.4537170000000  0.4434600000000  0.5070850000000 1.0
C      1  0.5640550000000  0.5116420000000  0.4639020000000 1.0
C      1  0.4536920000000  0.4434860000000  0.4928510000000 1.0
C      1  0.5349670000000  0.5627850000000  0.5114350000000 1.0
C      1  0.5279310000000  0.5675090000000  0.4999950000000 1.0
C      1  0.4433820000000  0.5071480000000  0.4536290000000 1.0
C      1  0.4364570000000  0.5114110000000  0.5350620000000 1.0
C      1  0.5350610000000  0.4372310000000  0.5112350000000 1.0
C      1  0.4723880000000  0.4320360000000  0.4999090000000 1.0
C      1  0.4652280000000  0.4364210000000  0.4884180000000 1.0
C      1  0.5350140000000  0.5631980000000  0.4884290000000 1.0
END
