TITL C240-247693 -0.0117072456278586 1000000 -1753.64257506627 0 0 240 (C1) n - 1
REM
REM in /home/chem/mssmkc/work/CARBON/AIRSS/Generating-Clusters/Str-Search/GAP20/LAMMPS-RUNS
REM
REM
REM
REM
REM
REM C240.cell (895507cd4e305d02441d5cb0f54227d8)
REM
REM
REM
REM
REM
CELL 1.54180  100.00000  100.00000  100.00000   90.00000   90.00000   90.00000
LATT -1
SFAC C  
C      1  0.4950220000000  0.4462500000000  0.5529710000000 1.0
C      1  0.4715270000000  0.4539950000000  0.5636150000000 1.0
C      1  0.4297390000000  0.5175840000000  0.4819820000000 1.0
C      1  0.4256750000000  0.4853130000000  0.4758860000000 1.0
C      1  0.5427420000000  0.4430680000000  0.5246550000000 1.0
C      1  0.5225680000000  0.5445910000000  0.4420640000000 1.0
C      1  0.4830000000000  0.5236710000000  0.5677460000000 1.0
C      1  0.4615960000000  0.4436080000000  0.4718520000000 1.0
C      1  0.4776220000000  0.5671130000000  0.5172050000000 1.0
C      1  0.4289390000000  0.5102220000000  0.5273430000000 1.0
C      1  0.4862870000000  0.4783180000000  0.5677510000000 1.0
C      1  0.5003370000000  0.4419040000000  0.4549720000000 1.0
C      1  0.4563900000000  0.4891690000000  0.4376980000000 1.0
C      1  0.4391610000000  0.4779260000000  0.4527700000000 1.0
C      1  0.4989910000000  0.5635190000000  0.4636040000000 1.0
C      1  0.5547590000000  0.4997480000000  0.4323840000000 1.0
C      1  0.5579540000000  0.5163480000000  0.4571220000000 1.0
C      1  0.5401300000000  0.4452030000000  0.4774120000000 1.0
C      1  0.4752810000000  0.5425030000000  0.4450660000000 1.0
C      1  0.5143880000000  0.4663110000000  0.5577290000000 1.0
C      1  0.5153430000000  0.5242710000000  0.4223440000000 1.0
C      1  0.5226360000000  0.5623390000000  0.4975550000000 1.0
C      1  0.5289790000000  0.5611820000000  0.5093620000000 1.0
C      1  0.5124290000000  0.5294710000000  0.5563610000000 1.0
C      1  0.5662370000000  0.4940310000000  0.4777750000000 1.0
C      1  0.5676490000000  0.5052780000000  0.4858730000000 1.0
C      1  0.5229090000000  0.4795350000000  0.4301900000000 1.0
C      1  0.4537420000000  0.5476450000000  0.4660870000000 1.0
C      1  0.5259340000000  0.4685770000000  0.4391630000000 1.0
C      1  0.4767680000000  0.5345830000000  0.5613930000000 1.0
C      1  0.5518630000000  0.5664310000000  0.5226920000000 1.0
C      1  0.5068550000000  0.5417650000000  0.5489660000000 1.0
C      1  0.4440790000000  0.5019270000000  0.5608320000000 1.0
C      1  0.4472460000000  0.4499540000000  0.4990980000000 1.0
C      1  0.4317290000000  0.4763990000000  0.5204750000000 1.0
C      1  0.5187600000000  0.4310750000000  0.4861420000000 1.0
C      1  0.4374280000000  0.4811660000000  0.5452500000000 1.0
C      1  0.5478430000000  0.5135930000000  0.5539570000000 1.0
C      1  0.5603040000000  0.5521970000000  0.5000620000000 1.0
C      1  0.5369460000000  0.5522490000000  0.4763670000000 1.0
C      1  0.5192830000000  0.4316350000000  0.5156450000000 1.0
C      1  0.4609980000000  0.4453800000000  0.5282460000000 1.0
C      1  0.5305330000000  0.5506900000000  0.5480650000000 1.0
C      1  0.5739050000000  0.4842420000000  0.5303450000000 1.0
C      1  0.5706000000000  0.5128230000000  0.5338920000000 1.0
C      1  0.4760310000000  0.5678790000000  0.4847920000000 1.0
C      1  0.5655620000000  0.5246250000000  0.5385210000000 1.0
C      1  0.4403600000000  0.5483540000000  0.5008910000000 1.0
C      1  0.4565380000000  0.5585150000000  0.5255540000000 1.0
C      1  0.5571620000000  0.4514070000000  0.5006790000000 1.0
C      1  0.4757140000000  0.4514350000000  0.4373300000000 1.0
C      1  0.5178260000000  0.4793240000000  0.5606470000000 1.0
C      1  0.4860860000000  0.5222140000000  0.4263810000000 1.0
C      1  0.5585430000000  0.4812800000000  0.4534470000000 1.0
C      1  0.4731670000000  0.4398540000000  0.5223790000000 1.0
C      1  0.4728960000000  0.4379360000000  0.4791430000000 1.0
C      1  0.4889360000000  0.4744370000000  0.4275920000000 1.0
C      1  0.4404200000000  0.5108520000000  0.4583520000000 1.0
C      1  0.4369780000000  0.5305550000000  0.5395140000000 1.0
C      1  0.5647430000000  0.4814690000000  0.5420150000000 1.0
C      1  0.4355390000000  0.5190580000000  0.4687260000000 1.0
C      1  0.4683540000000  0.4625780000000  0.4350720000000 1.0
C      1  0.4492940000000  0.4529230000000  0.5238070000000 1.0
C      1  0.5661470000000  0.5502850000000  0.5118860000000 1.0
C      1  0.4798210000000  0.5438280000000  0.5512500000000 1.0
C      1  0.4562630000000  0.5038680000000  0.4394330000000 1.0
C      1  0.5193480000000  0.4570520000000  0.4467890000000 1.0
C      1  0.5536230000000  0.4511350000000  0.5251430000000 1.0
C      1  0.5316970000000  0.4441500000000  0.5328750000000 1.0
C      1  0.4941270000000  0.5114410000000  0.4230830000000 1.0
C      1  0.4449150000000  0.5422610000000  0.5375950000000 1.0
C      1  0.5713800000000  0.5025420000000  0.4994100000000 1.0
C      1  0.4607220000000  0.4478960000000  0.5428260000000 1.0
C      1  0.4408970000000  0.5247500000000  0.5518470000000 1.0
C      1  0.5584780000000  0.4748130000000  0.4655350000000 1.0
C      1  0.5402730000000  0.5638250000000  0.5299910000000 1.0
C      1  0.5536550000000  0.4859750000000  0.5490740000000 1.0
C      1  0.4652780000000  0.4660330000000  0.5643100000000 1.0
C      1  0.5225630000000  0.5516040000000  0.4542850000000 1.0
C      1  0.5312070000000  0.5347620000000  0.4378870000000 1.0
C      1  0.5494650000000  0.4788880000000  0.4430550000000 1.0
C      1  0.5355150000000  0.5393340000000  0.5544280000000 1.0
C      1  0.5485440000000  0.5439190000000  0.4799680000000 1.0
C      1  0.4859630000000  0.4396960000000  0.4565450000000 1.0
C      1  0.5585950000000  0.5230230000000  0.4694570000000 1.0
C      1  0.5737050000000  0.5073190000000  0.5221110000000 1.0
C      1  0.4300140000000  0.4724960000000  0.4746040000000 1.0
C      1  0.4246270000000  0.4923880000000  0.4878860000000 1.0
C      1  0.5620260000000  0.5578300000000  0.5235240000000 1.0
C      1  0.4435810000000  0.4553310000000  0.5112260000000 1.0
C      1  0.5181690000000  0.4555010000000  0.5501200000000 1.0
C      1  0.5471550000000  0.4882880000000  0.4327090000000 1.0
C      1  0.4761750000000  0.5516300000000  0.4546880000000 1.0
C      1  0.5269110000000  0.5600510000000  0.4830940000000 1.0
C      1  0.4388380000000  0.5440950000000  0.5138070000000 1.0
C      1  0.5574070000000  0.5423680000000  0.4908840000000 1.0
C      1  0.4635810000000  0.5279930000000  0.5639250000000 1.0
C      1  0.4429400000000  0.5431350000000  0.4755760000000 1.0
C      1  0.5087130000000  0.5658850000000  0.5000400000000 1.0
C      1  0.4737010000000  0.5213830000000  0.4327370000000 1.0
C      1  0.4368010000000  0.4734690000000  0.5335610000000 1.0
C      1  0.4256270000000  0.5064120000000  0.4901980000000 1.0
C      1  0.5062360000000  0.5167130000000  0.5615420000000 1.0
C      1  0.5731470000000  0.4705260000000  0.5263050000000 1.0
C      1  0.5677970000000  0.5361850000000  0.5302370000000 1.0
C      1  0.5073570000000  0.4304770000000  0.4942440000000 1.0
C      1  0.5341970000000  0.4885710000000  0.4273340000000 1.0
C      1  0.4489220000000  0.4502720000000  0.4746390000000 1.0
C      1  0.4751750000000  0.4448850000000  0.4495250000000 1.0
C      1  0.5428030000000  0.4754300000000  0.5514190000000 1.0
C      1  0.5496850000000  0.4553010000000  0.4778750000000 1.0
C      1  0.4810300000000  0.4353900000000  0.4939030000000 1.0
C      1  0.4383270000000  0.5413910000000  0.4888710000000 1.0
C      1  0.4829500000000  0.4347430000000  0.4694530000000 1.0
C      1  0.5577150000000  0.4591470000000  0.4892610000000 1.0
C      1  0.5611310000000  0.4550720000000  0.5131630000000 1.0
C      1  0.4945750000000  0.4894670000000  0.5667400000000 1.0
C      1  0.4264020000000  0.5025770000000  0.5157720000000 1.0
C      1  0.5075260000000  0.4312600000000  0.5082170000000 1.0
C      1  0.5279360000000  0.5248880000000  0.4277230000000 1.0
C      1  0.5071030000000  0.4509790000000  0.4470260000000 1.0
C      1  0.5082630000000  0.5124410000000  0.4211800000000 1.0
C      1  0.5637750000000  0.4805330000000  0.4779650000000 1.0
C      1  0.4724680000000  0.4783140000000  0.5676600000000 1.0
C      1  0.5184680000000  0.4359290000000  0.4730480000000 1.0
C      1  0.5279190000000  0.5616760000000  0.5230140000000 1.0
C      1  0.4797740000000  0.5610090000000  0.5293810000000 1.0
C      1  0.4870940000000  0.5678920000000  0.5078700000000 1.0
C      1  0.4364820000000  0.4686480000000  0.4624780000000 1.0
C      1  0.5173210000000  0.5505470000000  0.5430350000000 1.0
C      1  0.4832450000000  0.4421470000000  0.5466090000000 1.0
C      1  0.4751670000000  0.4738980000000  0.4295570000000 1.0
C      1  0.4857250000000  0.5601470000000  0.4621380000000 1.0
C      1  0.5131290000000  0.5596530000000  0.4608470000000 1.0
C      1  0.5748140000000  0.4932880000000  0.5201850000000 1.0
C      1  0.4967450000000  0.4857240000000  0.4254320000000 1.0
C      1  0.4427420000000  0.4538710000000  0.4867770000000 1.0
C      1  0.5649820000000  0.4675640000000  0.5378240000000 1.0
C      1  0.4656130000000  0.5543710000000  0.4650130000000 1.0
C      1  0.5391840000000  0.4695050000000  0.4450960000000 1.0
C      1  0.4812250000000  0.4364930000000  0.5087440000000 1.0
C      1  0.5320300000000  0.4818290000000  0.5584490000000 1.0
C      1  0.5087140000000  0.4907070000000  0.5639290000000 1.0
C      1  0.4634550000000  0.4461890000000  0.4573790000000 1.0
C      1  0.4498710000000  0.5132780000000  0.4484150000000 1.0
C      1  0.5294920000000  0.4439650000000  0.4683920000000 1.0
C      1  0.4314040000000  0.5288010000000  0.4908940000000 1.0
C      1  0.5269950000000  0.5287870000000  0.5572380000000 1.0
C      1  0.5200120000000  0.4374510000000  0.5281360000000 1.0
C      1  0.4680670000000  0.5310470000000  0.4416300000000 1.0
C      1  0.4267360000000  0.4882460000000  0.5132600000000 1.0
C      1  0.5639150000000  0.5190800000000  0.4824940000000 1.0
C      1  0.4461800000000  0.5492930000000  0.5254470000000 1.0
C      1  0.4673180000000  0.5571980000000  0.5344330000000 1.0
C      1  0.5110320000000  0.4872800000000  0.4253440000000 1.0
C      1  0.5006250000000  0.5645700000000  0.5118770000000 1.0
C      1  0.4702850000000  0.5165470000000  0.5695680000000 1.0
C      1  0.4931850000000  0.5145660000000  0.5659010000000 1.0
C      1  0.5341070000000  0.5488130000000  0.4625400000000 1.0
C      1  0.4862480000000  0.5696110000000  0.4936710000000 1.0
C      1  0.4750390000000  0.5626490000000  0.4725130000000 1.0
C      1  0.4832890000000  0.4386600000000  0.5328820000000 1.0
C      1  0.5343880000000  0.5168890000000  0.5588980000000 1.0
C      1  0.4314730000000  0.5238880000000  0.5281370000000 1.0
C      1  0.4682870000000  0.4860720000000  0.4303850000000 1.0
C      1  0.5416710000000  0.5573740000000  0.5422770000000 1.0
C      1  0.5692690000000  0.5368560000000  0.5158600000000 1.0
C      1  0.4386870000000  0.5119790000000  0.5561460000000 1.0
C      1  0.5729160000000  0.4898730000000  0.5062920000000 1.0
C      1  0.5485770000000  0.5117690000000  0.4339770000000 1.0
C      1  0.4710170000000  0.4463720000000  0.5520720000000 1.0
C      1  0.4340900000000  0.4661970000000  0.5107800000000 1.0
C      1  0.5485940000000  0.4987720000000  0.5542840000000 1.0
C      1  0.4498090000000  0.4779440000000  0.4438420000000 1.0
C      1  0.5509300000000  0.5201320000000  0.4456290000000 1.0
C      1  0.4463130000000  0.4793590000000  0.5556720000000 1.0
C      1  0.5073130000000  0.4462510000000  0.5469410000000 1.0
C      1  0.4931340000000  0.5467380000000  0.5452160000000 1.0
C      1  0.5552690000000  0.5248650000000  0.5489950000000 1.0
C      1  0.4513770000000  0.4906080000000  0.5631170000000 1.0
C      1  0.4943300000000  0.4313820000000  0.4885860000000 1.0
C      1  0.4293240000000  0.4706630000000  0.4983510000000 1.0
C      1  0.4547840000000  0.5427970000000  0.5478370000000 1.0
C      1  0.4442190000000  0.4610630000000  0.5344790000000 1.0
C      1  0.5362740000000  0.4948200000000  0.5602060000000 1.0
C      1  0.5640450000000  0.5291960000000  0.4926540000000 1.0
C      1  0.4532380000000  0.4669590000000  0.5565330000000 1.0
C      1  0.4751500000000  0.4977960000000  0.4272030000000 1.0
C      1  0.5534470000000  0.5493600000000  0.5446280000000 1.0
C      1  0.4401390000000  0.5322090000000  0.4667080000000 1.0
C      1  0.4524140000000  0.5320960000000  0.5567600000000 1.0
C      1  0.4948740000000  0.4339060000000  0.5141670000000 1.0
C      1  0.5157010000000  0.5003820000000  0.4217190000000 1.0
C      1  0.4950900000000  0.4310910000000  0.4748370000000 1.0
C      1  0.5032080000000  0.5591650000000  0.5249370000000 1.0
C      1  0.4887150000000  0.4981770000000  0.4243460000000 1.0
C      1  0.5172040000000  0.5642190000000  0.4739330000000 1.0
C      1  0.5296710000000  0.5012200000000  0.4230030000000 1.0
C      1  0.4284530000000  0.5245140000000  0.5040380000000 1.0
C      1  0.5693030000000  0.4668220000000  0.5134270000000 1.0
C      1  0.5406700000000  0.4609360000000  0.4560570000000 1.0
C      1  0.4501570000000  0.5360390000000  0.4574850000000 1.0
C      1  0.4673590000000  0.5487080000000  0.5454860000000 1.0
C      1  0.5424300000000  0.4627190000000  0.5447550000000 1.0
C      1  0.5539090000000  0.4594340000000  0.5368910000000 1.0
C      1  0.5631160000000  0.5488370000000  0.5346390000000 1.0
C      1  0.5423280000000  0.5316640000000  0.4467020000000 1.0
C      1  0.4676340000000  0.5086770000000  0.4321600000000 1.0
C      1  0.5642300000000  0.4721280000000  0.4898470000000 1.0
C      1  0.4320160000000  0.5313710000000  0.5155670000000 1.0
C      1  0.5275950000000  0.5053180000000  0.5622090000000 1.0
C      1  0.4998380000000  0.5692680000000  0.4894880000000 1.0
C      1  0.5137990000000  0.5042290000000  0.5629450000000 1.0
C      1  0.4255030000000  0.5106390000000  0.5038440000000 1.0
C      1  0.4445650000000  0.4571590000000  0.4629200000000 1.0
C      1  0.4537350000000  0.4551270000000  0.4525530000000 1.0
C      1  0.4958710000000  0.4359660000000  0.5278810000000 1.0
C      1  0.4873570000000  0.5016950000000  0.5679540000000 1.0
C      1  0.5695890000000  0.4763320000000  0.5025490000000 1.0
C      1  0.5361010000000  0.5131360000000  0.4268230000000 1.0
C      1  0.4511470000000  0.4577180000000  0.5461970000000 1.0
C      1  0.4652090000000  0.4907850000000  0.5675270000000 1.0
C      1  0.5691370000000  0.5264340000000  0.5059050000000 1.0
C      1  0.5501990000000  0.4631040000000  0.4660910000000 1.0
C      1  0.5512160000000  0.5351950000000  0.4692210000000 1.0
C      1  0.5431490000000  0.5389720000000  0.4583730000000 1.0
C      1  0.5160790000000  0.5573390000000  0.5303070000000 1.0
C      1  0.4253000000000  0.4842020000000  0.4996190000000 1.0
C      1  0.4730940000000  0.5026140000000  0.5692310000000 1.0
C      1  0.5720450000000  0.5130220000000  0.5089400000000 1.0
C      1  0.4329030000000  0.4648080000000  0.4863390000000 1.0
C      1  0.5494320000000  0.5375460000000  0.5514730000000 1.0
C      1  0.4564350000000  0.4648170000000  0.4427430000000 1.0
C      1  0.5058670000000  0.4352210000000  0.4668710000000 1.0
C      1  0.5309110000000  0.4540980000000  0.5432710000000 1.0
C      1  0.5294580000000  0.4527140000000  0.4570950000000 1.0
C      1  0.4559810000000  0.5271910000000  0.4485180000000 1.0
C      1  0.5041190000000  0.5689300000000  0.4765400000000 1.0
C      1  0.4922440000000  0.5556380000000  0.5337070000000 1.0
C      1  0.5077260000000  0.4388540000000  0.5347440000000 1.0
END
