TITL C240-969767 -0.0136097404946527 1000000 -1677.50664449916 0 0 240 (Ih) n - 1
REM
REM in /home/chem/mssmkc/work/CARBON/AIRSS/Generating-Clusters/Str-Search/GAP20/LAMMPS-RUNS
REM
REM
REM
REM
REM
REM C240.cell (141a74fbe3cf8ab082b1c189fef98d24)
REM
REM
REM
REM
REM
CELL 1.54180  100.00000  100.00000  100.00000   90.00000   90.00000   90.00000
LATT -1
SFAC C  
C      1  0.5388810000000  0.4246480000000  0.5436060000000 1.0
C      1  0.5753470000000  0.5436030000000  0.5388940000000 1.0
C      1  0.5556510000000  0.5314630000000  0.4292600000000 1.0
C      1  0.4052200000000  0.4927420000000  0.4925730000000 1.0
C      1  0.5707300000000  0.4443430000000  0.4685250000000 1.0
C      1  0.5072820000000  0.4925470000000  0.5947760000000 1.0
C      1  0.4292700000000  0.5556570000000  0.5314750000000 1.0
C      1  0.4443490000000  0.5314820000000  0.4292680000000 1.0
C      1  0.4563770000000  0.5389140000000  0.4246750000000 1.0
C      1  0.5391390000000  0.5270950000000  0.5826150000000 1.0
C      1  0.5388740000000  0.4246660000000  0.4563570000000 1.0
C      1  0.4173790000000  0.4608920000000  0.4728800000000 1.0
C      1  0.5436250000000  0.5388990000000  0.4246680000000 1.0
C      1  0.5314410000000  0.4292630000000  0.4443320000000 1.0
C      1  0.4611260000000  0.5753340000000  0.5436430000000 1.0
C      1  0.4563630000000  0.4611320000000  0.4246590000000 1.0
C      1  0.4685500000000  0.5707590000000  0.4443660000000 1.0
C      1  0.5753410000000  0.5436190000000  0.4611120000000 1.0
C      1  0.4292500000000  0.4443550000000  0.5314520000000 1.0
C      1  0.4246590000000  0.4563810000000  0.5388880000000 1.0
C      1  0.4685590000000  0.5707370000000  0.5556680000000 1.0
C      1  0.4246530000000  0.4563970000000  0.4611060000000 1.0
C      1  0.4443490000000  0.4685370000000  0.5707400000000 1.0
C      1  0.5074500000000  0.5947760000000  0.5072950000000 1.0
C      1  0.4610990000000  0.4246620000000  0.5436120000000 1.0
C      1  0.4173830000000  0.4608810000000  0.5271170000000 1.0
C      1  0.5780260000000  0.5511450000000  0.4803190000000 1.0
C      1  0.5826170000000  0.5391190000000  0.4728830000000 1.0
C      1  0.4443380000000  0.4685660000000  0.4292560000000 1.0
C      1  0.5947790000000  0.5072610000000  0.4925610000000 1.0
C      1  0.4292650000000  0.5556700000000  0.4685590000000 1.0
C      1  0.4927330000000  0.5074150000000  0.5947800000000 1.0
C      1  0.5707350000000  0.4443300000000  0.5314410000000 1.0
C      1  0.5196760000000  0.4219680000000  0.5511370000000 1.0
C      1  0.5947760000000  0.4927090000000  0.4925580000000 1.0
C      1  0.4052210000000  0.4927390000000  0.5074390000000 1.0
C      1  0.5753260000000  0.4563710000000  0.4610940000000 1.0
C      1  0.5556510000000  0.4685180000000  0.5707320000000 1.0
C      1  0.5271070000000  0.4173750000000  0.5391090000000 1.0
C      1  0.5511640000000  0.5196610000000  0.5780180000000 1.0
C      1  0.5389010000000  0.5753380000000  0.4563880000000 1.0
C      1  0.5826030000000  0.4608640000000  0.4728670000000 1.0
C      1  0.4608710000000  0.5271420000000  0.4173960000000 1.0
C      1  0.4219920000000  0.5511640000000  0.5197020000000 1.0
C      1  0.4610930000000  0.4246790000000  0.4563640000000 1.0
C      1  0.5271360000000  0.5826000000000  0.5391420000000 1.0
C      1  0.4488490000000  0.4803080000000  0.5780180000000 1.0
C      1  0.5556620000000  0.5314340000000  0.5707440000000 1.0
C      1  0.5707550000000  0.5556320000000  0.5314640000000 1.0
C      1  0.4246680000000  0.5436450000000  0.4611240000000 1.0
C      1  0.4443600000000  0.5314530000000  0.5707530000000 1.0
C      1  0.4728990000000  0.5826090000000  0.5391460000000 1.0
C      1  0.5947780000000  0.4927060000000  0.5074240000000 1.0
C      1  0.4803320000000  0.5780110000000  0.5511710000000 1.0
C      1  0.4052240000000  0.5072910000000  0.5074420000000 1.0
C      1  0.4052220000000  0.5072940000000  0.4925760000000 1.0
C      1  0.5391160000000  0.4728920000000  0.4173790000000 1.0
C      1  0.5826070000000  0.4608530000000  0.5271040000000 1.0
C      1  0.5271290000000  0.5826150000000  0.4608870000000 1.0
C      1  0.4488550000000  0.5196780000000  0.5780260000000 1.0
C      1  0.4925840000000  0.5947780000000  0.5072960000000 1.0
C      1  0.4608840000000  0.5271080000000  0.5826210000000 1.0
C      1  0.4219890000000  0.5511720000000  0.4803310000000 1.0
C      1  0.5511450000000  0.4803220000000  0.4219740000000 1.0
C      1  0.5197030000000  0.5780050000000  0.5511680000000 1.0
C      1  0.5196680000000  0.4219890000000  0.4488290000000 1.0
C      1  0.4802970000000  0.4219950000000  0.4488320000000 1.0
C      1  0.4728640000000  0.4174000000000  0.4608580000000 1.0
C      1  0.5389070000000  0.5753210000000  0.5436360000000 1.0
C      1  0.4925500000000  0.4052240000000  0.4927050000000 1.0
C      1  0.5074490000000  0.5947790000000  0.4927430000000 1.0
C      1  0.5511570000000  0.4802900000000  0.5780100000000 1.0
C      1  0.5074170000000  0.4052190000000  0.5072560000000 1.0
C      1  0.4925510000000  0.4052210000000  0.5072570000000 1.0
C      1  0.4173970000000  0.5391360000000  0.5271330000000 1.0
C      1  0.5391290000000  0.4728580000000  0.5826040000000 1.0
C      1  0.5947800000000  0.5072580000000  0.5074270000000 1.0
C      1  0.4611190000000  0.5753520000000  0.4563940000000 1.0
C      1  0.5436230000000  0.4610860000000  0.5753250000000 1.0
C      1  0.4246740000000  0.5436290000000  0.5389060000000 1.0
C      1  0.4728930000000  0.5826250000000  0.4608910000000 1.0
C      1  0.4488360000000  0.4803390000000  0.4219820000000 1.0
C      1  0.4608610000000  0.4729050000000  0.4173850000000 1.0
C      1  0.5436370000000  0.5388680000000  0.5753410000000 1.0
C      1  0.5314500000000  0.4292410000000  0.5556340000000 1.0
C      1  0.4563880000000  0.5388830000000  0.5753480000000 1.0
C      1  0.5780080000000  0.4488360000000  0.4802980000000 1.0
C      1  0.4488430000000  0.5197100000000  0.4219900000000 1.0
C      1  0.5196950000000  0.5780250000000  0.4488600000000 1.0
C      1  0.5753320000000  0.4563550000000  0.5388760000000 1.0
C      1  0.5826210000000  0.5391080000000  0.5271200000000 1.0
C      1  0.4219710000000  0.4488630000000  0.4803100000000 1.0
C      1  0.5556400000000  0.4685470000000  0.4292470000000 1.0
C      1  0.5436120000000  0.4611170000000  0.4246520000000 1.0
C      1  0.4608740000000  0.4728720000000  0.5826100000000 1.0
C      1  0.5271010000000  0.4173910000000  0.4608540000000 1.0
C      1  0.5511510000000  0.5196920000000  0.4219820000000 1.0
C      1  0.5391260000000  0.5271280000000  0.4173900000000 1.0
C      1  0.4563750000000  0.4611010000000  0.5753320000000 1.0
C      1  0.4728710000000  0.4173850000000  0.5391130000000 1.0
C      1  0.4803050000000  0.4219750000000  0.5511400000000 1.0
C      1  0.4803240000000  0.5780320000000  0.4488630000000 1.0
C      1  0.4927150000000  0.4925880000000  0.4052210000000 1.0
C      1  0.5780110000000  0.4488280000000  0.5196690000000 1.0
C      1  0.5072850000000  0.5074120000000  0.5947790000000 1.0
C      1  0.4292450000000  0.4443680000000  0.4685360000000 1.0
C      1  0.4219740000000  0.4488550000000  0.5196810000000 1.0
C      1  0.5072670000000  0.4925850000000  0.4052200000000 1.0
C      1  0.4173930000000  0.5391470000000  0.4728960000000 1.0
C      1  0.4927300000000  0.4925490000000  0.5947770000000 1.0
C      1  0.5707500000000  0.5556450000000  0.4685480000000 1.0
C      1  0.5780290000000  0.5511370000000  0.5196900000000 1.0
C      1  0.4927180000000  0.5074530000000  0.4052240000000 1.0
C      1  0.5314750000000  0.5707260000000  0.5556630000000 1.0
C      1  0.4685340000000  0.4292520000000  0.5556390000000 1.0
C      1  0.5314660000000  0.5707480000000  0.4443610000000 1.0
C      1  0.4925830000000  0.5947810000000  0.4927440000000 1.0
C      1  0.5074160000000  0.4052220000000  0.4927040000000 1.0
C      1  0.4685250000000  0.4292740000000  0.4443370000000 1.0
C      1  0.5072700000000  0.5074510000000  0.4052230000000 1.0
C      1  0.5343890000000  0.5610030000000  0.4351220000000 1.0
C      1  0.4389960000000  0.4351160000000  0.5343750000000 1.0
C      1  0.5173750000000  0.4835240000000  0.5924100000000 1.0
C      1  0.5711540000000  0.4617350000000  0.4491480000000 1.0
C      1  0.4075830000000  0.4826420000000  0.5164580000000 1.0
C      1  0.5382490000000  0.4491700000000  0.4288220000000 1.0
C      1  0.5924170000000  0.5173580000000  0.4835420000000 1.0
C      1  0.4826340000000  0.4835300000000  0.5924130000000 1.0
C      1  0.5648980000000  0.5343600000000  0.5609970000000 1.0
C      1  0.4114580000000  0.4724920000000  0.4772700000000 1.0
C      1  0.5343990000000  0.5609760000000  0.5648970000000 1.0
C      1  0.5227490000000  0.5885260000000  0.5275440000000 1.0
C      1  0.4351240000000  0.5343830000000  0.5610070000000 1.0
C      1  0.4835600000000  0.5924210000000  0.4826490000000 1.0
C      1  0.4656010000000  0.4390240000000  0.4351030000000 1.0
C      1  0.5648860000000  0.4655930000000  0.5609830000000 1.0
C      1  0.5164370000000  0.4075860000000  0.4826090000000 1.0
C      1  0.4389910000000  0.4351300000000  0.4656080000000 1.0
C      1  0.5924110000000  0.4826170000000  0.4835350000000 1.0
C      1  0.5610090000000  0.5648700000000  0.5343920000000 1.0
C      1  0.5164400000000  0.4075790000000  0.5173510000000 1.0
C      1  0.5610040000000  0.5648840000000  0.4656250000000 1.0
C      1  0.4826250000000  0.5164760000000  0.4075900000000 1.0
C      1  0.5508290000000  0.4288190000000  0.5382450000000 1.0
C      1  0.4656220000000  0.5610140000000  0.4351280000000 1.0
C      1  0.5227450000000  0.5885370000000  0.4724880000000 1.0
C      1  0.4458530000000  0.4937160000000  0.5783690000000 1.0
C      1  0.4772550000000  0.4114630000000  0.5275120000000 1.0
C      1  0.4826400000000  0.5164390000000  0.5924200000000 1.0
C      1  0.4288380000000  0.5382860000000  0.4491750000000 1.0
C      1  0.5924190000000  0.5173510000000  0.5164510000000 1.0
C      1  0.4617400000000  0.5508590000000  0.4288490000000 1.0
C      1  0.4075810000000  0.4826490000000  0.4835490000000 1.0
C      1  0.4216430000000  0.5541670000000  0.4937400000000 1.0
C      1  0.4288250000000  0.4617590000000  0.4491600000000 1.0
C      1  0.5711620000000  0.4617140000000  0.5508250000000 1.0
C      1  0.4390130000000  0.5649050000000  0.4656340000000 1.0
C      1  0.5173660000000  0.5164700000000  0.4075870000000 1.0
C      1  0.4724690000000  0.5227550000000  0.4114710000000 1.0
C      1  0.4937050000000  0.4216460000000  0.4458330000000 1.0
C      1  0.5343780000000  0.4389860000000  0.5648720000000 1.0
C      1  0.4772860000000  0.5885340000000  0.5275480000000 1.0
C      1  0.5885320000000  0.4724520000000  0.5227190000000 1.0
C      1  0.5541440000000  0.4937290000000  0.4216280000000 1.0
C      1  0.4656320000000  0.5609880000000  0.5649020000000 1.0
C      1  0.4724610000000  0.4772910000000  0.4114620000000 1.0
C      1  0.5062870000000  0.5783760000000  0.4458640000000 1.0
C      1  0.5173600000000  0.4835610000000  0.4075800000000 1.0
C      1  0.4075870000000  0.5173900000000  0.4835560000000 1.0
C      1  0.5609810000000  0.4351090000000  0.4655980000000 1.0
C      1  0.4826190000000  0.4835670000000  0.4075830000000 1.0
C      1  0.5275170000000  0.4772810000000  0.4114580000000 1.0
C      1  0.4288330000000  0.4617390000000  0.5508360000000 1.0
C      1  0.5783560000000  0.4458360000000  0.4937050000000 1.0
C      1  0.5711750000000  0.5382410000000  0.5508400000000 1.0
C      1  0.5711670000000  0.5382610000000  0.4491640000000 1.0
C      1  0.4114710000000  0.5275390000000  0.5227450000000 1.0
C      1  0.4772810000000  0.5885450000000  0.4724920000000 1.0
C      1  0.4724750000000  0.4772550000000  0.5885330000000 1.0
C      1  0.5062600000000  0.4216440000000  0.4458320000000 1.0
C      1  0.4491520000000  0.4288360000000  0.5382530000000 1.0
C      1  0.5885290000000  0.4724610000000  0.4772550000000 1.0
C      1  0.5541570000000  0.4936970000000  0.5783600000000 1.0
C      1  0.4937400000000  0.5783560000000  0.5541680000000 1.0
C      1  0.4216240000000  0.4458630000000  0.4937180000000 1.0
C      1  0.4216440000000  0.5541640000000  0.5062950000000 1.0
C      1  0.5783760000000  0.5541370000000  0.5062820000000 1.0
C      1  0.5275390000000  0.5227090000000  0.5885380000000 1.0
C      1  0.5343680000000  0.4390120000000  0.4350980000000 1.0
C      1  0.4491710000000  0.5711810000000  0.4617550000000 1.0
C      1  0.5508230000000  0.4288340000000  0.4617180000000 1.0
C      1  0.4937320000000  0.5783780000000  0.4458650000000 1.0
C      1  0.5508540000000  0.5711480000000  0.5382740000000 1.0
C      1  0.4491770000000  0.5711660000000  0.5382820000000 1.0
C      1  0.5227140000000  0.4114660000000  0.4724520000000 1.0
C      1  0.4114680000000  0.5275480000000  0.4772810000000 1.0
C      1  0.4288460000000  0.5382650000000  0.5508520000000 1.0
C      1  0.4656110000000  0.4389970000000  0.5648780000000 1.0
C      1  0.4351020000000  0.4656400000000  0.4390030000000 1.0
C      1  0.5609870000000  0.4350950000000  0.5343660000000 1.0
C      1  0.5275310000000  0.4772450000000  0.5885290000000 1.0
C      1  0.5062950000000  0.5783540000000  0.5541670000000 1.0
C      1  0.5885420000000  0.5275080000000  0.5227300000000 1.0
C      1  0.4351140000000  0.5344070000000  0.4390170000000 1.0
C      1  0.4835630000000  0.5924140000000  0.5173910000000 1.0
C      1  0.5648880000000  0.5343850000000  0.4390070000000 1.0
C      1  0.4458560000000  0.5062710000000  0.5783720000000 1.0
C      1  0.5062680000000  0.4216220000000  0.5541350000000 1.0
C      1  0.4216250000000  0.4458610000000  0.5062730000000 1.0
C      1  0.4390190000000  0.5648910000000  0.5344020000000 1.0
C      1  0.4772510000000  0.4114740000000  0.4724560000000 1.0
C      1  0.5541590000000  0.5062520000000  0.5783630000000 1.0
C      1  0.5173810000000  0.5164330000000  0.5924170000000 1.0
C      1  0.4351120000000  0.4656150000000  0.5609930000000 1.0
C      1  0.5885380000000  0.5275170000000  0.4772670000000 1.0
C      1  0.4724830000000  0.5227190000000  0.5885420000000 1.0
C      1  0.4937130000000  0.4216240000000  0.5541360000000 1.0
C      1  0.4114620000000  0.4724830000000  0.5227330000000 1.0
C      1  0.5648760000000  0.4656170000000  0.4389930000000 1.0
C      1  0.5275250000000  0.5227450000000  0.4114670000000 1.0
C      1  0.5783750000000  0.5541390000000  0.4937270000000 1.0
C      1  0.5783570000000  0.4458330000000  0.5062600000000 1.0
C      1  0.4617330000000  0.4491540000000  0.5711570000000 1.0
C      1  0.4458430000000  0.5063030000000  0.4216400000000 1.0
C      1  0.5382670000000  0.5508460000000  0.4288430000000 1.0
C      1  0.5924130000000  0.4826100000000  0.5164440000000 1.0
C      1  0.5541470000000  0.5062840000000  0.4216310000000 1.0
C      1  0.5382600000000  0.4491410000000  0.5711510000000 1.0
C      1  0.5227190000000  0.4114550000000  0.5275080000000 1.0
C      1  0.4617220000000  0.4491830000000  0.4288280000000 1.0
C      1  0.4075890000000  0.5173830000000  0.5164650000000 1.0
C      1  0.4458410000000  0.4937480000000  0.4216370000000 1.0
C      1  0.4617510000000  0.5508300000000  0.5711780000000 1.0
C      1  0.4835310000000  0.4075840000000  0.5173530000000 1.0
C      1  0.5164720000000  0.5924090000000  0.5173880000000 1.0
C      1  0.4835280000000  0.4075910000000  0.4826120000000 1.0
C      1  0.4491460000000  0.4288520000000  0.4617260000000 1.0
C      1  0.5508480000000  0.5711640000000  0.4617470000000 1.0
C      1  0.5164690000000  0.5924160000000  0.4826470000000 1.0
C      1  0.5382780000000  0.5508170000000  0.5711720000000 1.0
END
