TITL C240-558783 -0.150653337815965 1000000 -1550.56711992262 0 0 240 (C1) n - 1
REM
REM in /home/chem/mssmkc/work/CARBON/AIRSS/Generating-Clusters/Str-Search/GAP20/LAMMPS-RUNS
REM
REM
REM
REM
REM
REM C240.cell (84d7f054c7ba2f40da3e9df80c02a5c5)
REM
REM
REM
REM
REM
CELL 1.54180  100.00000  100.00000  100.00000   90.00000   90.00000   90.00000
LATT -1
SFAC C  
C      1  0.5240720000000  0.5544600000000  0.4554960000000 1.0
C      1  0.4496770000000  0.4588900000000  0.5255210000000 1.0
C      1  0.5067350000000  0.4940430000000  0.5762660000000 1.0
C      1  0.5552010000000  0.4688830000000  0.4708360000000 1.0
C      1  0.4289430000000  0.4931450000000  0.5073150000000 1.0
C      1  0.5349280000000  0.4669280000000  0.4397920000000 1.0
C      1  0.5761590000000  0.5051100000000  0.4935600000000 1.0
C      1  0.4934330000000  0.4942980000000  0.5704070000000 1.0
C      1  0.5465720000000  0.5256630000000  0.5551590000000 1.0
C      1  0.4355770000000  0.4721230000000  0.4801040000000 1.0
C      1  0.5257340000000  0.5488210000000  0.5433690000000 1.0
C      1  0.5201790000000  0.5655120000000  0.5311020000000 1.0
C      1  0.4559240000000  0.5227760000000  0.5531160000000 1.0
C      1  0.4956430000000  0.5708940000000  0.4901370000000 1.0
C      1  0.4763350000000  0.4482610000000  0.4553250000000 1.0
C      1  0.5448070000000  0.4724740000000  0.5569060000000 1.0
C      1  0.5061560000000  0.4297180000000  0.4962090000000 1.0
C      1  0.4450350000000  0.4558920000000  0.4779960000000 1.0
C      1  0.5700420000000  0.4917700000000  0.4937880000000 1.0
C      1  0.5512900000000  0.5434820000000  0.5228150000000 1.0
C      1  0.5026430000000  0.4238180000000  0.5087050000000 1.0
C      1  0.5559380000000  0.5433830000000  0.4723740000000 1.0
C      1  0.4944450000000  0.5073600000000  0.4240140000000 1.0
C      1  0.5281370000000  0.4453820000000  0.5299600000000 1.0
C      1  0.4751400000000  0.5499460000000  0.4575230000000 1.0
C      1  0.5212510000000  0.5613660000000  0.4737260000000 1.0
C      1  0.4593470000000  0.4859480000000  0.5642700000000 1.0
C      1  0.4804440000000  0.4413300000000  0.5248560000000 1.0
C      1  0.4947880000000  0.5084670000000  0.5699460000000 1.0
C      1  0.4455350000000  0.5332880000000  0.4683550000000 1.0
C      1  0.5758540000000  0.5063320000000  0.5072160000000 1.0
C      1  0.4670360000000  0.5302240000000  0.4400880000000 1.0
C      1  0.4278080000000  0.4934500000000  0.4929820000000 1.0
C      1  0.4405090000000  0.5380070000000  0.4885830000000 1.0
C      1  0.4381910000000  0.4644230000000  0.4687300000000 1.0
C      1  0.5538320000000  0.4663020000000  0.5327530000000 1.0
C      1  0.4480000000000  0.5440030000000  0.4778480000000 1.0
C      1  0.5083330000000  0.5052230000000  0.4299360000000 1.0
C      1  0.4747280000000  0.5180310000000  0.4398830000000 1.0
C      1  0.4854690000000  0.4374330000000  0.4570220000000 1.0
C      1  0.5240460000000  0.4511740000000  0.5425450000000 1.0
C      1  0.4804200000000  0.5627080000000  0.5266130000000 1.0
C      1  0.5632140000000  0.4716510000000  0.5225890000000 1.0
C      1  0.5366120000000  0.4880310000000  0.4395570000000 1.0
C      1  0.4730930000000  0.5569640000000  0.5447150000000 1.0
C      1  0.4653800000000  0.4809150000000  0.4320040000000 1.0
C      1  0.5118830000000  0.5595230000000  0.4625630000000 1.0
C      1  0.5044850000000  0.4913600000000  0.4312870000000 1.0
C      1  0.4283030000000  0.5074530000000  0.4925780000000 1.0
C      1  0.5497400000000  0.4573980000000  0.4775890000000 1.0
C      1  0.4910640000000  0.4943250000000  0.4258590000000 1.0
C      1  0.5262800000000  0.4776000000000  0.4373960000000 1.0
C      1  0.4443960000000  0.4710170000000  0.5313120000000 1.0
C      1  0.5615600000000  0.4584740000000  0.4863450000000 1.0
C      1  0.5552970000000  0.5316600000000  0.5300880000000 1.0
C      1  0.5586790000000  0.5299820000000  0.4685330000000 1.0
C      1  0.4335080000000  0.5298590000000  0.5218110000000 1.0
C      1  0.4793470000000  0.5667590000000  0.4688060000000 1.0
C      1  0.4709480000000  0.4783630000000  0.5644290000000 1.0
C      1  0.5117480000000  0.4437370000000  0.4625010000000 1.0
C      1  0.4684080000000  0.4406380000000  0.5327770000000 1.0
C      1  0.5671320000000  0.4685420000000  0.4788300000000 1.0
C      1  0.5401730000000  0.4858560000000  0.5569770000000 1.0
C      1  0.4860100000000  0.5571030000000  0.5384520000000 1.0
C      1  0.4392330000000  0.4619460000000  0.4898520000000 1.0
C      1  0.4385370000000  0.5408670000000  0.5154530000000 1.0
C      1  0.5583010000000  0.5393200000000  0.5114310000000 1.0
C      1  0.5286980000000  0.5175560000000  0.5616210000000 1.0
C      1  0.5245430000000  0.4453380000000  0.4554940000000 1.0
C      1  0.4707750000000  0.5553940000000  0.4699650000000 1.0
C      1  0.5317350000000  0.4393320000000  0.4654740000000 1.0
C      1  0.4847180000000  0.5611360000000  0.4574970000000 1.0
C      1  0.5303200000000  0.5557440000000  0.5311290000000 1.0
C      1  0.4673640000000  0.5609100000000  0.5329090000000 1.0
C      1  0.5194940000000  0.4375590000000  0.4731150000000 1.0
C      1  0.4375740000000  0.5278010000000  0.4786760000000 1.0
C      1  0.4448820000000  0.5296020000000  0.5305170000000 1.0
C      1  0.4751560000000  0.4444720000000  0.5441380000000 1.0
C      1  0.4562660000000  0.4743330000000  0.4502750000000 1.0
C      1  0.5520430000000  0.4557050000000  0.5225100000000 1.0
C      1  0.5272560000000  0.4820680000000  0.5620620000000 1.0
C      1  0.5138130000000  0.5572300000000  0.5408890000000 1.0
C      1  0.5626110000000  0.5273880000000  0.5183400000000 1.0
C      1  0.4558830000000  0.5237740000000  0.4448740000000 1.0
C      1  0.4937330000000  0.5728820000000  0.5045220000000 1.0
C      1  0.5428330000000  0.5214150000000  0.4475530000000 1.0
C      1  0.4604200000000  0.5152030000000  0.5642040000000 1.0
C      1  0.5137060000000  0.4397870000000  0.5430320000000 1.0
C      1  0.4380860000000  0.4590850000000  0.5167340000000 1.0
C      1  0.4500590000000  0.5415820000000  0.5245310000000 1.0
C      1  0.4787050000000  0.4331860000000  0.4681880000000 1.0
C      1  0.5411720000000  0.5125990000000  0.5564280000000 1.0
C      1  0.5076340000000  0.5077850000000  0.5762650000000 1.0
C      1  0.4558860000000  0.4788080000000  0.5523220000000 1.0
C      1  0.5641730000000  0.5261510000000  0.4818190000000 1.0
C      1  0.4721590000000  0.5231480000000  0.5636920000000 1.0
C      1  0.4873510000000  0.4454530000000  0.5367070000000 1.0
C      1  0.4333010000000  0.4706450000000  0.5222890000000 1.0
C      1  0.5434430000000  0.4765340000000  0.4460360000000 1.0
C      1  0.5303900000000  0.5215050000000  0.4323070000000 1.0
C      1  0.5584120000000  0.5392490000000  0.4856200000000 1.0
C      1  0.5631870000000  0.4595070000000  0.5150740000000 1.0
C      1  0.4663470000000  0.4684660000000  0.5541160000000 1.0
C      1  0.4631470000000  0.5112810000000  0.4451060000000 1.0
C      1  0.5323380000000  0.5303470000000  0.4437930000000 1.0
C      1  0.5694790000000  0.4936210000000  0.5080560000000 1.0
C      1  0.5412990000000  0.5138090000000  0.4355270000000 1.0
C      1  0.5323040000000  0.4684830000000  0.5610040000000 1.0
C      1  0.5173520000000  0.4352440000000  0.5307670000000 1.0
C      1  0.4680370000000  0.4714860000000  0.4423350000000 1.0
C      1  0.4294490000000  0.5076670000000  0.5069330000000 1.0
C      1  0.4550810000000  0.4855310000000  0.4397890000000 1.0
C      1  0.4664430000000  0.5331310000000  0.5544320000000 1.0
C      1  0.4895130000000  0.4253230000000  0.5049220000000 1.0
C      1  0.5076830000000  0.5752690000000  0.5069070000000 1.0
C      1  0.4925760000000  0.4310720000000  0.4912670000000 1.0
C      1  0.4692470000000  0.4440140000000  0.4671100000000 1.0
C      1  0.5327860000000  0.5592940000000  0.4650900000000 1.0
C      1  0.5098730000000  0.5700660000000  0.4940330000000 1.0
C      1  0.5349020000000  0.5307300000000  0.5603060000000 1.0
C      1  0.4835150000000  0.4605920000000  0.4561520000000 1.0
C      1  0.5378500000000  0.4610670000000  0.4847300000000 1.0
C      1  0.5198030000000  0.4451810000000  0.4849060000000 1.0
C      1  0.4927860000000  0.5428380000000  0.4690360000000 1.0
C      1  0.5168920000000  0.4853260000000  0.5525790000000 1.0
C      1  0.4563450000000  0.4711100000000  0.5079710000000 1.0
C      1  0.4859670000000  0.5166790000000  0.4486340000000 1.0
C      1  0.4840770000000  0.4528150000000  0.4799470000000 1.0
C      1  0.5371220000000  0.4814040000000  0.4602950000000 1.0
C      1  0.4938330000000  0.5555270000000  0.4903300000000 1.0
C      1  0.4823200000000  0.4650550000000  0.5330390000000 1.0
C      1  0.5089190000000  0.5100400000000  0.4435730000000 1.0
C      1  0.4609690000000  0.4801130000000  0.4626620000000 1.0
C      1  0.4476550000000  0.4807980000000  0.4847220000000 1.0
C      1  0.5184530000000  0.5394160000000  0.4626740000000 1.0
C      1  0.5418880000000  0.5145870000000  0.4600690000000 1.0
C      1  0.5521220000000  0.5178840000000  0.4857520000000 1.0
C      1  0.5389160000000  0.4624130000000  0.5170980000000 1.0
C      1  0.4822000000000  0.4859450000000  0.4541060000000 1.0
C      1  0.4613710000000  0.5377410000000  0.4827360000000 1.0
C      1  0.5504370000000  0.5189960000000  0.5133400000000 1.0
C      1  0.4622860000000  0.5385410000000  0.5173560000000 1.0
C      1  0.4814670000000  0.5544570000000  0.5150580000000 1.0
C      1  0.5297150000000  0.5069210000000  0.4563810000000 1.0
C      1  0.5180510000000  0.4647960000000  0.4695960000000 1.0
C      1  0.5061670000000  0.5082780000000  0.5526880000000 1.0
C      1  0.4718140000000  0.5470220000000  0.4816600000000 1.0
C      1  0.4940020000000  0.4928280000000  0.4511620000000 1.0
C      1  0.4865740000000  0.5470070000000  0.4817500000000 1.0
C      1  0.5057510000000  0.4564440000000  0.4662080000000 1.0
C      1  0.4813860000000  0.5176640000000  0.5517870000000 1.0
C      1  0.5455250000000  0.5320610000000  0.5056490000000 1.0
C      1  0.5177950000000  0.4822760000000  0.4492760000000 1.0
C      1  0.5231410000000  0.5228650000000  0.5403250000000 1.0
C      1  0.5053580000000  0.5465620000000  0.4649590000000 1.0
C      1  0.4933300000000  0.5449280000000  0.5373140000000 1.0
C      1  0.5380820000000  0.5364570000000  0.5179710000000 1.0
C      1  0.5119310000000  0.5458340000000  0.5185870000000 1.0
C      1  0.5524490000000  0.5057850000000  0.4930150000000 1.0
C      1  0.5455420000000  0.5218310000000  0.4715400000000 1.0
C      1  0.4816600000000  0.5369630000000  0.5329250000000 1.0
C      1  0.4956760000000  0.5070250000000  0.4488940000000 1.0
C      1  0.5058710000000  0.5504090000000  0.5075590000000 1.0
C      1  0.5263730000000  0.5431080000000  0.5225070000000 1.0
C      1  0.5178270000000  0.4639250000000  0.5390010000000 1.0
C      1  0.5569520000000  0.4927720000000  0.4880490000000 1.0
C      1  0.4582870000000  0.4763350000000  0.4753720000000 1.0
C      1  0.5133570000000  0.4558420000000  0.5168090000000 1.0
C      1  0.5189260000000  0.5154340000000  0.4514390000000 1.0
C      1  0.4616590000000  0.4616940000000  0.5178550000000 1.0
C      1  0.4826970000000  0.4501390000000  0.5135930000000 1.0
C      1  0.4435090000000  0.4924670000000  0.4915680000000 1.0
C      1  0.5067920000000  0.5455450000000  0.5334330000000 1.0
C      1  0.4769510000000  0.4712070000000  0.5442530000000 1.0
C      1  0.4948820000000  0.4576140000000  0.5345730000000 1.0
C      1  0.4921100000000  0.4578950000000  0.4679490000000 1.0
C      1  0.4924500000000  0.4499140000000  0.5038880000000 1.0
C      1  0.4938360000000  0.5149220000000  0.5573280000000 1.0
C      1  0.5566530000000  0.4938010000000  0.5143760000000 1.0
C      1  0.4590010000000  0.5242230000000  0.4735450000000 1.0
C      1  0.4653590000000  0.5044640000000  0.4576760000000 1.0
C      1  0.5104950000000  0.5547340000000  0.4934350000000 1.0
C      1  0.5251940000000  0.5389390000000  0.4766040000000 1.0
C      1  0.5418940000000  0.4746910000000  0.5278670000000 1.0
C      1  0.5215040000000  0.4770220000000  0.5416820000000 1.0
C      1  0.5211560000000  0.5298440000000  0.4525910000000 1.0
C      1  0.4791710000000  0.5241870000000  0.4591630000000 1.0
C      1  0.4448990000000  0.5077280000000  0.5071180000000 1.0
C      1  0.4822670000000  0.5376290000000  0.4601760000000 1.0
C      1  0.4715810000000  0.4940390000000  0.5441570000000 1.0
C      1  0.5407450000000  0.5058790000000  0.5439710000000 1.0
C      1  0.5473570000000  0.4803770000000  0.4697580000000 1.0
C      1  0.5301260000000  0.4932800000000  0.4524110000000 1.0
C      1  0.4697560000000  0.4913820000000  0.4585290000000 1.0
C      1  0.5055990000000  0.4933810000000  0.5530270000000 1.0
C      1  0.4898380000000  0.4452770000000  0.4902230000000 1.0
C      1  0.5075160000000  0.4595270000000  0.5295840000000 1.0
C      1  0.5204720000000  0.5363560000000  0.5364980000000 1.0
C      1  0.4625890000000  0.5174240000000  0.5396220000000 1.0
C      1  0.4587890000000  0.4616960000000  0.4811720000000 1.0
C      1  0.4445760000000  0.4924960000000  0.5072230000000 1.0
C      1  0.4519200000000  0.4831130000000  0.5296180000000 1.0
C      1  0.5066320000000  0.4506960000000  0.5058130000000 1.0
C      1  0.4584830000000  0.4873060000000  0.5404990000000 1.0
C      1  0.4522180000000  0.4834310000000  0.5146200000000 1.0
C      1  0.5337310000000  0.4822920000000  0.5362100000000 1.0
C      1  0.4693000000000  0.4527840000000  0.4783380000000 1.0
C      1  0.4529230000000  0.5178070000000  0.5295440000000 1.0
C      1  0.5230460000000  0.4749960000000  0.4617700000000 1.0
C      1  0.5359470000000  0.5313910000000  0.4797230000000 1.0
C      1  0.4926850000000  0.4879970000000  0.5576100000000 1.0
C      1  0.5252280000000  0.4580480000000  0.4804900000000 1.0
C      1  0.5202840000000  0.5512590000000  0.4841720000000 1.0
C      1  0.4679450000000  0.5172880000000  0.4652770000000 1.0
C      1  0.5137490000000  0.4416580000000  0.4962570000000 1.0
C      1  0.5514940000000  0.5061300000000  0.5074850000000 1.0
C      1  0.5427200000000  0.5235020000000  0.5256890000000 1.0
C      1  0.4917370000000  0.5566520000000  0.5058500000000 1.0
C      1  0.5350840000000  0.5164350000000  0.5351650000000 1.0
C      1  0.4444870000000  0.5073790000000  0.4910860000000 1.0
C      1  0.4746530000000  0.5287320000000  0.5421830000000 1.0
C      1  0.4803690000000  0.4717470000000  0.4495110000000 1.0
C      1  0.5426140000000  0.4726930000000  0.4929900000000 1.0
C      1  0.4751910000000  0.4602880000000  0.5208360000000 1.0
C      1  0.4573000000000  0.5285400000000  0.5077720000000 1.0
C      1  0.4806230000000  0.4840720000000  0.5514160000000 1.0
C      1  0.5280870000000  0.4536400000000  0.5182480000000 1.0
C      1  0.4520780000000  0.4685940000000  0.4947080000000 1.0
C      1  0.5050620000000  0.4854680000000  0.4444210000000 1.0
C      1  0.5435940000000  0.4724480000000  0.5064850000000 1.0
C      1  0.5180670000000  0.5155210000000  0.5519630000000 1.0
C      1  0.4750390000000  0.5424030000000  0.5209320000000 1.0
C      1  0.5453990000000  0.5320210000000  0.4914860000000 1.0
C      1  0.4529240000000  0.5165560000000  0.5147370000000 1.0
C      1  0.5512480000000  0.4810690000000  0.5169160000000 1.0
C      1  0.4493840000000  0.5186520000000  0.4842620000000 1.0
C      1  0.4727930000000  0.5073740000000  0.5439970000000 1.0
C      1  0.5404310000000  0.4924730000000  0.5443080000000 1.0
C      1  0.5483990000000  0.4826330000000  0.4841170000000 1.0
C      1  0.4536680000000  0.5304570000000  0.4942710000000 1.0
END
