TITL C240-168431 223.987626960586 1000000 -1635.19342959936 0 0 240 (C1) n - 1
REM
REM in /home/chem/mssmkc/work/CARBON/AIRSS/Generating-Clusters/Str-Search/GAP20/LAMMPS-RUNS
REM
REM
REM
REM
REM
REM C240.cell (c4b1b63191e082dcfef67b56cfe4bfbe)
REM
REM
REM
REM
REM
CELL 1.54180  100.00000  100.00000  100.00000   90.00000   90.00000   90.00000
LATT -1
SFAC C  
C      1  0.4950080000000  0.4812250000000  0.4389270000000 1.0
C      1  0.5176480000000  0.4366870000000  0.4909970000000 1.0
C      1  0.5183750000000  0.4381040000000  0.5142260000000 1.0
C      1  0.5186690000000  0.5349600000000  0.4433410000000 1.0
C      1  0.4862390000000  0.4857010000000  0.5585900000000 1.0
C      1  0.4658890000000  0.4492250000000  0.4796570000000 1.0
C      1  0.5147470000000  0.5217790000000  0.4410820000000 1.0
C      1  0.4783980000000  0.4410360000000  0.5134370000000 1.0
C      1  0.5654260000000  0.4940650000000  0.4807380000000 1.0
C      1  0.4557790000000  0.5456210000000  0.4882820000000 1.0
C      1  0.4956270000000  0.4830550000000  0.5682460000000 1.0
C      1  0.5125660000000  0.5416150000000  0.4534510000000 1.0
C      1  0.4402030000000  0.4910040000000  0.4820660000000 1.0
C      1  0.4414390000000  0.5138520000000  0.4807250000000 1.0
C      1  0.5061760000000  0.5178410000000  0.4311830000000 1.0
C      1  0.5621800000000  0.5072170000000  0.4828160000000 1.0
C      1  0.5557810000000  0.4856350000000  0.4762430000000 1.0
C      1  0.5167170000000  0.4301940000000  0.5030880000000 1.0
C      1  0.5173950000000  0.4782840000000  0.4446470000000 1.0
C      1  0.4800030000000  0.5676790000000  0.4895740000000 1.0
C      1  0.5624360000000  0.4803550000000  0.5248120000000 1.0
C      1  0.4846910000000  0.5638890000000  0.5017920000000 1.0
C      1  0.4744900000000  0.5573650000000  0.4823330000000 1.0
C      1  0.5523880000000  0.4810130000000  0.4637640000000 1.0
C      1  0.5081990000000  0.4818350000000  0.4354630000000 1.0
C      1  0.5160420000000  0.5449570000000  0.5461370000000 1.0
C      1  0.4550920000000  0.5422120000000  0.5113420000000 1.0
C      1  0.4866910000000  0.4533890000000  0.4525180000000 1.0
C      1  0.4793430000000  0.5651330000000  0.5143100000000 1.0
C      1  0.4814770000000  0.4655050000000  0.4492420000000 1.0
C      1  0.5162450000000  0.5272020000000  0.5633440000000 1.0
C      1  0.5313190000000  0.5511530000000  0.4787910000000 1.0
C      1  0.4856120000000  0.4715380000000  0.4374470000000 1.0
C      1  0.4932180000000  0.5532930000000  0.5468950000000 1.0
C      1  0.4783080000000  0.5304500000000  0.4452980000000 1.0
C      1  0.5196410000000  0.5329270000000  0.5511740000000 1.0
C      1  0.5174610000000  0.5587350000000  0.5094070000000 1.0
C      1  0.5243630000000  0.5619950000000  0.4842510000000 1.0
C      1  0.5481260000000  0.5213860000000  0.4560490000000 1.0
C      1  0.5428340000000  0.4985440000000  0.4479870000000 1.0
C      1  0.4922070000000  0.5212080000000  0.5661000000000 1.0
C      1  0.4796200000000  0.5436820000000  0.4483370000000 1.0
C      1  0.5472320000000  0.5444190000000  0.5139240000000 1.0
C      1  0.5526910000000  0.5451570000000  0.4901380000000 1.0
C      1  0.5087170000000  0.4812420000000  0.5642270000000 1.0
C      1  0.5427910000000  0.4884630000000  0.4573580000000 1.0
C      1  0.4551020000000  0.5109300000000  0.4502230000000 1.0
C      1  0.5283030000000  0.4377750000000  0.4825710000000 1.0
C      1  0.4822940000000  0.5239060000000  0.4338820000000 1.0
C      1  0.4817560000000  0.4320420000000  0.5037200000000 1.0
C      1  0.4723790000000  0.4368180000000  0.4814770000000 1.0
C      1  0.4551990000000  0.4867470000000  0.4530990000000 1.0
C      1  0.4798470000000  0.5333850000000  0.5474980000000 1.0
C      1  0.5016910000000  0.4554270000000  0.5409040000000 1.0
C      1  0.5212070000000  0.4666320000000  0.5512350000000 1.0
C      1  0.5238820000000  0.4660550000000  0.4454900000000 1.0
C      1  0.4624190000000  0.4567180000000  0.5168660000000 1.0
C      1  0.4831720000000  0.5466520000000  0.5505510000000 1.0
C      1  0.5494280000000  0.4788470000000  0.5445960000000 1.0
C      1  0.4615760000000  0.4985160000000  0.4500720000000 1.0
C      1  0.4518960000000  0.4809570000000  0.4649620000000 1.0
C      1  0.5449380000000  0.5497360000000  0.4813960000000 1.0
C      1  0.5501960000000  0.5378370000000  0.5022660000000 1.0
C      1  0.5412980000000  0.5003290000000  0.5507210000000 1.0
C      1  0.4903640000000  0.4530300000000  0.5494780000000 1.0
C      1  0.4898930000000  0.5465870000000  0.4568050000000 1.0
C      1  0.5025920000000  0.5510970000000  0.4542350000000 1.0
C      1  0.4547360000000  0.5131310000000  0.5430310000000 1.0
C      1  0.4932450000000  0.5158060000000  0.4351480000000 1.0
C      1  0.4445180000000  0.5191910000000  0.5365340000000 1.0
C      1  0.5507290000000  0.4762860000000  0.5313170000000 1.0
C      1  0.5397610000000  0.5109960000000  0.4531470000000 1.0
C      1  0.5520870000000  0.5227890000000  0.4688300000000 1.0
C      1  0.4414410000000  0.5212450000000  0.4689030000000 1.0
C      1  0.5145840000000  0.4563710000000  0.5457730000000 1.0
C      1  0.4533060000000  0.4499740000000  0.4859530000000 1.0
C      1  0.4816390000000  0.4741510000000  0.5508380000000 1.0
C      1  0.5053800000000  0.5188910000000  0.5623240000000 1.0
C      1  0.4343860000000  0.5080910000000  0.5171070000000 1.0
C      1  0.4821470000000  0.4372600000000  0.4908690000000 1.0
C      1  0.4503680000000  0.4795660000000  0.5414650000000 1.0
C      1  0.4542010000000  0.5021000000000  0.5509300000000 1.0
C      1  0.5354320000000  0.4519640000000  0.5211280000000 1.0
C      1  0.4382440000000  0.4953050000000  0.5145700000000 1.0
C      1  0.4432430000000  0.5164360000000  0.5231260000000 1.0
C      1  0.5601810000000  0.4911280000000  0.5169720000000 1.0
C      1  0.4544670000000  0.4625600000000  0.5054170000000 1.0
C      1  0.4579800000000  0.4900700000000  0.5456690000000 1.0
C      1  0.4981030000000  0.4486020000000  0.4581870000000 1.0
C      1  0.5167690000000  0.5583420000000  0.4949130000000 1.0
C      1  0.4811790000000  0.4604460000000  0.5539280000000 1.0
C      1  0.5460350000000  0.4557630000000  0.5132850000000 1.0
C      1  0.5290950000000  0.5608150000000  0.5162360000000 1.0
C      1  0.4337620000000  0.5027970000000  0.4840360000000 1.0
C      1  0.5474480000000  0.4517920000000  0.4887570000000 1.0
C      1  0.5463770000000  0.5122530000000  0.5465520000000 1.0
C      1  0.5484840000000  0.4881750000000  0.5531900000000 1.0
C      1  0.4600710000000  0.5501200000000  0.5214130000000 1.0
C      1  0.5611020000000  0.5056180000000  0.5181700000000 1.0
C      1  0.4527050000000  0.5191600000000  0.4609800000000 1.0
C      1  0.5047630000000  0.5495510000000  0.5396950000000 1.0
C      1  0.5110990000000  0.4463480000000  0.4533160000000 1.0
C      1  0.5297350000000  0.4393490000000  0.5221580000000 1.0
C      1  0.4476290000000  0.4545060000000  0.4964580000000 1.0
C      1  0.4609860000000  0.5550720000000  0.4800260000000 1.0
C      1  0.5173920000000  0.4703170000000  0.5646260000000 1.0
C      1  0.5464580000000  0.4595740000000  0.5001500000000 1.0
C      1  0.4664480000000  0.4442170000000  0.5203950000000 1.0
C      1  0.5191590000000  0.4572480000000  0.4545030000000 1.0
C      1  0.5354190000000  0.4496440000000  0.4826230000000 1.0
C      1  0.4837540000000  0.5218800000000  0.5553330000000 1.0
C      1  0.4484700000000  0.5454200000000  0.4997850000000 1.0
C      1  0.5356670000000  0.5487760000000  0.5193920000000 1.0
C      1  0.4371090000000  0.4832820000000  0.5206550000000 1.0
C      1  0.5625870000000  0.5136110000000  0.5288650000000 1.0
C      1  0.4400170000000  0.4819040000000  0.4720260000000 1.0
C      1  0.4477970000000  0.4789170000000  0.5281640000000 1.0
C      1  0.5501480000000  0.5173980000000  0.5346540000000 1.0
C      1  0.5637520000000  0.5179700000000  0.4744630000000 1.0
C      1  0.4730390000000  0.5542340000000  0.5195650000000 1.0
C      1  0.5047430000000  0.4759980000000  0.5089850000000 1.0
C      1  0.4836750000000  0.4922660000000  0.4785600000000 1.0
C      1  0.4809020000000  0.5152080000000  0.4899600000000 1.0
C      1  0.4724220000000  0.4967390000000  0.5026160000000 1.0
C      1  0.4969010000000  0.5283710000000  0.5015390000000 1.0
C      1  0.5019640000000  0.4710070000000  0.4949020000000 1.0
C      1  0.4918870000000  0.4956100000000  0.5231870000000 1.0
C      1  0.5268890000000  0.5069080000000  0.4993860000000 1.0
C      1  0.5150070000000  0.5063950000000  0.5243840000000 1.0
C      1  0.4943590000000  0.5009190000000  0.4717730000000 1.0
C      1  0.5229440000000  0.4925810000000  0.4964080000000 1.0
C      1  0.5075930000000  0.5050440000000  0.4771670000000 1.0
C      1  0.4931770000000  0.4767720000000  0.4840030000000 1.0
C      1  0.5080950000000  0.5186590000000  0.4842720000000 1.0
C      1  0.4955410000000  0.5215390000000  0.5143480000000 1.0
C      1  0.5051950000000  0.4969070000000  0.5298290000000 1.0
C      1  0.5204260000000  0.5180360000000  0.5078210000000 1.0
C      1  0.4935460000000  0.5238410000000  0.4885810000000 1.0
C      1  0.4768550000000  0.5102270000000  0.5047220000000 1.0
C      1  0.4818040000000  0.4834790000000  0.4902240000000 1.0
C      1  0.5098580000000  0.5185000000000  0.5176660000000 1.0
C      1  0.5083830000000  0.4787780000000  0.4841240000000 1.0
C      1  0.5177980000000  0.4844930000000  0.5097510000000 1.0
C      1  0.4921190000000  0.4827430000000  0.5148060000000 1.0
C      1  0.4809230000000  0.4855670000000  0.5052360000000 1.0
C      1  0.5201810000000  0.5183160000000  0.4932520000000 1.0
C      1  0.4863640000000  0.5099190000000  0.5176730000000 1.0
C      1  0.5175860000000  0.4917620000000  0.5227850000000 1.0
C      1  0.4826820000000  0.5068090000000  0.4780550000000 1.0
C      1  0.5138730000000  0.4922600000000  0.4835790000000 1.0
C      1  0.4992360000000  0.4591880000000  0.4679850000000 1.0
C      1  0.4554830000000  0.4948470000000  0.4852690000000 1.0
C      1  0.4811330000000  0.5295230000000  0.5336380000000 1.0
C      1  0.4830630000000  0.4769560000000  0.5372510000000 1.0
C      1  0.5047850000000  0.5135040000000  0.5474310000000 1.0
C      1  0.5451870000000  0.5059400000000  0.5139760000000 1.0
C      1  0.4760490000000  0.4641110000000  0.5160810000000 1.0
C      1  0.4947650000000  0.5120900000000  0.4507460000000 1.0
C      1  0.5379760000000  0.5158760000000  0.5242490000000 1.0
C      1  0.4840480000000  0.5218920000000  0.4574300000000 1.0
C      1  0.4801950000000  0.5420900000000  0.5129260000000 1.0
C      1  0.4989130000000  0.4617990000000  0.5285140000000 1.0
C      1  0.5317870000000  0.5090220000000  0.4662800000000 1.0
C      1  0.5134510000000  0.4514900000000  0.4947870000000 1.0
C      1  0.5035680000000  0.5414100000000  0.5266230000000 1.0
C      1  0.4749150000000  0.4988230000000  0.4583150000000 1.0
C      1  0.4805710000000  0.5436920000000  0.4873970000000 1.0
C      1  0.5091480000000  0.5164330000000  0.4548240000000 1.0
C      1  0.4575860000000  0.5113470000000  0.5186220000000 1.0
C      1  0.5423480000000  0.4913860000000  0.4819690000000 1.0
C      1  0.5253080000000  0.4607720000000  0.4874020000000 1.0
C      1  0.4631650000000  0.5174610000000  0.4718620000000 1.0
C      1  0.4657020000000  0.5089370000000  0.5320600000000 1.0
C      1  0.5235010000000  0.4614700000000  0.5178850000000 1.0
C      1  0.5214240000000  0.4799950000000  0.5443510000000 1.0
C      1  0.5164040000000  0.5220070000000  0.5405230000000 1.0
C      1  0.5227550000000  0.5384790000000  0.4827060000000 1.0
C      1  0.4957320000000  0.4847480000000  0.4544090000000 1.0
C      1  0.5456560000000  0.4912630000000  0.5147000000000 1.0
C      1  0.4557260000000  0.5103810000000  0.4832300000000 1.0
C      1  0.5123630000000  0.4877480000000  0.5515470000000 1.0
C      1  0.4915380000000  0.5334920000000  0.4652510000000 1.0
C      1  0.5311080000000  0.4995390000000  0.5405140000000 1.0
C      1  0.4673150000000  0.5334540000000  0.5072110000000 1.0
C      1  0.4840070000000  0.4758830000000  0.4611750000000 1.0
C      1  0.4627690000000  0.4836960000000  0.4756950000000 1.0
C      1  0.5142320000000  0.4520700000000  0.5101640000000 1.0
C      1  0.4675750000000  0.4935490000000  0.5336830000000 1.0
C      1  0.5345360000000  0.4703170000000  0.4973930000000 1.0
C      1  0.5110930000000  0.4811110000000  0.4586880000000 1.0
C      1  0.4607130000000  0.4854400000000  0.5215920000000 1.0
C      1  0.4885920000000  0.5120990000000  0.5451370000000 1.0
C      1  0.5467410000000  0.5065510000000  0.4865860000000 1.0
C      1  0.5119240000000  0.4667300000000  0.4654660000000 1.0
C      1  0.5070900000000  0.5304440000000  0.4628210000000 1.0
C      1  0.5394370000000  0.5174120000000  0.4773580000000 1.0
C      1  0.4882520000000  0.5478120000000  0.5008300000000 1.0
C      1  0.4612460000000  0.4753960000000  0.4998690000000 1.0
C      1  0.4891720000000  0.4966780000000  0.5476700000000 1.0
C      1  0.5401640000000  0.5263720000000  0.5007610000000 1.0
C      1  0.4542020000000  0.4963010000000  0.5125280000000 1.0
C      1  0.5245770000000  0.5377220000000  0.5192320000000 1.0
C      1  0.4763880000000  0.4608260000000  0.4824500000000 1.0
C      1  0.4860600000000  0.4527440000000  0.4934260000000 1.0
C      1  0.5383860000000  0.4810630000000  0.5226010000000 1.0
C      1  0.5338690000000  0.4936750000000  0.4686080000000 1.0
C      1  0.4674340000000  0.5353210000000  0.4915550000000 1.0
C      1  0.5125150000000  0.5451140000000  0.4912900000000 1.0
C      1  0.5114160000000  0.5454320000000  0.5138710000000 1.0
C      1  0.4830760000000  0.4538120000000  0.5078350000000 1.0
C      1  0.4893750000000  0.5352550000000  0.4795300000000 1.0
C      1  0.5260800000000  0.5113930000000  0.5335230000000 1.0
C      1  0.5291160000000  0.4736380000000  0.5121080000000 1.0
C      1  0.5417310000000  0.5107680000000  0.5003000000000 1.0
C      1  0.5004070000000  0.4568050000000  0.4917620000000 1.0
C      1  0.5030060000000  0.5414170000000  0.5017220000000 1.0
C      1  0.5167940000000  0.5067050000000  0.4643510000000 1.0
C      1  0.4590410000000  0.4914710000000  0.4991460000000 1.0
C      1  0.4751330000000  0.4870960000000  0.4676400000000 1.0
C      1  0.5044180000000  0.4979230000000  0.5447730000000 1.0
C      1  0.4658840000000  0.5191390000000  0.5096600000000 1.0
C      1  0.4824660000000  0.4909340000000  0.5353510000000 1.0
C      1  0.5135060000000  0.5297100000000  0.5279010000000 1.0
C      1  0.4867460000000  0.4697110000000  0.5255070000000 1.0
C      1  0.5181750000000  0.4693500000000  0.4779670000000 1.0
C      1  0.4910950000000  0.4988170000000  0.4570240000000 1.0
C      1  0.4694320000000  0.4745230000000  0.4866910000000 1.0
C      1  0.5080750000000  0.4632410000000  0.5178400000000 1.0
C      1  0.5353120000000  0.4844060000000  0.4926040000000 1.0
C      1  0.5315480000000  0.5258510000000  0.5133080000000 1.0
C      1  0.4879250000000  0.4672020000000  0.4733010000000 1.0
C      1  0.4895880000000  0.5348720000000  0.5227690000000 1.0
C      1  0.4673100000000  0.5218650000000  0.4853850000000 1.0
C      1  0.5134510000000  0.5299720000000  0.4754910000000 1.0
C      1  0.5314050000000  0.5265310000000  0.4878390000000 1.0
C      1  0.4701000000000  0.4770240000000  0.5116390000000 1.0
C      1  0.5191740000000  0.4914500000000  0.4669010000000 1.0
C      1  0.4753680000000  0.5120520000000  0.4659830000000 1.0
C      1  0.5278500000000  0.4869810000000  0.5327370000000 1.0
C      1  0.4798620000000  0.5152520000000  0.5320550000000 1.0
END
