TITL C-102689-8077-18 -7.56687070588672 1000000 -1696.18528190518 0 0 240 (Td) n - 1
REM
REM in /home/chem/mssmkc/work/GAP20/Larger-Clusters/Only-C240-new-series
REM
REM
REM
REM
REM
REM ./C.cell (0485df7495ed2a90f93db84a705cd676)
REM
REM compiler GCC version 8.3.0
REM options -cpp -mtune=generic -march=x86-64 -g -O0
REM seed -1613745526 -1990982863 -1744813721 -834793130 -1690472993 -538281553 1861292561 -227712646 1122300023 1171449317 -700014660 -1256147766 -154308709 -625877489 1255257076 -60427269 -668880882 -560024341 -1723033552 -2000955060 742185790 -811155551 1690153259 1379054975 -6791797 1511347091 -629514202 254303916 648563014 1427802149 -521107923 -1680266916 1469862587
REM
CELL 1.54180  100.00000  100.00000  100.00000   90.00000   90.00000   90.00000
LATT -1
SFAC C  
C      1  0.5043560000000  0.5392500000000  0.4705950000000 1.0
C      1  0.4706030000000  0.5043660000000  0.5392560000000 1.0
C      1  0.5392600000000  0.4706090000000  0.5043660000000 1.0
C      1  0.4956310000000  0.5392580000000  0.5293920000000 1.0
C      1  0.5043730000000  0.4607510000000  0.5294050000000 1.0
C      1  0.4956400000000  0.4607400000000  0.4706080000000 1.0
C      1  0.5293950000000  0.5043630000000  0.4607430000000 1.0
C      1  0.4705990000000  0.4956240000000  0.4607490000000 1.0
C      1  0.5294020000000  0.4956470000000  0.5392530000000 1.0
C      1  0.4607510000000  0.4705940000000  0.4956430000000 1.0
C      1  0.5392490000000  0.5294050000000  0.4956280000000 1.0
C      1  0.4607410000000  0.5293930000000  0.5043620000000 1.0
C      1  0.4705950000000  0.5392500000000  0.5043600000000 1.0
C      1  0.5392510000000  0.5043660000000  0.4705980000000 1.0
C      1  0.5043720000000  0.4706090000000  0.5392590000000 1.0
C      1  0.5293920000000  0.5392590000000  0.4956270000000 1.0
C      1  0.5294060000000  0.4607520000000  0.5043690000000 1.0
C      1  0.4706080000000  0.4607400000000  0.4956440000000 1.0
C      1  0.4607470000000  0.5043620000000  0.5294010000000 1.0
C      1  0.4607440000000  0.4956240000000  0.4706050000000 1.0
C      1  0.5392570000000  0.4956470000000  0.5293970000000 1.0
C      1  0.4956380000000  0.4705940000000  0.4607510000000 1.0
C      1  0.4956330000000  0.5294040000000  0.5392500000000 1.0
C      1  0.5043570000000  0.5293930000000  0.4607410000000 1.0
C      1  0.5687520000000  0.5135770000000  0.4572700000000 1.0
C      1  0.4572660000000  0.5687530000000  0.5135640000000 1.0
C      1  0.5135840000000  0.4572900000000  0.5687640000000 1.0
C      1  0.4312430000000  0.5135670000000  0.5427260000000 1.0
C      1  0.5687630000000  0.4864470000000  0.5427210000000 1.0
C      1  0.4312420000000  0.4864090000000  0.4572840000000 1.0
C      1  0.5427110000000  0.5687630000000  0.4864140000000 1.0
C      1  0.4572880000000  0.4312330000000  0.4864420000000 1.0
C      1  0.5427360000000  0.4312520000000  0.5135800000000 1.0
C      1  0.4864310000000  0.4572630000000  0.4312500000000 1.0
C      1  0.5135600000000  0.5427140000000  0.4312340000000 1.0
C      1  0.4864250000000  0.5427320000000  0.5687510000000 1.0
C      1  0.4572790000000  0.5135760000000  0.5687580000000 1.0
C      1  0.5135570000000  0.5687530000000  0.4572640000000 1.0
C      1  0.5687660000000  0.4572910000000  0.5135740000000 1.0
C      1  0.5427160000000  0.5135680000000  0.4312370000000 1.0
C      1  0.5427300000000  0.4864470000000  0.5687570000000 1.0
C      1  0.4572740000000  0.4864090000000  0.4312480000000 1.0
C      1  0.4864190000000  0.5687620000000  0.5427130000000 1.0
C      1  0.4864370000000  0.4312330000000  0.4572890000000 1.0
C      1  0.5135870000000  0.4312520000000  0.5427340000000 1.0
C      1  0.4312490000000  0.4572630000000  0.4864400000000 1.0
C      1  0.4312360000000  0.5427140000000  0.5135700000000 1.0
C      1  0.5687490000000  0.5427330000000  0.4864160000000 1.0
C      1  0.4842730000000  0.5572030000000  0.4942310000000 1.0
C      1  0.4942460000000  0.4842920000000  0.5572090000000 1.0
C      1  0.5572060000000  0.4942460000000  0.4842800000000 1.0
C      1  0.5157070000000  0.5572100000000  0.5057500000000 1.0
C      1  0.4842940000000  0.4427920000000  0.5057720000000 1.0
C      1  0.5157260000000  0.4427950000000  0.4942470000000 1.0
C      1  0.5057600000000  0.4842750000000  0.4427960000000 1.0
C      1  0.4942320000000  0.5157060000000  0.4427910000000 1.0
C      1  0.5057620000000  0.5157270000000  0.5572030000000 1.0
C      1  0.4427960000000  0.4942320000000  0.5157210000000 1.0
C      1  0.5572070000000  0.5057730000000  0.5157120000000 1.0
C      1  0.4427920000000  0.5057490000000  0.4842870000000 1.0
C      1  0.4942280000000  0.5572030000000  0.4842740000000 1.0
C      1  0.5572090000000  0.4842920000000  0.4942380000000 1.0
C      1  0.4842880000000  0.4942460000000  0.5572080000000 1.0
C      1  0.5057520000000  0.5572100000000  0.5157070000000 1.0
C      1  0.5057700000000  0.4427920000000  0.4842930000000 1.0
C      1  0.4942500000000  0.4427950000000  0.5157260000000 1.0
C      1  0.4427970000000  0.4842750000000  0.5057680000000 1.0
C      1  0.4427900000000  0.5157060000000  0.4942400000000 1.0
C      1  0.5572040000000  0.5157270000000  0.5057540000000 1.0
C      1  0.5157140000000  0.4942320000000  0.4427930000000 1.0
C      1  0.5157190000000  0.5057730000000  0.5572040000000 1.0
C      1  0.4842790000000  0.5057490000000  0.4427940000000 1.0
C      1  0.5297380000000  0.4874130000000  0.5657070000000 1.0
C      1  0.5657010000000  0.5297400000000  0.4873880000000 1.0
C      1  0.4873880000000  0.5657100000000  0.5297210000000 1.0
C      1  0.4702660000000  0.4873810000000  0.4342970000000 1.0
C      1  0.5297250000000  0.5125970000000  0.4342880000000 1.0
C      1  0.4702710000000  0.5126090000000  0.5657070000000 1.0
C      1  0.4342880000000  0.5297220000000  0.5126030000000 1.0
C      1  0.5657130000000  0.4702820000000  0.5126030000000 1.0
C      1  0.4342970000000  0.4702550000000  0.4874070000000 1.0
C      1  0.5125900000000  0.5657050000000  0.4702570000000 1.0
C      1  0.4874060000000  0.4342860000000  0.4702800000000 1.0
C      1  0.5126160000000  0.4343000000000  0.5297410000000 1.0
C      1  0.5657120000000  0.4874130000000  0.5297290000000 1.0
C      1  0.4873970000000  0.5297400000000  0.5657030000000 1.0
C      1  0.5297190000000  0.5657100000000  0.4873840000000 1.0
C      1  0.4342930000000  0.4873810000000  0.4702750000000 1.0
C      1  0.4342930000000  0.5125970000000  0.5297340000000 1.0
C      1  0.5657030000000  0.5126090000000  0.4702620000000 1.0
C      1  0.5125930000000  0.5297230000000  0.4342870000000 1.0
C      1  0.5126130000000  0.4702820000000  0.5657110000000 1.0
C      1  0.4873980000000  0.4702560000000  0.4342980000000 1.0
C      1  0.4702580000000  0.5657040000000  0.5125940000000 1.0
C      1  0.4702790000000  0.4342850000000  0.4874100000000 1.0
C      1  0.5297430000000  0.4343000000000  0.5126120000000 1.0
C      1  0.5185420000000  0.5385420000000  0.5283700000000 1.0
C      1  0.5283770000000  0.5185570000000  0.5385290000000 1.0
C      1  0.5385300000000  0.5283870000000  0.5185390000000 1.0
C      1  0.4814450000000  0.5385260000000  0.4716170000000 1.0
C      1  0.5185510000000  0.4614650000000  0.4716280000000 1.0
C      1  0.4814620000000  0.4614680000000  0.5283850000000 1.0
C      1  0.4716170000000  0.5185350000000  0.4614650000000 1.0
C      1  0.5283780000000  0.4814520000000  0.4614670000000 1.0
C      1  0.4716280000000  0.4814550000000  0.5385390000000 1.0
C      1  0.4614600000000  0.5283680000000  0.4814520000000 1.0
C      1  0.5385370000000  0.4716260000000  0.4814560000000 1.0
C      1  0.4614720000000  0.4716190000000  0.5185540000000 1.0
C      1  0.5283720000000  0.5385420000000  0.5185380000000 1.0
C      1  0.5385320000000  0.5185580000000  0.5283720000000 1.0
C      1  0.5185440000000  0.5283870000000  0.5385280000000 1.0
C      1  0.4716150000000  0.5385260000000  0.4814490000000 1.0
C      1  0.4716300000000  0.4614640000000  0.5185550000000 1.0
C      1  0.5283830000000  0.4614680000000  0.4814580000000 1.0
C      1  0.4614610000000  0.5185350000000  0.4716220000000 1.0
C      1  0.4614710000000  0.4814520000000  0.5283830000000 1.0
C      1  0.5385350000000  0.4814560000000  0.4716230000000 1.0
C      1  0.4814460000000  0.5283680000000  0.4614630000000 1.0
C      1  0.4814610000000  0.4716260000000  0.5385400000000 1.0
C      1  0.5185480000000  0.4716190000000  0.4614700000000 1.0
C      1  0.5482810000000  0.5583440000000  0.4785470000000 1.0
C      1  0.4785560000000  0.5482980000000  0.5583330000000 1.0
C      1  0.5583460000000  0.4785780000000  0.5482920000000 1.0
C      1  0.4516990000000  0.5583340000000  0.5214340000000 1.0
C      1  0.5483040000000  0.4416730000000  0.5214460000000 1.0
C      1  0.4517160000000  0.4416490000000  0.4785730000000 1.0
C      1  0.5214280000000  0.5482860000000  0.4416510000000 1.0
C      1  0.4785640000000  0.4516940000000  0.4416700000000 1.0
C      1  0.5214520000000  0.4517210000000  0.5583460000000 1.0
C      1  0.4416610000000  0.4785420000000  0.4517150000000 1.0
C      1  0.5583320000000  0.5214420000000  0.4517000000000 1.0
C      1  0.4416600000000  0.5214380000000  0.5482930000000 1.0
C      1  0.4785530000000  0.5583440000000  0.5482840000000 1.0
C      1  0.5583290000000  0.5482990000000  0.4785480000000 1.0
C      1  0.5483000000000  0.4785780000000  0.5583390000000 1.0
C      1  0.5214270000000  0.5583350000000  0.4516960000000 1.0
C      1  0.5214530000000  0.4416720000000  0.5483010000000 1.0
C      1  0.4785670000000  0.4416490000000  0.4517190000000 1.0
C      1  0.4416540000000  0.5482860000000  0.5214360000000 1.0
C      1  0.4416680000000  0.4516940000000  0.4785720000000 1.0
C      1  0.5583490000000  0.4517210000000  0.5214440000000 1.0
C      1  0.4517070000000  0.4785420000000  0.4416680000000 1.0
C      1  0.4517080000000  0.5214410000000  0.5583390000000 1.0
C      1  0.5482850000000  0.5214390000000  0.4416540000000 1.0
C      1  0.5407170000000  0.5296450000000  0.4808740000000 1.0
C      1  0.4808760000000  0.5407250000000  0.5296360000000 1.0
C      1  0.5296480000000  0.4808930000000  0.5407240000000 1.0
C      1  0.4592730000000  0.5296380000000  0.5191170000000 1.0
C      1  0.5407290000000  0.4703690000000  0.5191210000000 1.0
C      1  0.4592810000000  0.4703480000000  0.4808890000000 1.0
C      1  0.5191100000000  0.5407210000000  0.4703510000000 1.0
C      1  0.4808860000000  0.4592690000000  0.4703670000000 1.0
C      1  0.5191280000000  0.4592850000000  0.5296470000000 1.0
C      1  0.4703590000000  0.4808700000000  0.4592820000000 1.0
C      1  0.5296350000000  0.5191170000000  0.4592720000000 1.0
C      1  0.4703580000000  0.5191200000000  0.5407220000000 1.0
C      1  0.4808790000000  0.5296450000000  0.5407190000000 1.0
C      1  0.5296330000000  0.5407250000000  0.4808730000000 1.0
C      1  0.5407280000000  0.4808930000000  0.5296420000000 1.0
C      1  0.5191110000000  0.5296380000000  0.4592710000000 1.0
C      1  0.5191270000000  0.4703690000000  0.5407260000000 1.0
C      1  0.4808840000000  0.4703490000000  0.4592830000000 1.0
C      1  0.4703530000000  0.5407210000000  0.5191140000000 1.0
C      1  0.4703640000000  0.4592690000000  0.4808900000000 1.0
C      1  0.5296500000000  0.4592850000000  0.5191230000000 1.0
C      1  0.4592780000000  0.4808700000000  0.4703650000000 1.0
C      1  0.4592760000000  0.5191160000000  0.5296410000000 1.0
C      1  0.5407180000000  0.5191210000000  0.4703530000000 1.0
C      1  0.5066300000000  0.4832230000000  0.5649390000000 1.0
C      1  0.5649350000000  0.5066310000000  0.4832050000000 1.0
C      1  0.4832000000000  0.5649350000000  0.5066130000000 1.0
C      1  0.4933760000000  0.4831990000000  0.4350660000000 1.0
C      1  0.5066150000000  0.5167790000000  0.4350600000000 1.0
C      1  0.4933790000000  0.5167990000000  0.5649350000000 1.0
C      1  0.4350630000000  0.5066140000000  0.5167920000000 1.0
C      1  0.5649390000000  0.4933920000000  0.5167860000000 1.0
C      1  0.4350630000000  0.4933640000000  0.4832170000000 1.0
C      1  0.5167770000000  0.5649390000000  0.4933660000000 1.0
C      1  0.4832220000000  0.4350590000000  0.4933900000000 1.0
C      1  0.5168010000000  0.4350670000000  0.5066320000000 1.0
C      1  0.5649400000000  0.4832230000000  0.5066200000000 1.0
C      1  0.4832140000000  0.5066300000000  0.5649370000000 1.0
C      1  0.5066100000000  0.5649350000000  0.4832000000000 1.0
C      1  0.4350660000000  0.4831990000000  0.4933850000000 1.0
C      1  0.4350610000000  0.5167790000000  0.5066240000000 1.0
C      1  0.5649340000000  0.5167990000000  0.4933710000000 1.0
C      1  0.5167830000000  0.5066140000000  0.4350610000000 1.0
C      1  0.5167950000000  0.4933910000000  0.5649370000000 1.0
C      1  0.4832080000000  0.4933640000000  0.4350650000000 1.0
C      1  0.4933680000000  0.5649390000000  0.5167790000000 1.0
C      1  0.4933880000000  0.4350590000000  0.4832220000000 1.0
C      1  0.5066340000000  0.4350670000000  0.5167990000000 1.0
C      1  0.5253480000000  0.5067510000000  0.5462580000000 1.0
C      1  0.5462570000000  0.5253550000000  0.5067310000000 1.0
C      1  0.5067330000000  0.5462660000000  0.5253380000000 1.0
C      1  0.4746490000000  0.5067270000000  0.4537400000000 1.0
C      1  0.5253440000000  0.4932580000000  0.4537390000000 1.0
C      1  0.4746580000000  0.4932650000000  0.5462630000000 1.0
C      1  0.4537350000000  0.5253370000000  0.4932600000000 1.0
C      1  0.5462640000000  0.4746610000000  0.4932620000000 1.0
C      1  0.4537440000000  0.4746470000000  0.5067460000000 1.0
C      1  0.4932520000000  0.5462550000000  0.4746470000000 1.0
C      1  0.5067450000000  0.4537360000000  0.4746610000000 1.0
C      1  0.4932710000000  0.4537430000000  0.5253540000000 1.0
C      1  0.5462610000000  0.5067510000000  0.5253420000000 1.0
C      1  0.5067380000000  0.5253550000000  0.5462560000000 1.0
C      1  0.5253390000000  0.5462660000000  0.5067290000000 1.0
C      1  0.4537370000000  0.5067270000000  0.4746560000000 1.0
C      1  0.4537420000000  0.4932570000000  0.5253510000000 1.0
C      1  0.5462600000000  0.4932650000000  0.4746520000000 1.0
C      1  0.4932540000000  0.5253380000000  0.4537360000000 1.0
C      1  0.4932690000000  0.4746600000000  0.5462650000000 1.0
C      1  0.5067400000000  0.4746470000000  0.4537430000000 1.0
C      1  0.4746450000000  0.5462550000000  0.4932550000000 1.0
C      1  0.4746620000000  0.4537360000000  0.5067480000000 1.0
C      1  0.5253540000000  0.4537430000000  0.4932670000000 1.0
C      1  0.4762290000000  0.4456050000000  0.4659330000000 1.0
C      1  0.4659230000000  0.4762070000000  0.4456210000000 1.0
C      1  0.4456190000000  0.4659090000000  0.4762320000000 1.0
C      1  0.5237890000000  0.4456250000000  0.5340850000000 1.0
C      1  0.4762150000000  0.5543870000000  0.5340700000000 1.0
C      1  0.5237660000000  0.5543830000000  0.4659120000000 1.0
C      1  0.5340850000000  0.4762370000000  0.5543870000000 1.0
C      1  0.4659220000000  0.5237810000000  0.5543830000000 1.0
C      1  0.5340700000000  0.5237750000000  0.4456090000000 1.0
C      1  0.5543920000000  0.4659360000000  0.5237800000000 1.0
C      1  0.4456110000000  0.5340720000000  0.5237760000000 1.0
C      1  0.5543770000000  0.5340830000000  0.4762130000000 1.0
C      1  0.4659300000000  0.4456050000000  0.4762340000000 1.0
C      1  0.4456170000000  0.4762070000000  0.4659300000000 1.0
C      1  0.4762240000000  0.4659090000000  0.4456220000000 1.0
C      1  0.5340890000000  0.4456250000000  0.5237840000000 1.0
C      1  0.5340670000000  0.5543870000000  0.4762110000000 1.0
C      1  0.4659150000000  0.5543830000000  0.5237710000000 1.0
C      1  0.5543910000000  0.4762370000000  0.5340780000000 1.0
C      1  0.5543790000000  0.5237810000000  0.4659150000000 1.0
C      1  0.4456130000000  0.5237740000000  0.5340770000000 1.0
C      1  0.5237870000000  0.4659360000000  0.5543890000000 1.0
C      1  0.5237680000000  0.5340730000000  0.4456080000000 1.0
C      1  0.4762200000000  0.5340820000000  0.5543810000000 1.0
END
