TITL C-102688-8074-171 114.828009355168 1000000 -1729.94136488157 0 0 240 (Td) n - 1
REM
REM in /home/chem/mssmkc/work/GAP20/Larger-Clusters/Only-C240-new-series
REM
REM
REM
REM
REM
REM ./C.cell (0485df7495ed2a90f93db84a705cd676)
REM
REM compiler GCC version 8.3.0
REM options -cpp -mtune=generic -march=x86-64 -g -O0
REM seed -95894512 669673116 923484637 -1180570326 -205391846 729426104 -1977311943 -1311723687 -1408011015 -1410685673 795313931 2009913016 -1704508227 1682233791 -733179519 1344117107 -1679698637 -774466658 1796032575 -523348079 828630450 124660112 1982279944 306086676 866341733 1194212572 1598038383 1375635068 -809124637 -57451902 -1109358490 -685006984 -1838139812
REM
CELL 1.54180  100.00000  100.00000  100.00000   90.00000   90.00000   90.00000
LATT -1
SFAC C  
C      1  0.5592220000000  0.4861480000000  0.5238970000000 1.0
C      1  0.4861520000000  0.5239000000000  0.5592220000000 1.0
C      1  0.5239000000000  0.5592210000000  0.4861480000000 1.0
C      1  0.4407830000000  0.5138490000000  0.5239110000000 1.0
C      1  0.5592160000000  0.5138570000000  0.4760910000000 1.0
C      1  0.4407790000000  0.4861460000000  0.4761010000000 1.0
C      1  0.5138600000000  0.4760930000000  0.5592160000000 1.0
C      1  0.4861420000000  0.4760990000000  0.4407810000000 1.0
C      1  0.5138460000000  0.5239090000000  0.4407810000000 1.0
C      1  0.4760970000000  0.4407810000000  0.4861460000000 1.0
C      1  0.5239080000000  0.4407820000000  0.5138470000000 1.0
C      1  0.4760940000000  0.5592170000000  0.5138590000000 1.0
C      1  0.4861470000000  0.5592170000000  0.5239090000000 1.0
C      1  0.5239110000000  0.4861440000000  0.5592150000000 1.0
C      1  0.5592160000000  0.5239080000000  0.4861420000000 1.0
C      1  0.5138580000000  0.4407800000000  0.5238990000000 1.0
C      1  0.5138480000000  0.5592210000000  0.4760980000000 1.0
C      1  0.4861470000000  0.4407820000000  0.4760930000000 1.0
C      1  0.4761010000000  0.5138480000000  0.5592220000000 1.0
C      1  0.4760900000000  0.4861500000000  0.4407830000000 1.0
C      1  0.5238970000000  0.5138580000000  0.4407800000000 1.0
C      1  0.4407810000000  0.4760940000000  0.4861520000000 1.0
C      1  0.4407820000000  0.5239000000000  0.5138610000000 1.0
C      1  0.5592210000000  0.4760980000000  0.5138450000000 1.0
C      1  0.4691410000000  0.5517780000000  0.4904180000000 1.0
C      1  0.5517770000000  0.4904160000000  0.4691390000000 1.0
C      1  0.4904190000000  0.4691410000000  0.5517780000000 1.0
C      1  0.5308570000000  0.4482230000000  0.4904050000000 1.0
C      1  0.4691480000000  0.4482180000000  0.5095880000000 1.0
C      1  0.5308540000000  0.5517810000000  0.5095880000000 1.0
C      1  0.4482170000000  0.5095870000000  0.4691510000000 1.0
C      1  0.5517820000000  0.5095890000000  0.5308500000000 1.0
C      1  0.4482240000000  0.4904070000000  0.5308600000000 1.0
C      1  0.5095920000000  0.5308520000000  0.5517800000000 1.0
C      1  0.4904050000000  0.5308580000000  0.4482230000000 1.0
C      1  0.5095840000000  0.4691490000000  0.4482170000000 1.0
C      1  0.5517800000000  0.4691480000000  0.4904050000000 1.0
C      1  0.4904060000000  0.5517810000000  0.4691490000000 1.0
C      1  0.4691510000000  0.4904070000000  0.5517820000000 1.0
C      1  0.4482180000000  0.5308530000000  0.4904190000000 1.0
C      1  0.4482230000000  0.4691420000000  0.5095910000000 1.0
C      1  0.5517790000000  0.5308570000000  0.5095850000000 1.0
C      1  0.5095870000000  0.4482230000000  0.4691400000000 1.0
C      1  0.5095890000000  0.5517780000000  0.5308580000000 1.0
C      1  0.4904180000000  0.4482180000000  0.5308530000000 1.0
C      1  0.5308600000000  0.5095860000000  0.5517770000000 1.0
C      1  0.5308500000000  0.4904170000000  0.4482170000000 1.0
C      1  0.4691390000000  0.5095900000000  0.4482240000000 1.0
C      1  0.4948260000000  0.5150390000000  0.4283690000000 1.0
C      1  0.5150380000000  0.4283690000000  0.4948280000000 1.0
C      1  0.4283690000000  0.4948300000000  0.5150420000000 1.0
C      1  0.5051590000000  0.4849700000000  0.4283660000000 1.0
C      1  0.4948430000000  0.4849600000000  0.5716320000000 1.0
C      1  0.5051720000000  0.5150310000000  0.5716330000000 1.0
C      1  0.4849620000000  0.5716320000000  0.4948410000000 1.0
C      1  0.5150320000000  0.5716330000000  0.5051690000000 1.0
C      1  0.4849690000000  0.4283660000000  0.5051630000000 1.0
C      1  0.5716340000000  0.5051680000000  0.5150280000000 1.0
C      1  0.4283650000000  0.5051630000000  0.4849730000000 1.0
C      1  0.5716310000000  0.4948390000000  0.4849580000000 1.0
C      1  0.5150280000000  0.4948400000000  0.4283650000000 1.0
C      1  0.4283660000000  0.5150320000000  0.4948430000000 1.0
C      1  0.4948390000000  0.4283660000000  0.5150310000000 1.0
C      1  0.4849580000000  0.5051690000000  0.4283690000000 1.0
C      1  0.4849730000000  0.4948290000000  0.5716340000000 1.0
C      1  0.5150420000000  0.5051620000000  0.5716320000000 1.0
C      1  0.5716330000000  0.4849690000000  0.4948260000000 1.0
C      1  0.5716330000000  0.5150380000000  0.5051590000000 1.0
C      1  0.4283680000000  0.4849610000000  0.5051720000000 1.0
C      1  0.5051640000000  0.5716320000000  0.5150390000000 1.0
C      1  0.5051670000000  0.4283690000000  0.4849600000000 1.0
C      1  0.4948300000000  0.5716330000000  0.4849710000000 1.0
C      1  0.5305500000000  0.4595740000000  0.5505770000000 1.0
C      1  0.4595760000000  0.5505790000000  0.5305500000000 1.0
C      1  0.5505770000000  0.5305480000000  0.4595720000000 1.0
C      1  0.4694600000000  0.5404200000000  0.5505880000000 1.0
C      1  0.5305360000000  0.5404290000000  0.4494170000000 1.0
C      1  0.4694540000000  0.4595770000000  0.4494180000000 1.0
C      1  0.5404300000000  0.4494180000000  0.5305360000000 1.0
C      1  0.4595750000000  0.4494170000000  0.4694580000000 1.0
C      1  0.5404190000000  0.5505860000000  0.4694560000000 1.0
C      1  0.4494150000000  0.4694570000000  0.4595790000000 1.0
C      1  0.5505880000000  0.4694570000000  0.5404170000000 1.0
C      1  0.4494200000000  0.5305380000000  0.5404320000000 1.0
C      1  0.4595790000000  0.5305380000000  0.5505890000000 1.0
C      1  0.5505880000000  0.4595760000000  0.5305350000000 1.0
C      1  0.5305360000000  0.5505870000000  0.4595760000000 1.0
C      1  0.5404310000000  0.4694560000000  0.5505760000000 1.0
C      1  0.5404180000000  0.5305480000000  0.4494150000000 1.0
C      1  0.4595720000000  0.4694580000000  0.4494200000000 1.0
C      1  0.4494190000000  0.5404200000000  0.5305510000000 1.0
C      1  0.4494160000000  0.4595750000000  0.4694600000000 1.0
C      1  0.5505770000000  0.5404290000000  0.4694540000000 1.0
C      1  0.4694550000000  0.4494190000000  0.4595750000000 1.0
C      1  0.4694590000000  0.5505780000000  0.5404310000000 1.0
C      1  0.5305500000000  0.4494160000000  0.5404180000000 1.0
C      1  0.5200100000000  0.5407150000000  0.5301230000000 1.0
C      1  0.5407160000000  0.5301240000000  0.5200060000000 1.0
C      1  0.5301260000000  0.5200070000000  0.5407140000000 1.0
C      1  0.4799970000000  0.4592810000000  0.5301220000000 1.0
C      1  0.5200070000000  0.4592870000000  0.4698730000000 1.0
C      1  0.4799860000000  0.5407160000000  0.4698820000000 1.0
C      1  0.4592880000000  0.4698740000000  0.5200110000000 1.0
C      1  0.5407150000000  0.4698810000000  0.4799850000000 1.0
C      1  0.4592810000000  0.5301220000000  0.4799980000000 1.0
C      1  0.4698820000000  0.4799870000000  0.5407170000000 1.0
C      1  0.5301200000000  0.4799960000000  0.4592800000000 1.0
C      1  0.4698720000000  0.5200100000000  0.4592890000000 1.0
C      1  0.5407180000000  0.5200090000000  0.5301200000000 1.0
C      1  0.5301230000000  0.5407160000000  0.5200080000000 1.0
C      1  0.5200110000000  0.5301210000000  0.5407160000000 1.0
C      1  0.4592880000000  0.4799880000000  0.5301260000000 1.0
C      1  0.4592800000000  0.5200080000000  0.4698830000000 1.0
C      1  0.5407140000000  0.4799950000000  0.4698720000000 1.0
C      1  0.4698810000000  0.4592820000000  0.5200090000000 1.0
C      1  0.4698730000000  0.5407150000000  0.4799970000000 1.0
C      1  0.5301230000000  0.4592870000000  0.4799860000000 1.0
C      1  0.4799970000000  0.4698740000000  0.5407160000000 1.0
C      1  0.4799860000000  0.5301240000000  0.4592880000000 1.0
C      1  0.5200060000000  0.4698810000000  0.4592800000000 1.0
C      1  0.5052040000000  0.4461680000000  0.4562560000000 1.0
C      1  0.4461680000000  0.4562570000000  0.5052080000000 1.0
C      1  0.4562540000000  0.5052070000000  0.4461700000000 1.0
C      1  0.4947870000000  0.5538370000000  0.4562640000000 1.0
C      1  0.5052070000000  0.5538320000000  0.5437430000000 1.0
C      1  0.4948010000000  0.4461620000000  0.5437370000000 1.0
C      1  0.5538330000000  0.5437420000000  0.5052030000000 1.0
C      1  0.4461630000000  0.5437370000000  0.4948030000000 1.0
C      1  0.5538360000000  0.4562630000000  0.4947860000000 1.0
C      1  0.5437350000000  0.4948000000000  0.4461600000000 1.0
C      1  0.4562660000000  0.4947890000000  0.5538390000000 1.0
C      1  0.5437450000000  0.5052040000000  0.5538300000000 1.0
C      1  0.4461610000000  0.5052060000000  0.4562660000000 1.0
C      1  0.4562630000000  0.4461630000000  0.5052070000000 1.0
C      1  0.5052020000000  0.4562640000000  0.4461620000000 1.0
C      1  0.5538300000000  0.4948000000000  0.4562540000000 1.0
C      1  0.5538390000000  0.5052050000000  0.5437350000000 1.0
C      1  0.4461700000000  0.4947890000000  0.5437450000000 1.0
C      1  0.5437380000000  0.5538360000000  0.5052040000000 1.0
C      1  0.5437420000000  0.4461680000000  0.4947860000000 1.0
C      1  0.4562570000000  0.5538330000000  0.4948020000000 1.0
C      1  0.4947870000000  0.5437430000000  0.4461690000000 1.0
C      1  0.4948020000000  0.4562570000000  0.5538320000000 1.0
C      1  0.5052090000000  0.5437370000000  0.5538370000000 1.0
C      1  0.4627700000000  0.5182540000000  0.5572640000000 1.0
C      1  0.5182530000000  0.5572620000000  0.4627670000000 1.0
C      1  0.5572630000000  0.4627670000000  0.5182520000000 1.0
C      1  0.5372410000000  0.4817380000000  0.5572540000000 1.0
C      1  0.4627600000000  0.4817420000000  0.4427430000000 1.0
C      1  0.5372280000000  0.5182650000000  0.4427380000000 1.0
C      1  0.4817390000000  0.4427420000000  0.4627640000000 1.0
C      1  0.5182660000000  0.4427390000000  0.5372290000000 1.0
C      1  0.4817410000000  0.5572560000000  0.5372400000000 1.0
C      1  0.4427410000000  0.5372310000000  0.5182680000000 1.0
C      1  0.5572550000000  0.5372390000000  0.4817370000000 1.0
C      1  0.4427410000000  0.4627640000000  0.4817440000000 1.0
C      1  0.5182680000000  0.4627630000000  0.5572550000000 1.0
C      1  0.5572540000000  0.5182650000000  0.4627610000000 1.0
C      1  0.4627650000000  0.5572560000000  0.5182670000000 1.0
C      1  0.4817440000000  0.5372300000000  0.5572630000000 1.0
C      1  0.4817360000000  0.4627680000000  0.4427400000000 1.0
C      1  0.5182520000000  0.5372390000000  0.4427410000000 1.0
C      1  0.4427380000000  0.4817400000000  0.4627700000000 1.0
C      1  0.4427440000000  0.5182550000000  0.5372420000000 1.0
C      1  0.5572640000000  0.4817410000000  0.5372270000000 1.0
C      1  0.5372390000000  0.4427410000000  0.5182520000000 1.0
C      1  0.5372300000000  0.5572620000000  0.4817400000000 1.0
C      1  0.4627660000000  0.4427400000000  0.4817400000000 1.0
C      1  0.5472010000000  0.4915130000000  0.5572680000000 1.0
C      1  0.4915160000000  0.5572700000000  0.5471990000000 1.0
C      1  0.5572700000000  0.5471980000000  0.4915110000000 1.0
C      1  0.4528110000000  0.5084800000000  0.5572790000000 1.0
C      1  0.5471890000000  0.5084920000000  0.4427220000000 1.0
C      1  0.4528000000000  0.4915150000000  0.4427310000000 1.0
C      1  0.5084930000000  0.4427240000000  0.5471900000000 1.0
C      1  0.4915120000000  0.4427290000000  0.4528020000000 1.0
C      1  0.5084780000000  0.5572770000000  0.4528080000000 1.0
C      1  0.4427280000000  0.4528030000000  0.4915170000000 1.0
C      1  0.5572760000000  0.4528070000000  0.5084770000000 1.0
C      1  0.4427250000000  0.5471920000000  0.5084950000000 1.0
C      1  0.4915180000000  0.5471910000000  0.5572770000000 1.0
C      1  0.5572790000000  0.4915140000000  0.5471880000000 1.0
C      1  0.5471910000000  0.5572760000000  0.4915130000000 1.0
C      1  0.5084940000000  0.4528020000000  0.5572690000000 1.0
C      1  0.5084780000000  0.5471990000000  0.4427290000000 1.0
C      1  0.4915110000000  0.4528080000000  0.4427250000000 1.0
C      1  0.4427310000000  0.5084800000000  0.5472010000000 1.0
C      1  0.4427220000000  0.4915140000000  0.4528100000000 1.0
C      1  0.5572680000000  0.5084920000000  0.4528000000000 1.0
C      1  0.4528070000000  0.4427250000000  0.4915150000000 1.0
C      1  0.4528030000000  0.5572700000000  0.5084940000000 1.0
C      1  0.5471980000000  0.4427290000000  0.5084770000000 1.0
C      1  0.4777040000000  0.4990070000000  0.5606150000000 1.0
C      1  0.4990070000000  0.5606140000000  0.4777020000000 1.0
C      1  0.5606140000000  0.4777010000000  0.4990040000000 1.0
C      1  0.5223080000000  0.5009860000000  0.5606110000000 1.0
C      1  0.4776920000000  0.5009910000000  0.4393890000000 1.0
C      1  0.5222960000000  0.4990170000000  0.4393850000000 1.0
C      1  0.5009890000000  0.4393890000000  0.4776940000000 1.0
C      1  0.4990170000000  0.4393850000000  0.5222980000000 1.0
C      1  0.5009880000000  0.5606120000000  0.5223060000000 1.0
C      1  0.4393860000000  0.5222990000000  0.4990190000000 1.0
C      1  0.5606120000000  0.5223050000000  0.5009830000000 1.0
C      1  0.4393880000000  0.4776950000000  0.5009930000000 1.0
C      1  0.4990190000000  0.4776940000000  0.5606120000000 1.0
C      1  0.5606110000000  0.4990160000000  0.4776920000000 1.0
C      1  0.4776950000000  0.5606120000000  0.4990180000000 1.0
C      1  0.5009940000000  0.5222980000000  0.5606140000000 1.0
C      1  0.5009830000000  0.4777020000000  0.4393850000000 1.0
C      1  0.4990040000000  0.5223060000000  0.4393890000000 1.0
C      1  0.4393850000000  0.5009870000000  0.4777040000000 1.0
C      1  0.4393890000000  0.4990070000000  0.5223080000000 1.0
C      1  0.5606150000000  0.5009900000000  0.5222960000000 1.0
C      1  0.5223050000000  0.4393880000000  0.4990060000000 1.0
C      1  0.5222990000000  0.5606140000000  0.5009900000000 1.0
C      1  0.4777010000000  0.4393860000000  0.5009870000000 1.0
C      1  0.5825430000000  0.4864210000000  0.5047560000000 1.0
C      1  0.4864260000000  0.5047590000000  0.5825440000000 1.0
C      1  0.5047600000000  0.5825420000000  0.4864230000000 1.0
C      1  0.4174570000000  0.5135780000000  0.5047740000000 1.0
C      1  0.5825420000000  0.5135870000000  0.4952280000000 1.0
C      1  0.4174570000000  0.4864140000000  0.4952430000000 1.0
C      1  0.5135910000000  0.4952310000000  0.5825410000000 1.0
C      1  0.4864090000000  0.4952400000000  0.4174590000000 1.0
C      1  0.5135740000000  0.5047710000000  0.4174560000000 1.0
C      1  0.4952380000000  0.4174590000000  0.4864130000000 1.0
C      1  0.5047700000000  0.4174560000000  0.5135770000000 1.0
C      1  0.4952330000000  0.5825420000000  0.5135890000000 1.0
C      1  0.4864150000000  0.5825400000000  0.5047720000000 1.0
C      1  0.5047740000000  0.4864130000000  0.5825410000000 1.0
C      1  0.5825410000000  0.5047700000000  0.4864090000000 1.0
C      1  0.5135870000000  0.4174590000000  0.5047580000000 1.0
C      1  0.5135780000000  0.5825440000000  0.4952400000000 1.0
C      1  0.4864210000000  0.4174570000000  0.4952310000000 1.0
C      1  0.4952430000000  0.5135770000000  0.5825440000000 1.0
C      1  0.4952270000000  0.4864230000000  0.4174570000000 1.0
C      1  0.5047560000000  0.5135880000000  0.4174580000000 1.0
C      1  0.4174570000000  0.4952320000000  0.4864260000000 1.0
C      1  0.4174590000000  0.5047600000000  0.5135910000000 1.0
C      1  0.5825440000000  0.4952390000000  0.5135740000000 1.0
END
