TITL C240-190647 21.529302654934 1000000 -1656.45576043851 0 0 240 (C1) n - 1
REM
REM in /home/chem/mssmkc/work/CARBON/AIRSS/Generating-Clusters/Str-Search/GAP20/LAMMPS-RUNS
REM
REM
REM
REM
REM
REM C240.cell (1714ef08099d78b68ce5cebb2e831818)
REM
REM
REM
REM
REM
CELL 1.54180  100.00000  100.00000  100.00000   90.00000   90.00000   90.00000
LATT -1
SFAC C  
C      1  0.4982580000000  0.4683550000000  0.5293100000000 1.0
C      1  0.4876440000000  0.4764660000000  0.5348330000000 1.0
C      1  0.4613590000000  0.5057300000000  0.4827530000000 1.0
C      1  0.4609250000000  0.4912940000000  0.4837450000000 1.0
C      1  0.5236350000000  0.4635770000000  0.5095000000000 1.0
C      1  0.5118380000000  0.5260940000000  0.4673600000000 1.0
C      1  0.4934510000000  0.5137580000000  0.5431580000000 1.0
C      1  0.4762440000000  0.4655590000000  0.4889770000000 1.0
C      1  0.4876240000000  0.5414600000000  0.5085840000000 1.0
C      1  0.4597730000000  0.5084650000000  0.5149150000000 1.0
C      1  0.4938400000000  0.4866650000000  0.5426200000000 1.0
C      1  0.4998610000000  0.4666650000000  0.4702020000000 1.0
C      1  0.4736550000000  0.4968740000000  0.4648770000000 1.0
C      1  0.4685090000000  0.4860410000000  0.4726460000000 1.0
C      1  0.5000310000000  0.5324310000000  0.4720420000000 1.0
C      1  0.5271280000000  0.5002590000000  0.4675410000000 1.0
C      1  0.5318930000000  0.5110240000000  0.4754640000000 1.0
C      1  0.5226000000000  0.4638540000000  0.4864680000000 1.0
C      1  0.4891260000000  0.5248560000000  0.4669740000000 1.0
C      1  0.5106010000000  0.4743450000000  0.5324230000000 1.0
C      1  0.5083980000000  0.5146030000000  0.4599760000000 1.0
C      1  0.5110230000000  0.5428330000000  0.4934360000000 1.0
C      1  0.5100140000000  0.5424630000000  0.5081570000000 1.0
C      1  0.5077310000000  0.5138620000000  0.5424790000000 1.0
C      1  0.5389370000000  0.4922580000000  0.4859300000000 1.0
C      1  0.5384050000000  0.5063050000000  0.4871630000000 1.0
C      1  0.5080250000000  0.4850110000000  0.4594550000000 1.0
C      1  0.4772880000000  0.5341800000000  0.4893620000000 1.0
C      1  0.5115600000000  0.4733810000000  0.4663440000000 1.0
C      1  0.4882660000000  0.5243740000000  0.5355110000000 1.0
C      1  0.5216540000000  0.5351150000000  0.5122190000000 1.0
C      1  0.4993480000000  0.5318300000000  0.5310080000000 1.0
C      1  0.4713710000000  0.5029560000000  0.5339990000000 1.0
C      1  0.4694680000000  0.4703550000000  0.5005370000000 1.0
C      1  0.4596180000000  0.4940970000000  0.5165700000000 1.0
C      1  0.5112520000000  0.4569010000000  0.4908400000000 1.0
C      1  0.4673450000000  0.4909430000000  0.5280230000000 1.0
C      1  0.5275140000000  0.5018430000000  0.5321110000000 1.0
C      1  0.5283660000000  0.5303790000000  0.5006880000000 1.0
C      1  0.5216820000000  0.5346350000000  0.4892140000000 1.0
C      1  0.5117900000000  0.4566870000000  0.5049500000000 1.0
C      1  0.4768680000000  0.4661840000000  0.5117910000000 1.0
C      1  0.5111400000000  0.5254440000000  0.5348200000000 1.0
C      1  0.5380930000000  0.4951310000000  0.5130010000000 1.0
C      1  0.5374950000000  0.5092770000000  0.5127880000000 1.0
C      1  0.4876160000000  0.5423530000000  0.4945680000000 1.0
C      1  0.5309890000000  0.5135510000000  0.5246650000000 1.0
C      1  0.4697480000000  0.5293320000000  0.5001890000000 1.0
C      1  0.4762500000000  0.5336370000000  0.5120970000000 1.0
C      1  0.5306000000000  0.4675760000000  0.4976450000000 1.0
C      1  0.4887430000000  0.4740240000000  0.4652800000000 1.0
C      1  0.5078650000000  0.4856580000000  0.5401010000000 1.0
C      1  0.4942890000000  0.5140530000000  0.4592200000000 1.0
C      1  0.5319500000000  0.4883530000000  0.4740410000000 1.0
C      1  0.4872510000000  0.4579780000000  0.5070310000000 1.0
C      1  0.4875070000000  0.4577930000000  0.4930080000000 1.0
C      1  0.4939980000000  0.4850680000000  0.4580920000000 1.0
C      1  0.4694840000000  0.5087420000000  0.4713730000000 1.0
C      1  0.4674470000000  0.5136770000000  0.5257980000000 1.0
C      1  0.5309560000000  0.4906080000000  0.5245900000000 1.0
C      1  0.4352130000000  0.4922150000000  0.4756430000000 1.0
C      1  0.5086130000000  0.4823690000000  0.4355360000000 1.0
C      1  0.4542830000000  0.4442860000000  0.4859370000000 1.0
C      1  0.5177670000000  0.5612560000000  0.5192540000000 1.0
C      1  0.5157180000000  0.5475020000000  0.5558820000000 1.0
C      1  0.4443820000000  0.5153660000000  0.4739260000000 1.0
C      1  0.4821150000000  0.4567040000000  0.4522150000000 1.0
C      1  0.5392670000000  0.4500880000000  0.4789890000000 1.0
C      1  0.5166660000000  0.4277710000000  0.4929820000000 1.0
C      1  0.5232600000000  0.5366770000000  0.4496410000000 1.0
C      1  0.4331530000000  0.4954280000000  0.5233250000000 1.0
C      1  0.5561910000000  0.4807160000000  0.4605450000000 1.0
C      1  0.4790040000000  0.4295840000000  0.4943720000000 1.0
C      1  0.4544890000000  0.4867480000000  0.5476720000000 1.0
C      1  0.5638320000000  0.5029140000000  0.4824630000000 1.0
C      1  0.5164050000000  0.5712980000000  0.4959820000000 1.0
C      1  0.5541570000000  0.5171250000000  0.5438130000000 1.0
C      1  0.5108080000000  0.4829740000000  0.5638490000000 1.0
C      1  0.4823170000000  0.5424010000000  0.4533240000000 1.0
C      1  0.4949200000000  0.5166120000000  0.4361880000000 1.0
C      1  0.5544060000000  0.5166220000000  0.4557500000000 1.0
C      1  0.4978110000000  0.5192160000000  0.5714400000000 1.0
C      1  0.5429030000000  0.5564590000000  0.5159970000000 1.0
C      1  0.4858300000000  0.4727890000000  0.4333150000000 1.0
C      1  0.5617330000000  0.4894620000000  0.4834970000000 1.0
C      1  0.5504950000000  0.4793860000000  0.5312680000000 1.0
C      1  0.4546190000000  0.4898390000000  0.4447310000000 1.0
C      1  0.4521760000000  0.5191340000000  0.4615380000000 1.0
C      1  0.5380870000000  0.5485740000000  0.4826910000000 1.0
C      1  0.4801590000000  0.4379470000000  0.5177330000000 1.0
C      1  0.4797570000000  0.4598980000000  0.5487680000000 1.0
C      1  0.5621520000000  0.4820880000000  0.4716080000000 1.0
C      1  0.5161350000000  0.5484670000000  0.4480270000000 1.0
C      1  0.5461860000000  0.5439320000000  0.4949560000000 1.0
C      1  0.4786650000000  0.5607150000000  0.5184860000000 1.0
C      1  0.5176650000000  0.5638060000000  0.4840410000000 1.0
C      1  0.5100570000000  0.5218590000000  0.5702450000000 1.0
C      1  0.4543320000000  0.5550790000000  0.5150580000000 1.0
C      1  0.5306900000000  0.5539880000000  0.5223110000000 1.0
C      1  0.4937590000000  0.5501400000000  0.4587080000000 1.0
C      1  0.4335890000000  0.5079780000000  0.5227300000000 1.0
C      1  0.4504960000000  0.4748590000000  0.4647120000000 1.0
C      1  0.4810810000000  0.5318340000000  0.5600720000000 1.0
C      1  0.5423380000000  0.4963230000000  0.5502000000000 1.0
C      1  0.5666460000000  0.4946720000000  0.5196290000000 1.0
C      1  0.5303130000000  0.4449260000000  0.5195950000000 1.0
C      1  0.5046700000000  0.4461360000000  0.4479280000000 1.0
C      1  0.4584120000000  0.4532580000000  0.5180830000000 1.0
C      1  0.5158730000000  0.4515420000000  0.4449680000000 1.0
C      1  0.4965340000000  0.4848690000000  0.5655150000000 1.0
C      1  0.5425800000000  0.4446830000000  0.5128610000000 1.0
C      1  0.4691430000000  0.4460110000000  0.5219760000000 1.0
C      1  0.4803080000000  0.5624330000000  0.4845400000000 1.0
C      1  0.4485020000000  0.4492970000000  0.4961910000000 1.0
C      1  0.5171020000000  0.4358270000000  0.4816080000000 1.0
C      1  0.5178720000000  0.4376090000000  0.5159930000000 1.0
C      1  0.5213860000000  0.4631400000000  0.5496240000000 1.0
C      1  0.4485910000000  0.4811380000000  0.5370890000000 1.0
C      1  0.5294810000000  0.4410370000000  0.4778450000000 1.0
C      1  0.5048820000000  0.5534400000000  0.4510690000000 1.0
C      1  0.5189290000000  0.4753640000000  0.4405390000000 1.0
C      1  0.4822930000000  0.5372890000000  0.4405450000000 1.0
C      1  0.5411370000000  0.4970450000000  0.4480800000000 1.0
C      1  0.4905860000000  0.4515600000000  0.5433820000000 1.0
C      1  0.5473440000000  0.4552520000000  0.4905520000000 1.0
C      1  0.5490240000000  0.5524010000000  0.5055150000000 1.0
C      1  0.4485560000000  0.5503460000000  0.5046700000000 1.0
C      1  0.4692630000000  0.5546860000000  0.4797370000000 1.0
C      1  0.4352150000000  0.5048190000000  0.4747540000000 1.0
C      1  0.5195690000000  0.5232870000000  0.5601480000000 1.0
C      1  0.4873760000000  0.4745520000000  0.5679190000000 1.0
C      1  0.4940580000000  0.4489050000000  0.4564080000000 1.0
C      1  0.4872640000000  0.5279130000000  0.4334860000000 1.0
C      1  0.5192310000000  0.5256290000000  0.4415400000000 1.0
C      1  0.5510280000000  0.5232630000000  0.5317220000000 1.0
C      1  0.5225620000000  0.4633490000000  0.4473180000000 1.0
C      1  0.4788060000000  0.4384020000000  0.4837570000000 1.0
C      1  0.5662750000000  0.5073540000000  0.5193080000000 1.0
C      1  0.4790920000000  0.5697650000000  0.5080930000000 1.0
C      1  0.4944450000000  0.4836590000000  0.4350320000000 1.0
C      1  0.4667190000000  0.4461670000000  0.4799230000000 1.0
C      1  0.5019500000000  0.4473050000000  0.5499550000000 1.0
C      1  0.4811110000000  0.4660710000000  0.5610180000000 1.0
C      1  0.4796200000000  0.4292580000000  0.5070680000000 1.0
C      1  0.4502320000000  0.4807410000000  0.4521970000000 1.0
C      1  0.5172450000000  0.4287890000000  0.5054810000000 1.0
C      1  0.4622520000000  0.5015390000000  0.4451040000000 1.0
C      1  0.5043690000000  0.5527200000000  0.5531470000000 1.0
C      1  0.5489750000000  0.4480920000000  0.5025500000000 1.0
C      1  0.5094170000000  0.5177270000000  0.4368900000000 1.0
C      1  0.4492820000000  0.5241930000000  0.5347160000000 1.0
C      1  0.5501630000000  0.5075490000000  0.4477660000000 1.0
C      1  0.4587820000000  0.5469770000000  0.4829210000000 1.0
C      1  0.4796140000000  0.5707910000000  0.4954990000000 1.0
C      1  0.4813870000000  0.4630000000000  0.4399710000000 1.0
C      1  0.5304320000000  0.5594720000000  0.4810260000000 1.0
C      1  0.4935200000000  0.5492580000000  0.5452190000000 1.0
C      1  0.5223920000000  0.5357230000000  0.5524970000000 1.0
C      1  0.5169220000000  0.5698860000000  0.5084280000000 1.0
C      1  0.4665220000000  0.5529210000000  0.5215110000000 1.0
C      1  0.4514670000000  0.5420130000000  0.4939260000000 1.0
C      1  0.4512660000000  0.4578030000000  0.5067800000000 1.0
C      1  0.5577360000000  0.5184250000000  0.5192560000000 1.0
C      1  0.4500380000000  0.5093860000000  0.5552130000000 1.0
C      1  0.4435620000000  0.4809700000000  0.4764680000000 1.0
C      1  0.4818670000000  0.5404000000000  0.5496800000000 1.0
C      1  0.5508590000000  0.5072340000000  0.5511160000000 1.0
C      1  0.4424530000000  0.5188500000000  0.5225730000000 1.0
C      1  0.5514320000000  0.5212210000000  0.4683980000000 1.0
C      1  0.5579140000000  0.5149950000000  0.4809530000000 1.0
C      1  0.5137640000000  0.4518540000000  0.5518080000000 1.0
C      1  0.4591900000000  0.4988360000000  0.5534640000000 1.0
C      1  0.5571220000000  0.4841410000000  0.5193260000000 1.0
C      1  0.4558030000000  0.5125800000000  0.4505330000000 1.0
C      1  0.5443960000000  0.4842500000000  0.4544210000000 1.0
C      1  0.4473320000000  0.5187220000000  0.5471490000000 1.0
C      1  0.5194650000000  0.4748990000000  0.5574470000000 1.0
C      1  0.4856420000000  0.5196900000000  0.5643940000000 1.0
C      1  0.5453780000000  0.4844880000000  0.5426920000000 1.0
C      1  0.4420760000000  0.4846840000000  0.5246690000000 1.0
C      1  0.4975470000000  0.5467020000000  0.4730090000000 1.0
C      1  0.5251520000000  0.5319430000000  0.4644300000000 1.0
C      1  0.5482850000000  0.4869900000000  0.5078150000000 1.0
C      1  0.5480100000000  0.5184500000000  0.5074170000000 1.0
C      1  0.4714890000000  0.5397260000000  0.4771770000000 1.0
C      1  0.4740550000000  0.4687170000000  0.5369290000000 1.0
C      1  0.5169330000000  0.4880610000000  0.4483730000000 1.0
C      1  0.5279890000000  0.5390860000000  0.5248640000000 1.0
C      1  0.5059250000000  0.4463770000000  0.4819030000000 1.0
C      1  0.5491570000000  0.4835660000000  0.4934210000000 1.0
C      1  0.5173070000000  0.5118120000000  0.4485980000000 1.0
C      1  0.4971190000000  0.5460370000000  0.5307010000000 1.0
C      1  0.5268110000000  0.4998990000000  0.5476730000000 1.0
C      1  0.5357530000000  0.5264630000000  0.5296930000000 1.0
C      1  0.4944750000000  0.4546830000000  0.5296330000000 1.0
C      1  0.4721200000000  0.5033270000000  0.5479670000000 1.0
C      1  0.4638100000000  0.4798320000000  0.5372990000000 1.0
C      1  0.4703940000000  0.5383330000000  0.5246820000000 1.0
C      1  0.5246420000000  0.4676650000000  0.5341530000000 1.0
C      1  0.4757870000000  0.5326570000000  0.4647100000000 1.0
C      1  0.4915920000000  0.4939680000000  0.5549450000000 1.0
C      1  0.4927840000000  0.4478110000000  0.5171610000000 1.0
C      1  0.4909040000000  0.4472960000000  0.4832150000000 1.0
C      1  0.4891840000000  0.4926170000000  0.4464890000000 1.0
C      1  0.4508100000000  0.5184310000000  0.5100260000000 1.0
C      1  0.4511950000000  0.4833030000000  0.5128850000000 1.0
C      1  0.4849390000000  0.5070490000000  0.5538630000000 1.0
C      1  0.5269400000000  0.4588380000000  0.5227770000000 1.0
C      1  0.4764580000000  0.5325820000000  0.5377170000000 1.0
C      1  0.5255120000000  0.4674480000000  0.4625910000000 1.0
C      1  0.4707920000000  0.4606810000000  0.4764220000000 1.0
C      1  0.4977100000000  0.4523340000000  0.4709220000000 1.0
C      1  0.5259320000000  0.4996500000000  0.4514760000000 1.0
C      1  0.5426580000000  0.5291890000000  0.4986640000000 1.0
C      1  0.5482060000000  0.5159190000000  0.4924320000000 1.0
C      1  0.4908480000000  0.5516810000000  0.5189270000000 1.0
C      1  0.5363390000000  0.5242750000000  0.4710690000000 1.0
C      1  0.4763080000000  0.4991450000000  0.4504210000000 1.0
C      1  0.4544610000000  0.4740530000000  0.5019930000000 1.0
C      1  0.4711030000000  0.4609730000000  0.5241960000000 1.0
C      1  0.4920130000000  0.5529520000000  0.4852320000000 1.0
C      1  0.5303670000000  0.5368440000000  0.4775210000000 1.0
C      1  0.4771060000000  0.4652090000000  0.4636170000000 1.0
C      1  0.4528450000000  0.5167970000000  0.4861250000000 1.0
C      1  0.4518530000000  0.4813910000000  0.4889370000000 1.0
C      1  0.5067460000000  0.4464950000000  0.5132140000000 1.0
C      1  0.4647330000000  0.4720560000000  0.4685600000000 1.0
C      1  0.5442600000000  0.4695750000000  0.4934590000000 1.0
C      1  0.5287330000000  0.4589730000000  0.4742820000000 1.0
C      1  0.4547120000000  0.5260170000000  0.4976470000000 1.0
C      1  0.5238550000000  0.5321340000000  0.5375800000000 1.0
C      1  0.4892970000000  0.5071580000000  0.4474540000000 1.0
C      1  0.5174910000000  0.4884660000000  0.5506870000000 1.0
C      1  0.4638000000000  0.5269730000000  0.5313100000000 1.0
C      1  0.5067800000000  0.5530560000000  0.4838380000000 1.0
C      1  0.5059390000000  0.5521760000000  0.5188020000000 1.0
C      1  0.5187750000000  0.5115480000000  0.5514770000000 1.0
C      1  0.5350520000000  0.4789110000000  0.5324280000000 1.0
C      1  0.5345480000000  0.4788000000000  0.4636640000000 1.0
C      1  0.4666200000000  0.5207780000000  0.4634740000000 1.0
END
