TITL C-102688-8074-139 35.2689688557517 1000000 -1698.75326462182 0 0 240 (Td) n - 1
REM
REM in /home/chem/mssmkc/work/GAP20/Larger-Clusters/Only-C240-new-series
REM
REM
REM
REM
REM
REM ./C.cell (0485df7495ed2a90f93db84a705cd676)
REM
REM compiler GCC version 8.3.0
REM options -cpp -mtune=generic -march=x86-64 -g -O0
REM seed 2073374301 1057952689 -1362908653 1045725232 1220242674 -1547657527 -1408182494 -1928343226 -788969837 -771146780 -1722690258 -65633958 -328595203 168368410 -223178271 1765676469 -1584535616 943768698 -1955273817 -2073007933 1712052269 -1130206086 837258599 -1994780090 409200410 819357601 108075117 -139640895 -942393542 -1738955559 -397822309 -1354047545 -1363449985
REM
CELL 1.54180  100.00000  100.00000  100.00000   90.00000   90.00000   90.00000
LATT -1
SFAC C  
C      1  0.5066080000000  0.5340080000000  0.4352960000000 1.0
C      1  0.5340100000000  0.4352970000000  0.5066100000000 1.0
C      1  0.4352960000000  0.5066090000000  0.5340090000000 1.0
C      1  0.5065910000000  0.4659910000000  0.5647060000000 1.0
C      1  0.4933980000000  0.5340240000000  0.5646970000000 1.0
C      1  0.4934030000000  0.4659770000000  0.4353020000000 1.0
C      1  0.5340220000000  0.5646980000000  0.4933960000000 1.0
C      1  0.4659790000000  0.4353010000000  0.4934050000000 1.0
C      1  0.4659890000000  0.5647050000000  0.5065890000000 1.0
C      1  0.4353010000000  0.4934020000000  0.4659790000000 1.0
C      1  0.5647050000000  0.5065900000000  0.4659890000000 1.0
C      1  0.5646980000000  0.4933990000000  0.5340220000000 1.0
C      1  0.5065910000000  0.4353020000000  0.5340240000000 1.0
C      1  0.5340220000000  0.5065890000000  0.4353010000000 1.0
C      1  0.4353010000000  0.5340220000000  0.5065900000000 1.0
C      1  0.5066080000000  0.5646970000000  0.4659770000000 1.0
C      1  0.4934030000000  0.5647060000000  0.5340080000000 1.0
C      1  0.4933980000000  0.4352960000000  0.4659910000000 1.0
C      1  0.5340100000000  0.4934050000000  0.5647050000000 1.0
C      1  0.4659890000000  0.4933960000000  0.4352970000000 1.0
C      1  0.4659790000000  0.5066100000000  0.5646970000000 1.0
C      1  0.4352960000000  0.4659890000000  0.4933990000000 1.0
C      1  0.5646980000000  0.4659790000000  0.5066090000000 1.0
C      1  0.5647050000000  0.5340100000000  0.4934020000000 1.0
C      1  0.5274460000000  0.5171550000000  0.5633700000000 1.0
C      1  0.5171530000000  0.5633710000000  0.5274440000000 1.0
C      1  0.5633700000000  0.5274470000000  0.5171520000000 1.0
C      1  0.5274540000000  0.4828400000000  0.4366350000000 1.0
C      1  0.4725570000000  0.5171450000000  0.4366260000000 1.0
C      1  0.4725430000000  0.4828600000000  0.5633690000000 1.0
C      1  0.5171470000000  0.4366260000000  0.4725590000000 1.0
C      1  0.4828580000000  0.5633680000000  0.4725410000000 1.0
C      1  0.4828420000000  0.4366350000000  0.5274560000000 1.0
C      1  0.5633690000000  0.4725430000000  0.4828590000000 1.0
C      1  0.4366340000000  0.5274530000000  0.4828410000000 1.0
C      1  0.4366270000000  0.4725570000000  0.5171480000000 1.0
C      1  0.5274540000000  0.5633690000000  0.5171450000000 1.0
C      1  0.5171470000000  0.5274560000000  0.5633680000000 1.0
C      1  0.5633690000000  0.5171480000000  0.5274540000000 1.0
C      1  0.5274460000000  0.4366260000000  0.4828600000000 1.0
C      1  0.4725430000000  0.4366350000000  0.5171550000000 1.0
C      1  0.4725570000000  0.5633700000000  0.4828400000000 1.0
C      1  0.5171530000000  0.4725410000000  0.4366350000000 1.0
C      1  0.4828420000000  0.4725590000000  0.5633710000000 1.0
C      1  0.4828580000000  0.5274440000000  0.4366260000000 1.0
C      1  0.5633700000000  0.4828410000000  0.4725570000000 1.0
C      1  0.4366270000000  0.4828590000000  0.5274470000000 1.0
C      1  0.4366340000000  0.5171520000000  0.4725420000000 1.0
C      1  0.5382060000000  0.4514000000000  0.5282650000000 1.0
C      1  0.4513990000000  0.5282640000000  0.5382050000000 1.0
C      1  0.5282630000000  0.5382050000000  0.4513980000000 1.0
C      1  0.5382190000000  0.5485940000000  0.4717420000000 1.0
C      1  0.4617860000000  0.4514000000000  0.4717470000000 1.0
C      1  0.4617890000000  0.5486070000000  0.5282470000000 1.0
C      1  0.4514010000000  0.4717440000000  0.4617860000000 1.0
C      1  0.5486060000000  0.5282470000000  0.4617880000000 1.0
C      1  0.5485940000000  0.4717450000000  0.5382200000000 1.0
C      1  0.5282480000000  0.4617900000000  0.5486070000000 1.0
C      1  0.4717430000000  0.5382210000000  0.5485930000000 1.0
C      1  0.4717450000000  0.4617840000000  0.4514020000000 1.0
C      1  0.5382190000000  0.5282470000000  0.4514000000000 1.0
C      1  0.4514010000000  0.5382200000000  0.5282470000000 1.0
C      1  0.5282480000000  0.4514020000000  0.5382210000000 1.0
C      1  0.5382060000000  0.4717470000000  0.5486070000000 1.0
C      1  0.4617890000000  0.4717420000000  0.4514000000000 1.0
C      1  0.4617850000000  0.5282650000000  0.5485940000000 1.0
C      1  0.4513990000000  0.4617880000000  0.4717440000000 1.0
C      1  0.5485940000000  0.4617860000000  0.5282640000000 1.0
C      1  0.5486060000000  0.5382050000000  0.4717440000000 1.0
C      1  0.5282630000000  0.5485930000000  0.4617840000000 1.0
C      1  0.4717450000000  0.5486070000000  0.5382050000000 1.0
C      1  0.4717430000000  0.4513980000000  0.4617900000000 1.0
C      1  0.4370930000000  0.4897990000000  0.4999760000000 1.0
C      1  0.4897990000000  0.4999740000000  0.4370940000000 1.0
C      1  0.4999760000000  0.4370930000000  0.4898010000000 1.0
C      1  0.4370950000000  0.5102120000000  0.5000130000000 1.0
C      1  0.5629050000000  0.4897880000000  0.5000270000000 1.0
C      1  0.5629070000000  0.5102010000000  0.4999840000000 1.0
C      1  0.4897880000000  0.5000280000000  0.5629050000000 1.0
C      1  0.5102010000000  0.4999860000000  0.5629070000000 1.0
C      1  0.5102120000000  0.5000120000000  0.4370950000000 1.0
C      1  0.4999850000000  0.5629070000000  0.5101990000000 1.0
C      1  0.5000140000000  0.4370950000000  0.5102140000000 1.0
C      1  0.5000260000000  0.5629050000000  0.4897860000000 1.0
C      1  0.4370950000000  0.4999840000000  0.4897880000000 1.0
C      1  0.4897880000000  0.4370950000000  0.4999860000000 1.0
C      1  0.4999850000000  0.4897860000000  0.4370960000000 1.0
C      1  0.4370930000000  0.5000260000000  0.5102010000000 1.0
C      1  0.5629070000000  0.5000130000000  0.4897990000000 1.0
C      1  0.5629050000000  0.4999760000000  0.5102120000000 1.0
C      1  0.4897990000000  0.5629070000000  0.5000120000000 1.0
C      1  0.5102120000000  0.5629050000000  0.4999740000000 1.0
C      1  0.5102010000000  0.4370930000000  0.5000280000000 1.0
C      1  0.4999760000000  0.5102140000000  0.5629050000000 1.0
C      1  0.5000260000000  0.5101990000000  0.4370930000000 1.0
C      1  0.5000140000000  0.4898010000000  0.5629070000000 1.0
C      1  0.4371460000000  0.5531140000000  0.5142960000000 1.0
C      1  0.5531140000000  0.5142960000000  0.4371460000000 1.0
C      1  0.5142980000000  0.4371480000000  0.5531160000000 1.0
C      1  0.4371390000000  0.4468960000000  0.4856930000000 1.0
C      1  0.5628630000000  0.5531000000000  0.4856910000000 1.0
C      1  0.5628520000000  0.4468890000000  0.5143200000000 1.0
C      1  0.5531010000000  0.4856950000000  0.5628640000000 1.0
C      1  0.4468880000000  0.5143200000000  0.5628510000000 1.0
C      1  0.4468970000000  0.4856890000000  0.4371400000000 1.0
C      1  0.5143180000000  0.5628500000000  0.4468870000000 1.0
C      1  0.4856910000000  0.4371380000000  0.4468990000000 1.0
C      1  0.4856930000000  0.5628650000000  0.5530990000000 1.0
C      1  0.4371390000000  0.5143190000000  0.5531000000000 1.0
C      1  0.5531010000000  0.4371400000000  0.5143200000000 1.0
C      1  0.5143180000000  0.5530990000000  0.4371380000000 1.0
C      1  0.4371460000000  0.4856910000000  0.4468890000000 1.0
C      1  0.5628520000000  0.4856930000000  0.5531140000000 1.0
C      1  0.5628630000000  0.5142970000000  0.4468970000000 1.0
C      1  0.5531140000000  0.5628510000000  0.4856890000000 1.0
C      1  0.4468970000000  0.5628630000000  0.5142960000000 1.0
C      1  0.4468890000000  0.4371460000000  0.4856950000000 1.0
C      1  0.5142980000000  0.4468990000000  0.5628650000000 1.0
C      1  0.4856930000000  0.4468870000000  0.4371480000000 1.0
C      1  0.4856910000000  0.5531160000000  0.5628500000000 1.0
C      1  0.5613870000000  0.5511050000000  0.5110150000000 1.0
C      1  0.5511050000000  0.5110180000000  0.5613870000000 1.0
C      1  0.5110160000000  0.5613890000000  0.5511030000000 1.0
C      1  0.5613800000000  0.4488840000000  0.4889960000000 1.0
C      1  0.4386220000000  0.5511130000000  0.4889730000000 1.0
C      1  0.4386110000000  0.4488970000000  0.5110160000000 1.0
C      1  0.5511140000000  0.4889730000000  0.4386220000000 1.0
C      1  0.4488970000000  0.5110130000000  0.4386110000000 1.0
C      1  0.4488840000000  0.4889960000000  0.5613810000000 1.0
C      1  0.5110150000000  0.4386090000000  0.4488990000000 1.0
C      1  0.4889940000000  0.5613790000000  0.4488830000000 1.0
C      1  0.4889750000000  0.4386230000000  0.5511150000000 1.0
C      1  0.5613800000000  0.5110160000000  0.5511130000000 1.0
C      1  0.5511140000000  0.5613810000000  0.5110130000000 1.0
C      1  0.5110140000000  0.5511160000000  0.5613790000000 1.0
C      1  0.5613870000000  0.4889730000000  0.4488970000000 1.0
C      1  0.4386110000000  0.4889960000000  0.5511050000000 1.0
C      1  0.4386220000000  0.5110150000000  0.4488840000000 1.0
C      1  0.5511050000000  0.4386110000000  0.4889960000000 1.0
C      1  0.4488840000000  0.4386220000000  0.5110180000000 1.0
C      1  0.4488970000000  0.5613870000000  0.4889730000000 1.0
C      1  0.5110160000000  0.4488830000000  0.4386230000000 1.0
C      1  0.4889750000000  0.4488990000000  0.5613890000000 1.0
C      1  0.4889940000000  0.5511030000000  0.4386090000000 1.0
C      1  0.5595590000000  0.4807560000000  0.5394830000000 1.0
C      1  0.4807550000000  0.5394840000000  0.5595580000000 1.0
C      1  0.5394820000000  0.5595590000000  0.4807530000000 1.0
C      1  0.5595690000000  0.5192340000000  0.4605280000000 1.0
C      1  0.4404370000000  0.4807570000000  0.4605220000000 1.0
C      1  0.4404340000000  0.5192530000000  0.5394680000000 1.0
C      1  0.4807580000000  0.4605200000000  0.4404390000000 1.0
C      1  0.5192520000000  0.5394670000000  0.4404330000000 1.0
C      1  0.5192350000000  0.4605300000000  0.5595700000000 1.0
C      1  0.5394680000000  0.4404350000000  0.5192540000000 1.0
C      1  0.4605280000000  0.5595700000000  0.5192330000000 1.0
C      1  0.4605220000000  0.4404370000000  0.4807600000000 1.0
C      1  0.5595690000000  0.5394680000000  0.4807570000000 1.0
C      1  0.4807580000000  0.5595700000000  0.5394660000000 1.0
C      1  0.5394680000000  0.4807600000000  0.5595700000000 1.0
C      1  0.5595590000000  0.4605220000000  0.5192530000000 1.0
C      1  0.4404340000000  0.4605280000000  0.4807560000000 1.0
C      1  0.4404370000000  0.5394820000000  0.5192340000000 1.0
C      1  0.4807550000000  0.4404330000000  0.4605300000000 1.0
C      1  0.5192350000000  0.4404390000000  0.5394840000000 1.0
C      1  0.5192520000000  0.5595580000000  0.4605200000000 1.0
C      1  0.5394820000000  0.5192330000000  0.4404370000000 1.0
C      1  0.4605210000000  0.5192540000000  0.5595590000000 1.0
C      1  0.4605280000000  0.4807530000000  0.4404350000000 1.0
C      1  0.5407860000000  0.4799210000000  0.4380750000000 1.0
C      1  0.4799220000000  0.4380760000000  0.5407880000000 1.0
C      1  0.4380750000000  0.5407860000000  0.4799210000000 1.0
C      1  0.5407790000000  0.5200730000000  0.5619320000000 1.0
C      1  0.4592100000000  0.4799420000000  0.5619290000000 1.0
C      1  0.4592240000000  0.5200650000000  0.4380640000000 1.0
C      1  0.4799400000000  0.5619280000000  0.4592080000000 1.0
C      1  0.5200670000000  0.4380630000000  0.4592260000000 1.0
C      1  0.5200710000000  0.5619340000000  0.5407770000000 1.0
C      1  0.4380640000000  0.4592250000000  0.5200680000000 1.0
C      1  0.5619320000000  0.5407800000000  0.5200700000000 1.0
C      1  0.5619290000000  0.4592100000000  0.4799410000000 1.0
C      1  0.5407790000000  0.4380640000000  0.4799420000000 1.0
C      1  0.4799400000000  0.5407770000000  0.4380630000000 1.0
C      1  0.4380640000000  0.4799410000000  0.5407800000000 1.0
C      1  0.5407860000000  0.5619290000000  0.5200650000000 1.0
C      1  0.4592240000000  0.5619320000000  0.4799200000000 1.0
C      1  0.4592100000000  0.4380750000000  0.5200720000000 1.0
C      1  0.4799220000000  0.4592260000000  0.5619340000000 1.0
C      1  0.5200710000000  0.4592080000000  0.4380760000000 1.0
C      1  0.5200670000000  0.5407880000000  0.5619280000000 1.0
C      1  0.4380750000000  0.5200690000000  0.4592100000000 1.0
C      1  0.5619290000000  0.5200680000000  0.5407860000000 1.0
C      1  0.5619320000000  0.4799210000000  0.4592250000000 1.0
C      1  0.5236160000000  0.4360470000000  0.4972960000000 1.0
C      1  0.4360470000000  0.4972950000000  0.5236160000000 1.0
C      1  0.4972940000000  0.5236140000000  0.4360460000000 1.0
C      1  0.5236260000000  0.5639490000000  0.5027080000000 1.0
C      1  0.4763730000000  0.4360520000000  0.5027190000000 1.0
C      1  0.4763850000000  0.5639520000000  0.4972770000000 1.0
C      1  0.4360510000000  0.5027160000000  0.4763730000000 1.0
C      1  0.5639530000000  0.4972780000000  0.4763850000000 1.0
C      1  0.5639490000000  0.5027110000000  0.5236260000000 1.0
C      1  0.4972790000000  0.4763870000000  0.5639530000000 1.0
C      1  0.5027100000000  0.5236280000000  0.5639480000000 1.0
C      1  0.5027170000000  0.4763710000000  0.4360520000000 1.0
C      1  0.5236260000000  0.4972770000000  0.4360520000000 1.0
C      1  0.4360510000000  0.5236260000000  0.4972780000000 1.0
C      1  0.4972790000000  0.4360520000000  0.5236280000000 1.0
C      1  0.5236160000000  0.5027190000000  0.5639530000000 1.0
C      1  0.4763850000000  0.5027080000000  0.4360470000000 1.0
C      1  0.4763730000000  0.4972960000000  0.5639490000000 1.0
C      1  0.4360470000000  0.4763850000000  0.5027110000000 1.0
C      1  0.5639490000000  0.4763730000000  0.4972950000000 1.0
C      1  0.5639530000000  0.5236160000000  0.5027160000000 1.0
C      1  0.4972940000000  0.5639480000000  0.4763710000000 1.0
C      1  0.5027170000000  0.5639530000000  0.5236140000000 1.0
C      1  0.5027100000000  0.4360460000000  0.4763870000000 1.0
C      1  0.5016140000000  0.5669040000000  0.4525820000000 1.0
C      1  0.5669050000000  0.4525840000000  0.5016150000000 1.0
C      1  0.4525840000000  0.5016160000000  0.5669050000000 1.0
C      1  0.5015940000000  0.4330960000000  0.5474180000000 1.0
C      1  0.4983980000000  0.5669150000000  0.5474020000000 1.0
C      1  0.4983950000000  0.4330850000000  0.4525970000000 1.0
C      1  0.5669130000000  0.5474040000000  0.4983960000000 1.0
C      1  0.4330870000000  0.4525950000000  0.4983960000000 1.0
C      1  0.4330950000000  0.5474160000000  0.5015930000000 1.0
C      1  0.4525960000000  0.4983920000000  0.4330870000000 1.0
C      1  0.5474160000000  0.5015920000000  0.4330950000000 1.0
C      1  0.5474040000000  0.4984000000000  0.5669140000000 1.0
C      1  0.5015940000000  0.4525970000000  0.5669150000000 1.0
C      1  0.5669140000000  0.5015930000000  0.4525960000000 1.0
C      1  0.4525950000000  0.5669130000000  0.5015920000000 1.0
C      1  0.5016140000000  0.5474020000000  0.4330850000000 1.0
C      1  0.4983940000000  0.5474180000000  0.5669040000000 1.0
C      1  0.4983980000000  0.4525820000000  0.4330960000000 1.0
C      1  0.5669050000000  0.4983960000000  0.5474160000000 1.0
C      1  0.4330950000000  0.4983960000000  0.4525840000000 1.0
C      1  0.4330870000000  0.5016150000000  0.5474040000000 1.0
C      1  0.4525840000000  0.4330950000000  0.4984000000000 1.0
C      1  0.5474040000000  0.4330870000000  0.5016160000000 1.0
C      1  0.5474160000000  0.5669050000000  0.4983920000000 1.0
END
