TITL C-102689-8077-98 -0.0417362525293969 1000000 -1744.65271250703 0 0 240 (Oh) n - 1
REM
REM in /home/chem/mssmkc/work/GAP20/Larger-Clusters/Only-C240-new-series
REM
REM
REM
REM
REM
REM ./C.cell (0485df7495ed2a90f93db84a705cd676)
REM
REM compiler GCC version 8.3.0
REM options -cpp -mtune=generic -march=x86-64 -g -O0
REM seed -67699044 -1940828826 189579116 84725622 -1535047600 1829270993 754691482 -109011613 -441264278 1038319658 -1096549262 444764869 -801739087 300154251 -1326706293 293771079 -1219936767 950800588 -1647555270 1839284346 -1929392118 -2024595588 1979585120 -1080995223 1539865809 -1310159060 -889560704 977290610 1749429668 1968091758 311276434 314871724 -165377918
REM
CELL 1.54180  100.00000  100.00000  100.00000   90.00000   90.00000   90.00000
LATT -1
SFAC C  
C      1  0.5484350000000  0.5285150000000  0.5383560000000 1.0
C      1  0.5285110000000  0.5383640000000  0.5484300000000 1.0
C      1  0.5383590000000  0.5484380000000  0.5285050000000 1.0
C      1  0.4515700000000  0.4714890000000  0.5383650000000 1.0
C      1  0.5484330000000  0.4714910000000  0.4616380000000 1.0
C      1  0.4515620000000  0.5285050000000  0.4616420000000 1.0
C      1  0.4714960000000  0.4616400000000  0.5484380000000 1.0
C      1  0.5285090000000  0.4616390000000  0.4515660000000 1.0
C      1  0.4714840000000  0.5383560000000  0.4515660000000 1.0
C      1  0.4616450000000  0.4515650000000  0.5285150000000 1.0
C      1  0.5383610000000  0.4515670000000  0.4714900000000 1.0
C      1  0.4616350000000  0.5484300000000  0.4714900000000 1.0
C      1  0.5285090000000  0.5484380000000  0.5383560000000 1.0
C      1  0.5383620000000  0.5285150000000  0.5484300000000 1.0
C      1  0.5484330000000  0.5383650000000  0.5285050000000 1.0
C      1  0.4714960000000  0.4515660000000  0.5383640000000 1.0
C      1  0.4714840000000  0.5484300000000  0.4616390000000 1.0
C      1  0.5285110000000  0.4515660000000  0.4616400000000 1.0
C      1  0.4616450000000  0.4714900000000  0.5484380000000 1.0
C      1  0.4616350000000  0.5285050000000  0.4515670000000 1.0
C      1  0.5383590000000  0.4714900000000  0.4515650000000 1.0
C      1  0.4515700000000  0.4616380000000  0.5285150000000 1.0
C      1  0.4515620000000  0.5383560000000  0.4714910000000 1.0
C      1  0.5484350000000  0.4616420000000  0.4714890000000 1.0
C      1  0.4624990000000  0.4421410000000  0.5181100000000 1.0
C      1  0.4421390000000  0.5180990000000  0.4624970000000 1.0
C      1  0.5181030000000  0.4624930000000  0.4421440000000 1.0
C      1  0.5375030000000  0.5578600000000  0.5181000000000 1.0
C      1  0.4624890000000  0.5578540000000  0.4818950000000 1.0
C      1  0.5375080000000  0.4421450000000  0.4818950000000 1.0
C      1  0.5578560000000  0.4818970000000  0.4624910000000 1.0
C      1  0.4421470000000  0.4818930000000  0.5375110000000 1.0
C      1  0.5578580000000  0.5181100000000  0.5375010000000 1.0
C      1  0.4818890000000  0.5375020000000  0.4421430000000 1.0
C      1  0.5181060000000  0.5375100000000  0.5578540000000 1.0
C      1  0.4819010000000  0.4624960000000  0.5578600000000 1.0
C      1  0.4421470000000  0.4624910000000  0.5181100000000 1.0
C      1  0.5181060000000  0.4421430000000  0.4624960000000 1.0
C      1  0.4624890000000  0.5181000000000  0.4421450000000 1.0
C      1  0.5578560000000  0.5375100000000  0.5180990000000 1.0
C      1  0.5578580000000  0.4624970000000  0.4818930000000 1.0
C      1  0.4421390000000  0.5375010000000  0.4818970000000 1.0
C      1  0.4818890000000  0.5578540000000  0.4624930000000 1.0
C      1  0.4819010000000  0.4421440000000  0.5375100000000 1.0
C      1  0.5181040000000  0.5578600000000  0.5375020000000 1.0
C      1  0.5375030000000  0.4818950000000  0.4421410000000 1.0
C      1  0.5375090000000  0.5181100000000  0.5578540000000 1.0
C      1  0.4624990000000  0.4818950000000  0.5578600000000 1.0
C      1  0.5484380000000  0.4616440000000  0.5285090000000 1.0
C      1  0.4616410000000  0.5285100000000  0.5484350000000 1.0
C      1  0.5285040000000  0.5484340000000  0.4616360000000 1.0
C      1  0.4515650000000  0.5383580000000  0.5285110000000 1.0
C      1  0.5484300000000  0.5383620000000  0.4714850000000 1.0
C      1  0.4515670000000  0.4616350000000  0.4714950000000 1.0
C      1  0.5383650000000  0.4714950000000  0.5484330000000 1.0
C      1  0.4616380000000  0.4714850000000  0.4515700000000 1.0
C      1  0.5383550000000  0.5285100000000  0.4515620000000 1.0
C      1  0.4714910000000  0.4515620000000  0.4616440000000 1.0
C      1  0.5285160000000  0.4515700000000  0.5383610000000 1.0
C      1  0.4714890000000  0.5484340000000  0.5383600000000 1.0
C      1  0.4616390000000  0.5484330000000  0.5285100000000 1.0
C      1  0.5285160000000  0.4616440000000  0.5484340000000 1.0
C      1  0.5484300000000  0.5285110000000  0.4616350000000 1.0
C      1  0.5383650000000  0.4515700000000  0.5285100000000 1.0
C      1  0.5383550000000  0.5484350000000  0.4714850000000 1.0
C      1  0.4616410000000  0.4515620000000  0.4714950000000 1.0
C      1  0.4714910000000  0.5383610000000  0.5484340000000 1.0
C      1  0.4714890000000  0.4616360000000  0.4515700000000 1.0
C      1  0.5285040000000  0.5383600000000  0.4515620000000 1.0
C      1  0.4515650000000  0.4714850000000  0.4616440000000 1.0
C      1  0.4515670000000  0.5285090000000  0.5383620000000 1.0
C      1  0.5484380000000  0.4714950000000  0.5383580000000 1.0
C      1  0.5135410000000  0.5624810000000  0.5243530000000 1.0
C      1  0.5624780000000  0.5243620000000  0.5135380000000 1.0
C      1  0.5243600000000  0.5135480000000  0.5624770000000 1.0
C      1  0.4864620000000  0.4375210000000  0.5243610000000 1.0
C      1  0.5135460000000  0.4375210000000  0.4756450000000 1.0
C      1  0.4864510000000  0.5624770000000  0.4756410000000 1.0
C      1  0.4375240000000  0.4756390000000  0.5135480000000 1.0
C      1  0.5624800000000  0.4756460000000  0.4864540000000 1.0
C      1  0.4375190000000  0.5243530000000  0.4864600000000 1.0
C      1  0.4756480000000  0.4864580000000  0.5624810000000 1.0
C      1  0.5243540000000  0.4864560000000  0.4375200000000 1.0
C      1  0.4756380000000  0.5135390000000  0.4375220000000 1.0
C      1  0.5624800000000  0.5135480000000  0.5243520000000 1.0
C      1  0.5243540000000  0.5624810000000  0.5135390000000 1.0
C      1  0.5135460000000  0.5243610000000  0.5624770000000 1.0
C      1  0.4375240000000  0.4864540000000  0.5243620000000 1.0
C      1  0.4375190000000  0.5135380000000  0.4756460000000 1.0
C      1  0.5624780000000  0.4864600000000  0.4756390000000 1.0
C      1  0.4756480000000  0.4375200000000  0.5135480000000 1.0
C      1  0.4756380000000  0.5624770000000  0.4864560000000 1.0
C      1  0.5243600000000  0.4375220000000  0.4864580000000 1.0
C      1  0.4864630000000  0.4756450000000  0.5624810000000 1.0
C      1  0.4864510000000  0.5243530000000  0.4375210000000 1.0
C      1  0.5135410000000  0.4756410000000  0.4375210000000 1.0
C      1  0.4507640000000  0.5105350000000  0.5596600000000 1.0
C      1  0.5105280000000  0.5596560000000  0.4507570000000 1.0
C      1  0.5596610000000  0.4507650000000  0.5105330000000 1.0
C      1  0.5492440000000  0.4894710000000  0.5596550000000 1.0
C      1  0.4507570000000  0.4894590000000  0.4403460000000 1.0
C      1  0.5492350000000  0.5105360000000  0.4403390000000 1.0
C      1  0.4894650000000  0.4403390000000  0.4507640000000 1.0
C      1  0.5105420000000  0.4403450000000  0.5492410000000 1.0
C      1  0.4894640000000  0.5596590000000  0.5492370000000 1.0
C      1  0.4403400000000  0.5492360000000  0.5105370000000 1.0
C      1  0.5596540000000  0.5492430000000  0.4894590000000 1.0
C      1  0.4403450000000  0.4507560000000  0.4894710000000 1.0
C      1  0.5105420000000  0.4507640000000  0.5596590000000 1.0
C      1  0.5596540000000  0.5105370000000  0.4507560000000 1.0
C      1  0.4507580000000  0.5596550000000  0.5105360000000 1.0
C      1  0.4894660000000  0.5492410000000  0.5596560000000 1.0
C      1  0.4894640000000  0.4507570000000  0.4403450000000 1.0
C      1  0.5105280000000  0.5492370000000  0.4403390000000 1.0
C      1  0.4403400000000  0.4894590000000  0.4507650000000 1.0
C      1  0.4403450000000  0.5105340000000  0.5492430000000 1.0
C      1  0.5596620000000  0.4894710000000  0.5492360000000 1.0
C      1  0.5492440000000  0.4403460000000  0.5105350000000 1.0
C      1  0.5492350000000  0.5596600000000  0.4894590000000 1.0
C      1  0.4507640000000  0.4403390000000  0.4894710000000 1.0
C      1  0.4756400000000  0.5624780000000  0.5135420000000 1.0
C      1  0.5624760000000  0.5135460000000  0.4756380000000 1.0
C      1  0.5135490000000  0.4756470000000  0.5624790000000 1.0
C      1  0.5243620000000  0.4375230000000  0.5135440000000 1.0
C      1  0.4756460000000  0.4375190000000  0.4864610000000 1.0
C      1  0.5243520000000  0.5624800000000  0.4864520000000 1.0
C      1  0.4375200000000  0.4864520000000  0.4756480000000 1.0
C      1  0.5624810000000  0.4864620000000  0.5243540000000 1.0
C      1  0.4375220000000  0.5135400000000  0.5243610000000 1.0
C      1  0.4864590000000  0.5243590000000  0.5624790000000 1.0
C      1  0.5135370000000  0.5243550000000  0.4375190000000 1.0
C      1  0.4864540000000  0.4756390000000  0.4375230000000 1.0
C      1  0.5624810000000  0.4756470000000  0.5135400000000 1.0
C      1  0.5135380000000  0.5624790000000  0.4756390000000 1.0
C      1  0.4756460000000  0.5135440000000  0.5624800000000 1.0
C      1  0.4375200000000  0.5243540000000  0.5135460000000 1.0
C      1  0.4375220000000  0.4756380000000  0.4864620000000 1.0
C      1  0.5624760000000  0.5243610000000  0.4864520000000 1.0
C      1  0.4864590000000  0.4375190000000  0.4756470000000 1.0
C      1  0.4864540000000  0.5624790000000  0.5243550000000 1.0
C      1  0.5135490000000  0.4375230000000  0.5243590000000 1.0
C      1  0.5243620000000  0.4864610000000  0.5624780000000 1.0
C      1  0.5243520000000  0.5135420000000  0.4375190000000 1.0
C      1  0.4756400000000  0.4864520000000  0.4375230000000 1.0
C      1  0.4311190000000  0.4999980000000  0.5489180000000 1.0
C      1  0.4999920000000  0.5489100000000  0.4311140000000 1.0
C      1  0.5489170000000  0.4311190000000  0.5000000000000 1.0
C      1  0.5688870000000  0.5000070000000  0.5489080000000 1.0
C      1  0.4311130000000  0.4999930000000  0.4510920000000 1.0
C      1  0.5688810000000  0.5000020000000  0.4510820000000 1.0
C      1  0.4999990000000  0.4510840000000  0.4311180000000 1.0
C      1  0.5000080000000  0.4510900000000  0.5688860000000 1.0
C      1  0.5000010000000  0.5489160000000  0.5688820000000 1.0
C      1  0.4510830000000  0.5688810000000  0.5000000000000 1.0
C      1  0.5489090000000  0.5688870000000  0.4999940000000 1.0
C      1  0.4510910000000  0.4311130000000  0.5000060000000 1.0
C      1  0.5000080000000  0.4311180000000  0.5489160000000 1.0
C      1  0.5489080000000  0.5000000000000  0.4311130000000 1.0
C      1  0.4311130000000  0.5489090000000  0.5000020000000 1.0
C      1  0.4999990000000  0.5688860000000  0.5489100000000 1.0
C      1  0.5000010000000  0.4311140000000  0.4510900000000 1.0
C      1  0.4999920000000  0.5688820000000  0.4510840000000 1.0
C      1  0.4510820000000  0.4999940000000  0.4311190000000 1.0
C      1  0.4510920000000  0.5000000000000  0.5688870000000 1.0
C      1  0.5489180000000  0.5000060000000  0.5688810000000 1.0
C      1  0.5688870000000  0.4510910000000  0.4999980000000 1.0
C      1  0.5688810000000  0.5489170000000  0.4999930000000 1.0
C      1  0.4311190000000  0.4510830000000  0.5000070000000 1.0
C      1  0.5181110000000  0.4624980000000  0.5578570000000 1.0
C      1  0.4624920000000  0.5578550000000  0.5181050000000 1.0
C      1  0.5578530000000  0.5181070000000  0.4624890000000 1.0
C      1  0.4818970000000  0.5375070000000  0.5578560000000 1.0
C      1  0.5180990000000  0.5375040000000  0.4421400000000 1.0
C      1  0.4818940000000  0.4624900000000  0.4421460000000 1.0
C      1  0.5375110000000  0.4421460000000  0.5181050000000 1.0
C      1  0.4624970000000  0.4421400000000  0.4819000000000 1.0
C      1  0.5375010000000  0.5578590000000  0.4818900000000 1.0
C      1  0.4421420000000  0.4818900000000  0.4624990000000 1.0
C      1  0.5578610000000  0.4819010000000  0.5375030000000 1.0
C      1  0.4421440000000  0.5181030000000  0.5375090000000 1.0
C      1  0.4624970000000  0.5181050000000  0.5578590000000 1.0
C      1  0.5578610000000  0.4624990000000  0.5181030000000 1.0
C      1  0.5180990000000  0.5578560000000  0.4624900000000 1.0
C      1  0.5375110000000  0.4819000000000  0.5578550000000 1.0
C      1  0.5375010000000  0.5181050000000  0.4421400000000 1.0
C      1  0.4624910000000  0.4818900000000  0.4421460000000 1.0
C      1  0.4421420000000  0.5375030000000  0.5181070000000 1.0
C      1  0.4421440000000  0.4624900000000  0.4819010000000 1.0
C      1  0.5578530000000  0.5375090000000  0.4818900000000 1.0
C      1  0.4818960000000  0.4421400000000  0.4624980000000 1.0
C      1  0.4818940000000  0.5578570000000  0.5375040000000 1.0
C      1  0.5181110000000  0.4421460000000  0.5375070000000 1.0
C      1  0.4768120000000  0.5643190000000  0.4999990000000 1.0
C      1  0.5643190000000  0.5000030000000  0.4768110000000 1.0
C      1  0.5000060000000  0.4768190000000  0.5643220000000 1.0
C      1  0.5231880000000  0.4356810000000  0.5000010000000 1.0
C      1  0.4768200000000  0.4356780000000  0.5000040000000 1.0
C      1  0.5231800000000  0.5643220000000  0.4999960000000 1.0
C      1  0.4356780000000  0.4999950000000  0.4768200000000 1.0
C      1  0.5643220000000  0.5000050000000  0.5231800000000 1.0
C      1  0.4356810000000  0.4999970000000  0.5231890000000 1.0
C      1  0.5000030000000  0.5231870000000  0.5643190000000 1.0
C      1  0.4999940000000  0.5231810000000  0.4356780000000 1.0
C      1  0.4999970000000  0.4768130000000  0.4356810000000 1.0
C      1  0.5643220000000  0.4768200000000  0.4999970000000 1.0
C      1  0.4999940000000  0.5643190000000  0.4768130000000 1.0
C      1  0.4768200000000  0.5000010000000  0.5643220000000 1.0
C      1  0.4356780000000  0.5231800000000  0.5000030000000 1.0
C      1  0.4356810000000  0.4768120000000  0.5000050000000 1.0
C      1  0.5643190000000  0.5231880000000  0.4999950000000 1.0
C      1  0.5000030000000  0.4356780000000  0.4768190000000 1.0
C      1  0.4999970000000  0.5643220000000  0.5231810000000 1.0
C      1  0.5000060000000  0.4356810000000  0.5231870000000 1.0
C      1  0.5231890000000  0.5000040000000  0.5643190000000 1.0
C      1  0.5231800000000  0.4999990000000  0.4356780000000 1.0
C      1  0.4768110000000  0.4999960000000  0.4356810000000 1.0
C      1  0.5492360000000  0.5596610000000  0.5105290000000 1.0
C      1  0.5596600000000  0.5105410000000  0.5492350000000 1.0
C      1  0.5105360000000  0.5492430000000  0.5596550000000 1.0
C      1  0.4507650000000  0.4403400000000  0.5105410000000 1.0
C      1  0.5492420000000  0.4403450000000  0.4894640000000 1.0
C      1  0.4507560000000  0.5596540000000  0.4894650000000 1.0
C      1  0.4403460000000  0.4894630000000  0.5492440000000 1.0
C      1  0.5596550000000  0.4894660000000  0.4507570000000 1.0
C      1  0.4403380000000  0.5105290000000  0.4507640000000 1.0
C      1  0.4894720000000  0.4507630000000  0.5596610000000 1.0
C      1  0.5105340000000  0.4507590000000  0.4403440000000 1.0
C      1  0.4894580000000  0.5492360000000  0.4403410000000 1.0
C      1  0.5596550000000  0.5492440000000  0.5105290000000 1.0
C      1  0.5105350000000  0.5596610000000  0.5492360000000 1.0
C      1  0.5492430000000  0.5105410000000  0.5596540000000 1.0
C      1  0.4403460000000  0.4507570000000  0.5105410000000 1.0
C      1  0.4403390000000  0.5492350000000  0.4894670000000 1.0
C      1  0.5596600000000  0.4507640000000  0.4894630000000 1.0
C      1  0.4894720000000  0.4403440000000  0.5492430000000 1.0
C      1  0.4894580000000  0.5596550000000  0.4507590000000 1.0
C      1  0.5105360000000  0.4403410000000  0.4507630000000 1.0
C      1  0.4507650000000  0.4894640000000  0.5596610000000 1.0
C      1  0.4507560000000  0.5105290000000  0.4403450000000 1.0
C      1  0.5492360000000  0.4894650000000  0.4403400000000 1.0
END
