TITL C240-926427 3.99319331421865 1000000 -1708.27418398298 0 0 240 (C1) n - 1
REM
REM in /home/chem/mssmkc/work/CARBON/AIRSS/Generating-Clusters/Str-Search/GAP20/LAMMPS-RUNS
REM
REM
REM
REM
REM
REM C240.cell (606aaf1d26b7f5188075cd244be80bad)
REM
REM
REM
REM
REM
CELL 1.54180  100.00000  100.00000  100.00000   90.00000   90.00000   90.00000
LATT -1
SFAC C  
C      1  0.5011370000000  0.5208680000000  0.5669440000000 1.0
C      1  0.5587480000000  0.4799110000000  0.5439660000000 1.0
C      1  0.4684700000000  0.4716090000000  0.4391620000000 1.0
C      1  0.4889750000000  0.5239420000000  0.4376510000000 1.0
C      1  0.5081400000000  0.4509720000000  0.4516490000000 1.0
C      1  0.4348740000000  0.5125990000000  0.4415830000000 1.0
C      1  0.5251040000000  0.5606610000000  0.5211750000000 1.0
C      1  0.4858930000000  0.4583830000000  0.5449310000000 1.0
C      1  0.4256080000000  0.5221020000000  0.4662080000000 1.0
C      1  0.4785540000000  0.4768800000000  0.5575490000000 1.0
C      1  0.5357510000000  0.4422480000000  0.5178310000000 1.0
C      1  0.5021980000000  0.5172850000000  0.4360850000000 1.0
C      1  0.4264820000000  0.4989110000000  0.5143010000000 1.0
C      1  0.4495920000000  0.5441690000000  0.4805980000000 1.0
C      1  0.4921580000000  0.4877160000000  0.4418100000000 1.0
C      1  0.5739850000000  0.4986590000000  0.5179630000000 1.0
C      1  0.5538890000000  0.4522610000000  0.4826850000000 1.0
C      1  0.5181130000000  0.4588290000000  0.5408090000000 1.0
C      1  0.5548790000000  0.5136150000000  0.4552780000000 1.0
C      1  0.4505900000000  0.4876270000000  0.5454990000000 1.0
C      1  0.4614510000000  0.5519490000000  0.4751970000000 1.0
C      1  0.5688910000000  0.5098540000000  0.5255680000000 1.0
C      1  0.5754940000000  0.5186590000000  0.4770430000000 1.0
C      1  0.4691190000000  0.5618240000000  0.5173950000000 1.0
C      1  0.5254790000000  0.5238800000000  0.4522340000000 1.0
C      1  0.5134430000000  0.4636200000000  0.4459760000000 1.0
C      1  0.4680480000000  0.4419170000000  0.4785440000000 1.0
C      1  0.4836040000000  0.5526590000000  0.5427500000000 1.0
C      1  0.4423670000000  0.4856930000000  0.4507930000000 1.0
C      1  0.5615490000000  0.5084750000000  0.5535120000000 1.0
C      1  0.5095830000000  0.5472460000000  0.4680220000000 1.0
C      1  0.5008940000000  0.4924020000000  0.5716970000000 1.0
C      1  0.4276470000000  0.5019270000000  0.4857900000000 1.0
C      1  0.5208380000000  0.4239370000000  0.4968270000000 1.0
C      1  0.4768410000000  0.5332480000000  0.5578770000000 1.0
C      1  0.5661250000000  0.4740040000000  0.5323190000000 1.0
C      1  0.4509990000000  0.5407570000000  0.5111840000000 1.0
C      1  0.5664080000000  0.4928400000000  0.4837890000000 1.0
C      1  0.4784670000000  0.5696470000000  0.4931300000000 1.0
C      1  0.5127690000000  0.5465970000000  0.5447930000000 1.0
C      1  0.5595530000000  0.4800540000000  0.4832050000000 1.0
C      1  0.4801720000000  0.4510820000000  0.4559190000000 1.0
C      1  0.4444580000000  0.5196990000000  0.5390530000000 1.0
C      1  0.5187890000000  0.5359050000000  0.5524280000000 1.0
C      1  0.5239090000000  0.4846180000000  0.5532930000000 1.0
C      1  0.4337340000000  0.5217700000000  0.5293050000000 1.0
C      1  0.5597630000000  0.4501080000000  0.5049050000000 1.0
C      1  0.5170700000000  0.5663230000000  0.5106790000000 1.0
C      1  0.4852720000000  0.5509850000000  0.4513770000000 1.0
C      1  0.4806090000000  0.4376640000000  0.5051410000000 1.0
C      1  0.5515290000000  0.4999050000000  0.4518330000000 1.0
C      1  0.4735150000000  0.4376140000000  0.5179080000000 1.0
C      1  0.5341320000000  0.5629200000000  0.4881670000000 1.0
C      1  0.5454230000000  0.5557850000000  0.4941610000000 1.0
C      1  0.4394970000000  0.4814880000000  0.4644660000000 1.0
C      1  0.4428400000000  0.4796540000000  0.5347560000000 1.0
C      1  0.5311840000000  0.4352980000000  0.4729900000000 1.0
C      1  0.4486480000000  0.4519960000000  0.4991180000000 1.0
C      1  0.4471480000000  0.4488740000000  0.5130490000000 1.0
C      1  0.5529390000000  0.5549050000000  0.5217150000000 1.0
C      1  0.4984540000000  0.5488030000000  0.5245010000000 1.0
C      1  0.5560340000000  0.5219140000000  0.5089230000000 1.0
C      1  0.5308360000000  0.4709120000000  0.4612690000000 1.0
C      1  0.5335950000000  0.5383050000000  0.4721320000000 1.0
C      1  0.4792050000000  0.4933010000000  0.4453420000000 1.0
C      1  0.4423370000000  0.4812720000000  0.4879710000000 1.0
C      1  0.5443410000000  0.5359260000000  0.4819850000000 1.0
C      1  0.5279210000000  0.4988550000000  0.5520270000000 1.0
C      1  0.4606850000000  0.4730880000000  0.4741390000000 1.0
C      1  0.5318620000000  0.4640860000000  0.5414100000000 1.0
C      1  0.5330830000000  0.4587580000000  0.4687320000000 1.0
C      1  0.5001970000000  0.5525640000000  0.4783850000000 1.0
C      1  0.4653220000000  0.5084650000000  0.5437640000000 1.0
C      1  0.4841830000000  0.5505190000000  0.5063610000000 1.0
C      1  0.5021370000000  0.4492980000000  0.4784760000000 1.0
C      1  0.5416890000000  0.4983030000000  0.5485070000000 1.0
C      1  0.5127520000000  0.4432070000000  0.5083970000000 1.0
C      1  0.4837880000000  0.5016630000000  0.5563500000000 1.0
C      1  0.5623050000000  0.4721390000000  0.4947710000000 1.0
C      1  0.4278890000000  0.5117880000000  0.5079240000000 1.0
C      1  0.4624510000000  0.5387660000000  0.5198900000000 1.0
C      1  0.5420490000000  0.4591040000000  0.5344050000000 1.0
C      1  0.5413540000000  0.4803030000000  0.4633270000000 1.0
C      1  0.4599890000000  0.5294440000000  0.4595240000000 1.0
C      1  0.4718500000000  0.5302810000000  0.4536010000000 1.0
C      1  0.4689260000000  0.4726180000000  0.4625630000000 1.0
C      1  0.4617140000000  0.4551810000000  0.5315980000000 1.0
C      1  0.5208630000000  0.5113080000000  0.5534040000000 1.0
C      1  0.4296350000000  0.5140010000000  0.4939400000000 1.0
C      1  0.5658350000000  0.4776480000000  0.5075190000000 1.0
C      1  0.4727200000000  0.5061890000000  0.4455700000000 1.0
C      1  0.4988690000000  0.4499600000000  0.5252300000000 1.0
C      1  0.4581050000000  0.5041440000000  0.4463320000000 1.0
C      1  0.5609430000000  0.4584180000000  0.4934750000000 1.0
C      1  0.5359020000000  0.5269310000000  0.5363510000000 1.0
C      1  0.5477530000000  0.5186360000000  0.5346210000000 1.0
C      1  0.4860860000000  0.5520850000000  0.4800530000000 1.0
C      1  0.5274200000000  0.4971080000000  0.4517420000000 1.0
C      1  0.4372580000000  0.5268690000000  0.4927220000000 1.0
C      1  0.4779710000000  0.5118400000000  0.5484770000000 1.0
C      1  0.5530180000000  0.5265190000000  0.4767070000000 1.0
C      1  0.5175140000000  0.4872890000000  0.4488920000000 1.0
C      1  0.4402790000000  0.4768560000000  0.5107130000000 1.0
C      1  0.4791000000000  0.5316820000000  0.5346190000000 1.0
C      1  0.4742210000000  0.4660090000000  0.5488860000000 1.0
C      1  0.4632050000000  0.4643090000000  0.5416950000000 1.0
C      1  0.5144180000000  0.4459360000000  0.4848640000000 1.0
C      1  0.5505730000000  0.5349410000000  0.5071530000000 1.0
C      1  0.5222070000000  0.5101350000000  0.4483130000000 1.0
C      1  0.4472350000000  0.4738280000000  0.4986400000000 1.0
C      1  0.5619550000000  0.5144240000000  0.4974480000000 1.0
C      1  0.4649230000000  0.4645390000000  0.4843480000000 1.0
C      1  0.5352400000000  0.5387520000000  0.5281170000000 1.0
C      1  0.4969100000000  0.5530450000000  0.5112020000000 1.0
C      1  0.4479930000000  0.5241450000000  0.4578270000000 1.0
C      1  0.4659610000000  0.5294010000000  0.5300660000000 1.0
C      1  0.5456620000000  0.4514590000000  0.5240920000000 1.0
C      1  0.4997980000000  0.4478140000000  0.5107550000000 1.0
C      1  0.4896130000000  0.4507480000000  0.4855440000000 1.0
C      1  0.5088230000000  0.5582360000000  0.4890530000000 1.0
C      1  0.5079740000000  0.5118220000000  0.5599050000000 1.0
C      1  0.5459210000000  0.4845560000000  0.5467260000000 1.0
C      1  0.4677270000000  0.4819550000000  0.4497030000000 1.0
C      1  0.4777730000000  0.5199740000000  0.4450630000000 1.0
C      1  0.5088060000000  0.4486810000000  0.4652110000000 1.0
C      1  0.4473980000000  0.5140120000000  0.4475330000000 1.0
C      1  0.5242500000000  0.5475100000000  0.5262590000000 1.0
C      1  0.4865200000000  0.4516990000000  0.5325560000000 1.0
C      1  0.4380250000000  0.5267210000000  0.4677240000000 1.0
C      1  0.4749830000000  0.4902170000000  0.5550470000000 1.0
C      1  0.5215220000000  0.4443870000000  0.5195210000000 1.0
C      1  0.5090890000000  0.5071820000000  0.4423820000000 1.0
C      1  0.4319850000000  0.4884050000000  0.5070020000000 1.0
C      1  0.4420610000000  0.5324540000000  0.4804130000000 1.0
C      1  0.5055090000000  0.4934620000000  0.4436960000000 1.0
C      1  0.5678950000000  0.4918130000000  0.5076220000000 1.0
C      1  0.5460070000000  0.4607870000000  0.4748840000000 1.0
C      1  0.5132230000000  0.4507750000000  0.5301120000000 1.0
C      1  0.5483460000000  0.5225380000000  0.4636710000000 1.0
C      1  0.4627290000000  0.4945400000000  0.5477410000000 1.0
C      1  0.4748250000000  0.5489490000000  0.4713560000000 1.0
C      1  0.5571140000000  0.5173280000000  0.5234010000000 1.0
C      1  0.5638250000000  0.5208270000000  0.4842210000000 1.0
C      1  0.4745190000000  0.5484580000000  0.5184340000000 1.0
C      1  0.5353260000000  0.5281040000000  0.4617530000000 1.0
C      1  0.5206750000000  0.4738720000000  0.4518690000000 1.0
C      1  0.4755780000000  0.4547120000000  0.4791880000000 1.0
C      1  0.4847020000000  0.5450830000000  0.5303520000000 1.0
C      1  0.4552120000000  0.4906780000000  0.4479690000000 1.0
C      1  0.5502530000000  0.5092280000000  0.5456670000000 1.0
C      1  0.5227550000000  0.5469760000000  0.4741090000000 1.0
C      1  0.4967940000000  0.5023300000000  0.5630180000000 1.0
C      1  0.4326170000000  0.4903970000000  0.4928020000000 1.0
C      1  0.5163140000000  0.4377210000000  0.4959470000000 1.0
C      1  0.4811910000000  0.5253980000000  0.5471490000000 1.0
C      1  0.5637760000000  0.4691560000000  0.5192580000000 1.0
C      1  0.4409100000000  0.5311710000000  0.5063910000000 1.0
C      1  0.5652720000000  0.5002220000000  0.4962890000000 1.0
C      1  0.4820300000000  0.5559960000000  0.4934510000000 1.0
C      1  0.5105410000000  0.5465770000000  0.5310390000000 1.0
C      1  0.5504780000000  0.4747820000000  0.4733700000000 1.0
C      1  0.4765030000000  0.4603790000000  0.4646270000000 1.0
C      1  0.4582340000000  0.5191880000000  0.5372350000000 1.0
C      1  0.5256800000000  0.5244260000000  0.5477190000000 1.0
C      1  0.5342090000000  0.4767610000000  0.5474670000000 1.0
C      1  0.4337410000000  0.5226590000000  0.5153270000000 1.0
C      1  0.5576590000000  0.4561850000000  0.5171380000000 1.0
C      1  0.5068950000000  0.5598070000000  0.5031290000000 1.0
C      1  0.4775000000000  0.5427530000000  0.4585300000000 1.0
C      1  0.4897030000000  0.4468100000000  0.4998530000000 1.0
C      1  0.5403170000000  0.4924060000000  0.4556530000000 1.0
C      1  0.4735660000000  0.4474710000000  0.5277120000000 1.0
C      1  0.5224270000000  0.5570460000000  0.4841780000000 1.0
C      1  0.5473190000000  0.5418920000000  0.4948300000000 1.0
C      1  0.4477400000000  0.4793470000000  0.4751760000000 1.0
C      1  0.4442290000000  0.4710480000000  0.5234130000000 1.0
C      1  0.5232380000000  0.4474340000000  0.4718320000000 1.0
C      1  0.4557470000000  0.4633200000000  0.4949420000000 1.0
C      1  0.4502480000000  0.4576620000000  0.5233280000000 1.0
C      1  0.5468940000000  0.5427850000000  0.5194340000000 1.0
C      1  0.4918970000000  0.4739690000000  0.4369790000000 1.0
C      1  0.4260580000000  0.5052440000000  0.4488540000000 1.0
C      1  0.5099740000000  0.5402510000000  0.5633560000000 1.0
C      1  0.5135220000000  0.4766640000000  0.5577490000000 1.0
C      1  0.4901120000000  0.5513410000000  0.5544030000000 1.0
C      1  0.5706940000000  0.4867960000000  0.5482020000000 1.0
C      1  0.4625230000000  0.4348500000000  0.4884490000000 1.0
C      1  0.5084100000000  0.5436380000000  0.4545620000000 1.0
C      1  0.5775680000000  0.4821460000000  0.5362540000000 1.0
C      1  0.5159820000000  0.5336170000000  0.4475020000000 1.0
C      1  0.4577190000000  0.5629130000000  0.4842700000000 1.0
C      1  0.5022830000000  0.4803300000000  0.5660920000000 1.0
C      1  0.5739140000000  0.4955990000000  0.4723820000000 1.0
C      1  0.5529140000000  0.4384110000000  0.5009000000000 1.0
C      1  0.4984420000000  0.5338910000000  0.5685530000000 1.0
C      1  0.4237450000000  0.4997780000000  0.4719960000000 1.0
C      1  0.4510800000000  0.5534970000000  0.5044550000000 1.0
C      1  0.4967240000000  0.5465680000000  0.4462280000000 1.0
C      1  0.4385800000000  0.4959580000000  0.5473660000000 1.0
C      1  0.5688480000000  0.5100680000000  0.4554750000000 1.0
C      1  0.5410790000000  0.4342950000000  0.5070980000000 1.0
C      1  0.4269790000000  0.4883550000000  0.4643910000000 1.0
C      1  0.4319730000000  0.4889990000000  0.5364770000000 1.0
C      1  0.5390990000000  0.4318610000000  0.4832040000000 1.0
C      1  0.4914170000000  0.4727640000000  0.5617150000000 1.0
C      1  0.4860830000000  0.5408100000000  0.5638170000000 1.0
C      1  0.5352100000000  0.5708530000000  0.5199800000000 1.0
C      1  0.4977480000000  0.4514650000000  0.4413400000000 1.0
C      1  0.5714650000000  0.5008880000000  0.5487520000000 1.0
C      1  0.4291650000000  0.4915220000000  0.4501200000000 1.0
C      1  0.4963110000000  0.4627330000000  0.5530400000000 1.0
C      1  0.5083590000000  0.5301240000000  0.4361590000000 1.0
C      1  0.5814180000000  0.4937300000000  0.5292970000000 1.0
C      1  0.4649920000000  0.5695730000000  0.4944030000000 1.0
C      1  0.5024440000000  0.4646990000000  0.4369800000000 1.0
C      1  0.4218640000000  0.5100060000000  0.4621350000000 1.0
C      1  0.5507650000000  0.4390000000000  0.4867370000000 1.0
C      1  0.4253620000000  0.4986380000000  0.5285430000000 1.0
C      1  0.5335810000000  0.4277650000000  0.4965150000000 1.0
C      1  0.4839700000000  0.4523370000000  0.4428010000000 1.0
C      1  0.4265360000000  0.5110020000000  0.5354480000000 1.0
C      1  0.5044310000000  0.5512980000000  0.5553880000000 1.0
C      1  0.5654210000000  0.4958640000000  0.4521540000000 1.0
C      1  0.4799330000000  0.4656350000000  0.4369770000000 1.0
C      1  0.4954980000000  0.5368090000000  0.4362680000000 1.0
C      1  0.5725320000000  0.4878670000000  0.4603380000000 1.0
C      1  0.4483500000000  0.5542840000000  0.4907810000000 1.0
C      1  0.4704400000000  0.4294010000000  0.4991170000000 1.0
C      1  0.5100480000000  0.4646810000000  0.5507520000000 1.0
C      1  0.5276600000000  0.5759640000000  0.5080040000000 1.0
C      1  0.4363010000000  0.5096420000000  0.5462990000000 1.0
C      1  0.5363950000000  0.5740960000000  0.4971310000000 1.0
C      1  0.4629810000000  0.4296920000000  0.5118790000000 1.0
C      1  0.4502230000000  0.4350610000000  0.5093950000000 1.0
C      1  0.5772310000000  0.5056650000000  0.5366480000000 1.0
C      1  0.5758310000000  0.5091780000000  0.4677770000000 1.0
C      1  0.4603190000000  0.5641380000000  0.5075290000000 1.0
C      1  0.5480470000000  0.5661620000000  0.5161390000000 1.0
C      1  0.5487480000000  0.5672670000000  0.5020020000000 1.0
C      1  0.4502100000000  0.4384180000000  0.4948920000000 1.0
END
