TITL C-102689-8077-26 0.0222212544961177 1000000 -1671.90604706835 0 0 240 (C1) n - 1
REM
REM in /home/chem/mssmkc/work/GAP20/Larger-Clusters/Only-C240-new-series
REM
REM
REM
REM
REM
REM ./C.cell (0485df7495ed2a90f93db84a705cd676)
REM
REM compiler GCC version 8.3.0
REM options -cpp -mtune=generic -march=x86-64 -g -O0
REM seed -2119193846 687664134 2139682809 1455801646 -212198662 -1021057952 -1620361468 -77095136 -2134155384 -154962827 750464351 990451472 -1882941352 -595237203 1308082924 622787517 -210719437 -891585104 -1877073416 509184907 1226702027 242800894 -1266076231 1244675217 263734991 1017326734 -1501578044 -1792517710 1654127467 -2134571504 -965040691 -107708888 -866012127
REM
CELL 1.54180  100.00000  100.00000  100.00000   90.00000   90.00000   90.00000
LATT -1
SFAC C  
C      1  0.4581680000000  0.4861780000000  0.4536670000000 1.0
C      1  0.4481390000000  0.4591520000000  0.4853320000000 1.0
C      1  0.4867330000000  0.4548250000000  0.4584200000000 1.0
C      1  0.4555940000000  0.5147540000000  0.5460160000000 1.0
C      1  0.5415560000000  0.5150680000000  0.4471140000000 1.0
C      1  0.5415820000000  0.4857980000000  0.5464950000000 1.0
C      1  0.4535640000000  0.5433450000000  0.5134110000000 1.0
C      1  0.5468120000000  0.5407750000000  0.4859290000000 1.0
C      1  0.5479620000000  0.4585120000000  0.5143260000000 1.0
C      1  0.4850460000000  0.5462580000000  0.5421340000000 1.0
C      1  0.5138730000000  0.5456720000000  0.4592030000000 1.0
C      1  0.5149590000000  0.4528270000000  0.5412330000000 1.0
C      1  0.5448650000000  0.4832940000000  0.4454730000000 1.0
C      1  0.5481160000000  0.4591700000000  0.4857460000000 1.0
C      1  0.5158450000000  0.4537220000000  0.4572240000000 1.0
C      1  0.5432540000000  0.5136050000000  0.5480090000000 1.0
C      1  0.4582290000000  0.5141660000000  0.4534020000000 1.0
C      1  0.4576320000000  0.4859020000000  0.5461110000000 1.0
C      1  0.5468200000000  0.5413740000000  0.5143400000000 1.0
C      1  0.4543620000000  0.5421850000000  0.4855630000000 1.0
C      1  0.4461630000000  0.4561670000000  0.5165210000000 1.0
C      1  0.5132970000000  0.5449420000000  0.5422960000000 1.0
C      1  0.4861830000000  0.5467380000000  0.4580050000000 1.0
C      1  0.4868040000000  0.4536860000000  0.5390770000000 1.0
C      1  0.5319830000000  0.5061430000000  0.4435790000000 1.0
C      1  0.4473790000000  0.5326840000000  0.5066600000000 1.0
C      1  0.5085750000000  0.4464860000000  0.5301180000000 1.0
C      1  0.5309080000000  0.4927540000000  0.5528720000000 1.0
C      1  0.4683200000000  0.4929180000000  0.4467490000000 1.0
C      1  0.4660070000000  0.5079170000000  0.5529190000000 1.0
C      1  0.4440710000000  0.4688160000000  0.4939410000000 1.0
C      1  0.5547120000000  0.4689870000000  0.5076780000000 1.0
C      1  0.5526160000000  0.5299490000000  0.4934130000000 1.0
C      1  0.5069770000000  0.5516120000000  0.4699480000000 1.0
C      1  0.4923170000000  0.5514340000000  0.5310770000000 1.0
C      1  0.4946080000000  0.4491230000000  0.4689240000000 1.0
C      1  0.4695310000000  0.5070190000000  0.4478420000000 1.0
C      1  0.5526510000000  0.5301910000000  0.5077250000000 1.0
C      1  0.4944570000000  0.4465530000000  0.5294170000000 1.0
C      1  0.4682920000000  0.4935900000000  0.5515410000000 1.0
C      1  0.5343650000000  0.4912730000000  0.4417870000000 1.0
C      1  0.5325540000000  0.5068080000000  0.5545600000000 1.0
C      1  0.5550670000000  0.4691300000000  0.4933900000000 1.0
C      1  0.4420810000000  0.4665850000000  0.5086770000000 1.0
C      1  0.4487020000000  0.5311730000000  0.4925880000000 1.0
C      1  0.4929190000000  0.5526370000000  0.4691770000000 1.0
C      1  0.5065330000000  0.5500950000000  0.5308320000000 1.0
C      1  0.5089330000000  0.4485510000000  0.4684260000000 1.0
C      1  0.4643780000000  0.5383320000000  0.5522880000000 1.0
C      1  0.5533500000000  0.4666220000000  0.5374480000000 1.0
C      1  0.5366480000000  0.5515580000000  0.4665060000000 1.0
C      1  0.4662680000000  0.4631980000000  0.4478520000000 1.0
C      1  0.5338830000000  0.4629260000000  0.5520880000000 1.0
C      1  0.5323510000000  0.5372340000000  0.4465850000000 1.0
C      1  0.5514460000000  0.5324250000000  0.4618520000000 1.0
C      1  0.4464130000000  0.5350170000000  0.5361610000000 1.0
C      1  0.4469590000000  0.4674280000000  0.4628710000000 1.0
C      1  0.5382990000000  0.4474110000000  0.5334330000000 1.0
C      1  0.4632980000000  0.4493130000000  0.4681370000000 1.0
C      1  0.4626600000000  0.5534480000000  0.5331320000000 1.0
C      1  0.5337110000000  0.5366140000000  0.5531750000000 1.0
C      1  0.4464930000000  0.4653980000000  0.5393380000000 1.0
C      1  0.4633700000000  0.5530460000000  0.4659530000000 1.0
C      1  0.5358240000000  0.4603420000000  0.4454190000000 1.0
C      1  0.4681800000000  0.4636350000000  0.5509050000000 1.0
C      1  0.4666430000000  0.5368710000000  0.4476770000000 1.0
C      1  0.4480360000000  0.5338090000000  0.4632310000000 1.0
C      1  0.5522600000000  0.5334780000000  0.5375010000000 1.0
C      1  0.5537380000000  0.4669350000000  0.4615680000000 1.0
C      1  0.4628500000000  0.4479360000000  0.5322360000000 1.0
C      1  0.5386880000000  0.4477150000000  0.4664350000000 1.0
C      1  0.5359090000000  0.5512780000000  0.5337390000000 1.0
C      1  0.4659260000000  0.4964500000000  0.4760380000000 1.0
C      1  0.4870700000000  0.4686500000000  0.4931340000000 1.0
C      1  0.4952870000000  0.4789870000000  0.4591940000000 1.0
C      1  0.4589400000000  0.5058040000000  0.5214550000000 1.0
C      1  0.5338720000000  0.5045300000000  0.4843920000000 1.0
C      1  0.5361940000000  0.4918950000000  0.5210570000000 1.0
C      1  0.4776220000000  0.5385310000000  0.5067720000000 1.0
C      1  0.5085560000000  0.5287540000000  0.4939130000000 1.0
C      1  0.5233230000000  0.4635040000000  0.5073060000000 1.0
C      1  0.4921260000000  0.5215310000000  0.5421030000000 1.0
C      1  0.5043180000000  0.5230760000000  0.4658980000000 1.0
C      1  0.5034060000000  0.4877160000000  0.5332790000000 1.0
C      1  0.5357690000000  0.4905670000000  0.4846900000000 1.0
C      1  0.5234160000000  0.4641470000000  0.4930470000000 1.0
C      1  0.5086140000000  0.4785980000000  0.4558180000000 1.0
C      1  0.5319730000000  0.5034570000000  0.5158060000000 1.0
C      1  0.4661950000000  0.5019160000000  0.4872350000000 1.0
C      1  0.4559050000000  0.4924380000000  0.5215800000000 1.0
C      1  0.5076020000000  0.5284410000000  0.5065680000000 1.0
C      1  0.4781090000000  0.5388280000000  0.4924320000000 1.0
C      1  0.4868660000000  0.4670950000000  0.5071460000000 1.0
C      1  0.5058070000000  0.5211480000000  0.5409370000000 1.0
C      1  0.4986020000000  0.5120260000000  0.4652170000000 1.0
C      1  0.4979860000000  0.4765400000000  0.5324490000000 1.0
C      1  0.4893820000000  0.4475770000000  0.4819720000000 1.0
C      1  0.4804300000000  0.4860840000000  0.4439820000000 1.0
C      1  0.4438470000000  0.4830100000000  0.4887430000000 1.0
C      1  0.4862320000000  0.5556010000000  0.5185870000000 1.0
C      1  0.5129560000000  0.5525860000000  0.4832770000000 1.0
C      1  0.5154620000000  0.4443480000000  0.5174880000000 1.0
C      1  0.4771230000000  0.5153520000000  0.5572080000000 1.0
C      1  0.5177880000000  0.5112700000000  0.4434950000000 1.0
C      1  0.5176360000000  0.4872500000000  0.5534900000000 1.0
C      1  0.4444880000000  0.5206390000000  0.5133610000000 1.0
C      1  0.5538600000000  0.5170090000000  0.4877580000000 1.0
C      1  0.5566960000000  0.4817780000000  0.5144100000000 1.0
C      1  0.5154790000000  0.4458120000000  0.4811100000000 1.0
C      1  0.5224970000000  0.4838380000000  0.4391270000000 1.0
C      1  0.5566860000000  0.4821490000000  0.4878870000000 1.0
C      1  0.5126800000000  0.5515960000000  0.5176240000000 1.0
C      1  0.4864480000000  0.5562150000000  0.4815220000000 1.0
C      1  0.4893010000000  0.4455710000000  0.5161240000000 1.0
C      1  0.5202870000000  0.5136290000000  0.5561300000000 1.0
C      1  0.4825680000000  0.5126030000000  0.4463420000000 1.0
C      1  0.4820540000000  0.4884080000000  0.5527910000000 1.0
C      1  0.5540470000000  0.5174020000000  0.5144880000000 1.0
C      1  0.4468930000000  0.5179750000000  0.4873280000000 1.0
C      1  0.4393270000000  0.4784550000000  0.5161250000000 1.0
C      1  0.5112630000000  0.4544680000000  0.4915810000000 1.0
C      1  0.4939470000000  0.5043540000000  0.4530720000000 1.0
C      1  0.4463580000000  0.4892720000000  0.5112710000000 1.0
C      1  0.5049160000000  0.5439870000000  0.5078520000000 1.0
C      1  0.4906960000000  0.5479300000000  0.4922190000000 1.0
C      1  0.4963480000000  0.4547890000000  0.5073460000000 1.0
C      1  0.4924440000000  0.4977900000000  0.5506600000000 1.0
C      1  0.5115370000000  0.4886800000000  0.4460050000000 1.0
C      1  0.5123580000000  0.5096360000000  0.5455730000000 1.0
C      1  0.4539460000000  0.5066540000000  0.4955150000000 1.0
C      1  0.5454120000000  0.5072410000000  0.5090330000000 1.0
C      1  0.5476030000000  0.4913780000000  0.4944940000000 1.0
C      1  0.4963460000000  0.4559960000000  0.4916660000000 1.0
C      1  0.5076070000000  0.5018600000000  0.4462330000000 1.0
C      1  0.5481240000000  0.4915630000000  0.5091810000000 1.0
C      1  0.4904600000000  0.5476040000000  0.5077720000000 1.0
C      1  0.5052180000000  0.5443130000000  0.4924660000000 1.0
C      1  0.5111540000000  0.4534570000000  0.5074950000000 1.0
C      1  0.5069960000000  0.4955440000000  0.5458150000000 1.0
C      1  0.4885580000000  0.4904300000000  0.4544810000000 1.0
C      1  0.4884450000000  0.5108450000000  0.5508660000000 1.0
C      1  0.5454790000000  0.5071560000000  0.4941630000000 1.0
C      1  0.4549490000000  0.5122320000000  0.5095880000000 1.0
C      1  0.4468740000000  0.4931620000000  0.4980940000000 1.0
C      1  0.5641180000000  0.5269770000000  0.5342560000000 1.0
C      1  0.5321690000000  0.5624340000000  0.5263960000000 1.0
C      1  0.5271250000000  0.5341320000000  0.5655300000000 1.0
C      1  0.5633370000000  0.4764140000000  0.4650780000000 1.0
C      1  0.4336990000000  0.4715780000000  0.5387070000000 1.0
C      1  0.4368230000000  0.5268230000000  0.4671970000000 1.0
C      1  0.5362260000000  0.4357970000000  0.4734580000000 1.0
C      1  0.4667780000000  0.4392820000000  0.5221650000000 1.0
C      1  0.4661240000000  0.5651380000000  0.4725620000000 1.0
C      1  0.5290150000000  0.4612920000000  0.4329990000000 1.0
C      1  0.4763550000000  0.4668810000000  0.5617050000000 1.0
C      1  0.4736850000000  0.5328970000000  0.4364520000000 1.0
C      1  0.4343140000000  0.5285260000000  0.5330250000000 1.0
C      1  0.4659250000000  0.5654660000000  0.5266150000000 1.0
C      1  0.4700840000000  0.5367950000000  0.5652310000000 1.0
C      1  0.4366560000000  0.4759360000000  0.4667620000000 1.0
C      1  0.5652590000000  0.4736800000000  0.5352210000000 1.0
C      1  0.5607880000000  0.5229120000000  0.4654710000000 1.0
C      1  0.4670120000000  0.4395780000000  0.4772350000000 1.0
C      1  0.5359480000000  0.4356240000000  0.5262380000000 1.0
C      1  0.5329670000000  0.5624310000000  0.4741440000000 1.0
C      1  0.4725570000000  0.4654230000000  0.4354690000000 1.0
C      1  0.5262510000000  0.4667300000000  0.5629240000000 1.0
C      1  0.5238090000000  0.5336770000000  0.4361780000000 1.0
C      1  0.5295560000000  0.4422510000000  0.5161840000000 1.0
C      1  0.5155830000000  0.5256360000000  0.4438080000000 1.0
C      1  0.4404330000000  0.5181200000000  0.5269940000000 1.0
C      1  0.5268510000000  0.5550130000000  0.4844260000000 1.0
C      1  0.4724320000000  0.5589920000000  0.5165890000000 1.0
C      1  0.4754710000000  0.4476600000000  0.4846620000000 1.0
C      1  0.5161750000000  0.4729630000000  0.5552570000000 1.0
C      1  0.4828100000000  0.4721580000000  0.4411140000000 1.0
C      1  0.4796120000000  0.5293850000000  0.5593010000000 1.0
C      1  0.4438710000000  0.4848600000000  0.4744130000000 1.0
C      1  0.5582230000000  0.4833370000000  0.5284530000000 1.0
C      1  0.5540000000000  0.5143630000000  0.4738260000000 1.0
C      1  0.4753060000000  0.4463740000000  0.5141250000000 1.0
C      1  0.4840160000000  0.5267830000000  0.4439470000000 1.0
C      1  0.5573510000000  0.5161190000000  0.5284340000000 1.0
C      1  0.4724880000000  0.5589870000000  0.4828460000000 1.0
C      1  0.5264270000000  0.5548340000000  0.5158400000000 1.0
C      1  0.5294970000000  0.4431590000000  0.4829060000000 1.0
C      1  0.4845870000000  0.4742010000000  0.5531840000000 1.0
C      1  0.5199880000000  0.4695530000000  0.4384950000000 1.0
C      1  0.5170840000000  0.5273960000000  0.5596380000000 1.0
C      1  0.5566350000000  0.4844790000000  0.4738920000000 1.0
C      1  0.4386700000000  0.4809050000000  0.5304370000000 1.0
C      1  0.4441550000000  0.5163420000000  0.4732630000000 1.0
C      1  0.5291180000000  0.4525070000000  0.5432690000000 1.0
C      1  0.5430900000000  0.5282900000000  0.4504170000000 1.0
C      1  0.4526730000000  0.5446540000000  0.5274180000000 1.0
C      1  0.5275350000000  0.5463610000000  0.4566000000000 1.0
C      1  0.4709150000000  0.5475310000000  0.5431780000000 1.0
C      1  0.4723320000000  0.4545350000000  0.4577710000000 1.0
C      1  0.5436020000000  0.4719370000000  0.5467850000000 1.0
C      1  0.4562980000000  0.4723430000000  0.4532380000000 1.0
C      1  0.4547900000000  0.5291270000000  0.5463230000000 1.0
C      1  0.4515700000000  0.4572900000000  0.4721670000000 1.0
C      1  0.5482080000000  0.4567170000000  0.5283160000000 1.0
C      1  0.5464820000000  0.5422100000000  0.4714830000000 1.0
C      1  0.4728030000000  0.4537020000000  0.5411650000000 1.0
C      1  0.4567140000000  0.5282660000000  0.4531730000000 1.0
C      1  0.5464130000000  0.5429010000000  0.5285230000000 1.0
C      1  0.4720790000000  0.5473660000000  0.4561640000000 1.0
C      1  0.5274080000000  0.5455170000000  0.5437060000000 1.0
C      1  0.5299690000000  0.4524620000000  0.4558670000000 1.0
C      1  0.4570070000000  0.4717490000000  0.5467510000000 1.0
C      1  0.5459020000000  0.4701420000000  0.4495600000000 1.0
C      1  0.5438850000000  0.5279200000000  0.5479700000000 1.0
C      1  0.5482320000000  0.4576590000000  0.4714350000000 1.0
C      1  0.4506610000000  0.4554000000000  0.5294980000000 1.0
C      1  0.4538030000000  0.5438070000000  0.4716960000000 1.0
C      1  0.4539340000000  0.4935130000000  0.4664650000000 1.0
C      1  0.4734860000000  0.4598320000000  0.4925040000000 1.0
C      1  0.4931010000000  0.4656310000000  0.4503960000000 1.0
C      1  0.4492900000000  0.5080140000000  0.5343670000000 1.0
C      1  0.5426080000000  0.5055770000000  0.4714410000000 1.0
C      1  0.5479730000000  0.4928870000000  0.5348620000000 1.0
C      1  0.4654950000000  0.5494800000000  0.5072080000000 1.0
C      1  0.5366510000000  0.5483310000000  0.4931230000000 1.0
C      1  0.5362760000000  0.4524320000000  0.5074180000000 1.0
C      1  0.4906970000000  0.5348470000000  0.5499420000000 1.0
C      1  0.5066230000000  0.5331650000000  0.4541660000000 1.0
C      1  0.5079640000000  0.4634260000000  0.5477600000000 1.0
C      1  0.5441380000000  0.4914380000000  0.4717310000000 1.0
C      1  0.5362310000000  0.4530420000000  0.4922200000000 1.0
C      1  0.5095180000000  0.4647240000000  0.4491370000000 1.0
C      1  0.5504010000000  0.5069250000000  0.5375150000000 1.0
C      1  0.4510030000000  0.5076200000000  0.4637150000000 1.0
C      1  0.4489290000000  0.4917240000000  0.5353140000000 1.0
C      1  0.5365110000000  0.5484820000000  0.5070260000000 1.0
C      1  0.4656800000000  0.5492470000000  0.4920330000000 1.0
C      1  0.4736620000000  0.4588300000000  0.5067670000000 1.0
C      1  0.5069030000000  0.5339770000000  0.5500410000000 1.0
C      1  0.4926850000000  0.5362100000000  0.4509730000000 1.0
C      1  0.4940420000000  0.4663220000000  0.5436580000000 1.0
END
