TITL C240-61701 24.235517698753 1000000 -1546.63636545933 0 0 240 (C1) n - 1
REM
REM in /home/chem/mssmkc/work/CARBON/AIRSS/Generating-Clusters/Str-Search/GAP20/LAMMPS-RUNS
REM
REM
REM
REM
REM
REM C240.cell (8d32d117f9d14fa53c9dd7a253b77b9e)
REM
REM
REM
REM
REM
CELL 1.54180  100.00000  100.00000  100.00000   90.00000   90.00000   90.00000
LATT -1
SFAC C  
C      1  0.5576280000000  0.5310450000000  0.4705830000000 1.0
C      1  0.4671050000000  0.4693470000000  0.5532490000000 1.0
C      1  0.5406400000000  0.5154630000000  0.5603010000000 1.0
C      1  0.5226300000000  0.4503360000000  0.4578680000000 1.0
C      1  0.4424860000000  0.4606290000000  0.4863060000000 1.0
C      1  0.5530880000000  0.4562830000000  0.4775270000000 1.0
C      1  0.5562250000000  0.5375540000000  0.5130340000000 1.0
C      1  0.4627280000000  0.5126350000000  0.5571450000000 1.0
C      1  0.5329590000000  0.5542600000000  0.5338320000000 1.0
C      1  0.4333720000000  0.4690510000000  0.5194600000000 1.0
C      1  0.5605490000000  0.5331740000000  0.5318440000000 1.0
C      1  0.4785830000000  0.5645110000000  0.5285520000000 1.0
C      1  0.4680010000000  0.5557140000000  0.5339550000000 1.0
C      1  0.5102530000000  0.5547220000000  0.4622670000000 1.0
C      1  0.4391590000000  0.4645070000000  0.4669810000000 1.0
C      1  0.5312400000000  0.4425670000000  0.5304560000000 1.0
C      1  0.4858550000000  0.4378940000000  0.4580350000000 1.0
C      1  0.4697120000000  0.4690340000000  0.4428090000000 1.0
C      1  0.5635610000000  0.4585080000000  0.5139400000000 1.0
C      1  0.5295150000000  0.5309260000000  0.5565330000000 1.0
C      1  0.4877230000000  0.4438220000000  0.5387920000000 1.0
C      1  0.5309580000000  0.5299350000000  0.4467560000000 1.0
C      1  0.4588190000000  0.4849770000000  0.4399140000000 1.0
C      1  0.5453320000000  0.4753860000000  0.5558450000000 1.0
C      1  0.4454550000000  0.5323820000000  0.4693600000000 1.0
C      1  0.4801480000000  0.5681370000000  0.4678900000000 1.0
C      1  0.4943130000000  0.5072790000000  0.5704300000000 1.0
C      1  0.5207940000000  0.4330350000000  0.5314480000000 1.0
C      1  0.4584780000000  0.4863360000000  0.5610500000000 1.0
C      1  0.4738440000000  0.5503490000000  0.4582000000000 1.0
C      1  0.5585040000000  0.5415690000000  0.4864120000000 1.0
C      1  0.4486200000000  0.5438490000000  0.4775620000000 1.0
C      1  0.4418050000000  0.4589620000000  0.5137000000000 1.0
C      1  0.4299320000000  0.5056360000000  0.5074020000000 1.0
C      1  0.4779820000000  0.4492340000000  0.4558040000000 1.0
C      1  0.5276050000000  0.4493990000000  0.5429680000000 1.0
C      1  0.4641760000000  0.5333570000000  0.4397490000000 1.0
C      1  0.5364730000000  0.4872740000000  0.4412120000000 1.0
C      1  0.4696190000000  0.4790690000000  0.4327680000000 1.0
C      1  0.5078020000000  0.4300420000000  0.4952820000000 1.0
C      1  0.5556260000000  0.4659850000000  0.5312740000000 1.0
C      1  0.5228090000000  0.5639280000000  0.5295120000000 1.0
C      1  0.5633280000000  0.4729670000000  0.4784070000000 1.0
C      1  0.5091510000000  0.5061940000000  0.4301130000000 1.0
C      1  0.4397880000000  0.5325560000000  0.5323350000000 1.0
C      1  0.4720410000000  0.5214550000000  0.4384230000000 1.0
C      1  0.4951500000000  0.5757380000000  0.4907980000000 1.0
C      1  0.5414650000000  0.5147800000000  0.4381090000000 1.0
C      1  0.4406050000000  0.5369030000000  0.5119780000000 1.0
C      1  0.5317820000000  0.4671710000000  0.4397490000000 1.0
C      1  0.4606230000000  0.5133500000000  0.4411580000000 1.0
C      1  0.5302180000000  0.5218820000000  0.4347510000000 1.0
C      1  0.4750920000000  0.4443040000000  0.5455280000000 1.0
C      1  0.5694150000000  0.4912490000000  0.5072990000000 1.0
C      1  0.5225840000000  0.5509630000000  0.5439650000000 1.0
C      1  0.5223180000000  0.5545380000000  0.4544190000000 1.0
C      1  0.4337980000000  0.5307840000000  0.4777640000000 1.0
C      1  0.5180810000000  0.5600300000000  0.4730630000000 1.0
C      1  0.4737750000000  0.5205780000000  0.5618360000000 1.0
C      1  0.4939870000000  0.4290760000000  0.4921060000000 1.0
C      1  0.4569430000000  0.4786670000000  0.5490720000000 1.0
C      1  0.5670090000000  0.4687730000000  0.5222620000000 1.0
C      1  0.5073800000000  0.5050840000000  0.5752070000000 1.0
C      1  0.5076010000000  0.5721030000000  0.5071640000000 1.0
C      1  0.4247290000000  0.4926010000000  0.5052470000000 1.0
C      1  0.4296700000000  0.5093330000000  0.4931200000000 1.0
C      1  0.5749210000000  0.5080820000000  0.4960060000000 1.0
C      1  0.5277020000000  0.4792750000000  0.5634180000000 1.0
C      1  0.5559010000000  0.4666250000000  0.4680110000000 1.0
C      1  0.4534320000000  0.5257440000000  0.4436990000000 1.0
C      1  0.5416320000000  0.4741210000000  0.4465200000000 1.0
C      1  0.5084460000000  0.5776010000000  0.4927000000000 1.0
C      1  0.5428780000000  0.5269210000000  0.5514760000000 1.0
C      1  0.4582120000000  0.5241800000000  0.5498160000000 1.0
C      1  0.4785880000000  0.4365840000000  0.4702970000000 1.0
C      1  0.4377230000000  0.5253480000000  0.5204700000000 1.0
C      1  0.4781760000000  0.5526730000000  0.5440060000000 1.0
C      1  0.4430400000000  0.4696360000000  0.5296230000000 1.0
C      1  0.4679620000000  0.4453310000000  0.4658310000000 1.0
C      1  0.5355060000000  0.4673830000000  0.5613810000000 1.0
C      1  0.5297090000000  0.5214660000000  0.5671000000000 1.0
C      1  0.4934970000000  0.5709440000000  0.5047170000000 1.0
C      1  0.5670370000000  0.5319310000000  0.4813830000000 1.0
C      1  0.4708100000000  0.5576500000000  0.4703910000000 1.0
C      1  0.5152390000000  0.5627500000000  0.5415240000000 1.0
C      1  0.5298010000000  0.5595540000000  0.4648370000000 1.0
C      1  0.4906950000000  0.4929900000000  0.5696980000000 1.0
C      1  0.4927340000000  0.4241250000000  0.5066400000000 1.0
C      1  0.4277100000000  0.4948530000000  0.4914740000000 1.0
C      1  0.4694170000000  0.5317880000000  0.5546300000000 1.0
C      1  0.5210610000000  0.4370020000000  0.4725290000000 1.0
C      1  0.5052150000000  0.4914050000000  0.5716260000000 1.0
C      1  0.5391500000000  0.4879240000000  0.5610580000000 1.0
C      1  0.4688650000000  0.4399400000000  0.5340580000000 1.0
C      1  0.5608780000000  0.5256430000000  0.5195490000000 1.0
C      1  0.4687050000000  0.4781460000000  0.5649390000000 1.0
C      1  0.5061290000000  0.4246060000000  0.5087040000000 1.0
C      1  0.4376900000000  0.4720930000000  0.4792000000000 1.0
C      1  0.5316760000000  0.4449150000000  0.4677510000000 1.0
C      1  0.5245870000000  0.4794950000000  0.4381260000000 1.0
C      1  0.5753840000000  0.5051260000000  0.5092330000000 1.0
C      1  0.5691150000000  0.4948960000000  0.4934360000000 1.0
C      1  0.4498870000000  0.4570590000000  0.5257300000000 1.0
C      1  0.4922850000000  0.4945850000000  0.4240700000000 1.0
C      1  0.5497910000000  0.5432060000000  0.4741040000000 1.0
C      1  0.5598170000000  0.4629470000000  0.4881810000000 1.0
C      1  0.5050060000000  0.4919740000000  0.4294440000000 1.0
C      1  0.5514430000000  0.4566130000000  0.5213760000000 1.0
C      1  0.4812880000000  0.4393890000000  0.5268310000000 1.0
C      1  0.4436220000000  0.4535490000000  0.4738090000000 1.0
C      1  0.4369760000000  0.5416680000000  0.4855210000000 1.0
C      1  0.4947870000000  0.5081600000000  0.4281450000000 1.0
C      1  0.4464570000000  0.5422620000000  0.5243860000000 1.0
C      1  0.5151360000000  0.4415960000000  0.5411310000000 1.0
C      1  0.4867100000000  0.5633280000000  0.5401060000000 1.0
C      1  0.5118190000000  0.4421330000000  0.4627120000000 1.0
C      1  0.4565190000000  0.4729700000000  0.4481770000000 1.0
C      1  0.5431920000000  0.5229400000000  0.4497140000000 1.0
C      1  0.4844060000000  0.5611740000000  0.4569290000000 1.0
C      1  0.5565130000000  0.5446210000000  0.5255250000000 1.0
C      1  0.5347020000000  0.4799130000000  0.4610340000000 1.0
C      1  0.5224200000000  0.4621110000000  0.5363550000000 1.0
C      1  0.5477510000000  0.4810780000000  0.5166910000000 1.0
C      1  0.4911890000000  0.4948160000000  0.4492570000000 1.0
C      1  0.4826810000000  0.4483510000000  0.5156370000000 1.0
C      1  0.5066120000000  0.4494790000000  0.5070940000000 1.0
C      1  0.5169340000000  0.5518220000000  0.4847010000000 1.0
C      1  0.4534560000000  0.4812330000000  0.5108670000000 1.0
C      1  0.5372560000000  0.5387630000000  0.4804470000000 1.0
C      1  0.4607400000000  0.5217940000000  0.5244240000000 1.0
C      1  0.5380590000000  0.4814000000000  0.5410100000000 1.0
C      1  0.4714110000000  0.5501060000000  0.4825300000000 1.0
C      1  0.4604860000000  0.5429060000000  0.4854180000000 1.0
C      1  0.4837210000000  0.5195530000000  0.4462310000000 1.0
C      1  0.4643670000000  0.5168740000000  0.4620500000000 1.0
C      1  0.5391630000000  0.4639770000000  0.4818780000000 1.0
C      1  0.5139650000000  0.4802600000000  0.4480220000000 1.0
C      1  0.5186290000000  0.4625280000000  0.4661740000000 1.0
C      1  0.5165230000000  0.4480710000000  0.4826220000000 1.0
C      1  0.4825780000000  0.5394630000000  0.5358420000000 1.0
C      1  0.5169890000000  0.4801570000000  0.5537780000000 1.0
C      1  0.4792330000000  0.5376530000000  0.4625520000000 1.0
C      1  0.4533730000000  0.5189180000000  0.4853880000000 1.0
C      1  0.5516930000000  0.5050300000000  0.5085280000000 1.0
C      1  0.4623940000000  0.4789530000000  0.4609580000000 1.0
C      1  0.4713360000000  0.5445330000000  0.5243380000000 1.0
C      1  0.4934840000000  0.5441750000000  0.5266560000000 1.0
C      1  0.5276910000000  0.4571160000000  0.4775250000000 1.0
C      1  0.4496330000000  0.5174030000000  0.5156320000000 1.0
C      1  0.5091020000000  0.5067140000000  0.4455990000000 1.0
C      1  0.5172340000000  0.5528980000000  0.5193750000000 1.0
C      1  0.4870820000000  0.5583520000000  0.5059640000000 1.0
C      1  0.4834020000000  0.4478780000000  0.4802850000000 1.0
C      1  0.4706390000000  0.5073630000000  0.5448120000000 1.0
C      1  0.5051370000000  0.4905110000000  0.4449060000000 1.0
C      1  0.4912550000000  0.4916300000000  0.5546190000000 1.0
C      1  0.5157010000000  0.5352780000000  0.4668780000000 1.0
C      1  0.5469340000000  0.5181800000000  0.4870050000000 1.0
C      1  0.5204280000000  0.4749580000000  0.4600780000000 1.0
C      1  0.5465900000000  0.4707960000000  0.4934340000000 1.0
C      1  0.5370130000000  0.5206670000000  0.5386790000000 1.0
C      1  0.5237210000000  0.5403150000000  0.4782850000000 1.0
C      1  0.5495480000000  0.5189520000000  0.4722840000000 1.0
C      1  0.5030810000000  0.5427010000000  0.4656370000000 1.0
C      1  0.4589970000000  0.4858100000000  0.5368610000000 1.0
C      1  0.5202260000000  0.5274000000000  0.4563500000000 1.0
C      1  0.4575680000000  0.5305590000000  0.4932310000000 1.0
C      1  0.5518450000000  0.4823940000000  0.4829140000000 1.0
C      1  0.4859550000000  0.5464480000000  0.4838250000000 1.0
C      1  0.4818070000000  0.4619130000000  0.4630490000000 1.0
C      1  0.4458710000000  0.4838110000000  0.4796770000000 1.0
C      1  0.4766120000000  0.5246170000000  0.4581830000000 1.0
C      1  0.5075110000000  0.4901550000000  0.5562660000000 1.0
C      1  0.5388240000000  0.4948050000000  0.5482130000000 1.0
C      1  0.4942110000000  0.5083460000000  0.5546520000000 1.0
C      1  0.4927620000000  0.5091780000000  0.4437690000000 1.0
C      1  0.4582370000000  0.4775330000000  0.4743740000000 1.0
C      1  0.5283060000000  0.5429250000000  0.5246650000000 1.0
C      1  0.5218340000000  0.5268160000000  0.5441650000000 1.0
C      1  0.4547690000000  0.4620290000000  0.4934640000000 1.0
C      1  0.4453530000000  0.5061470000000  0.5079410000000 1.0
C      1  0.5403000000000  0.5216300000000  0.5249590000000 1.0
C      1  0.5068830000000  0.5440350000000  0.5272450000000 1.0
C      1  0.5440390000000  0.5364940000000  0.5056640000000 1.0
C      1  0.4708460000000  0.4937110000000  0.5410300000000 1.0
C      1  0.4613060000000  0.5055160000000  0.4530540000000 1.0
C      1  0.5313860000000  0.5061260000000  0.4579380000000 1.0
C      1  0.4784580000000  0.4712140000000  0.5445140000000 1.0
C      1  0.5426770000000  0.5152610000000  0.4615980000000 1.0
C      1  0.4434070000000  0.4933570000000  0.4896710000000 1.0
C      1  0.5501330000000  0.5067660000000  0.4940020000000 1.0
C      1  0.5445960000000  0.5325020000000  0.4921210000000 1.0
C      1  0.5557130000000  0.4914370000000  0.5119910000000 1.0
C      1  0.4496060000000  0.4921040000000  0.5040800000000 1.0
C      1  0.4762290000000  0.4599550000000  0.5221150000000 1.0
C      1  0.4553090000000  0.4783360000000  0.5256920000000 1.0
C      1  0.5083840000000  0.5047300000000  0.5506120000000 1.0
C      1  0.4658530000000  0.5194860000000  0.5370880000000 1.0
C      1  0.4626870000000  0.4639380000000  0.5204270000000 1.0
C      1  0.4836010000000  0.4633860000000  0.5342990000000 1.0
C      1  0.4781450000000  0.5277510000000  0.5424010000000 1.0
C      1  0.4534130000000  0.5311540000000  0.5065300000000 1.0
C      1  0.5430130000000  0.4753490000000  0.4718680000000 1.0
C      1  0.4605760000000  0.5363490000000  0.5198820000000 1.0
C      1  0.4829380000000  0.5157580000000  0.5502180000000 1.0
C      1  0.5359780000000  0.5332850000000  0.5175490000000 1.0
C      1  0.4955370000000  0.4555280000000  0.5376390000000 1.0
C      1  0.4542830000000  0.4662600000000  0.5068060000000 1.0
C      1  0.4651130000000  0.4921430000000  0.4528420000000 1.0
C      1  0.5177220000000  0.5384530000000  0.5367490000000 1.0
C      1  0.5277620000000  0.4547670000000  0.5217330000000 1.0
C      1  0.5087640000000  0.4547780000000  0.5333510000000 1.0
C      1  0.5515390000000  0.5147260000000  0.5184160000000 1.0
C      1  0.4630090000000  0.4659490000000  0.4817260000000 1.0
C      1  0.5464950000000  0.4770260000000  0.5306260000000 1.0
C      1  0.5240980000000  0.4750800000000  0.5417070000000 1.0
C      1  0.5430250000000  0.4708660000000  0.5071210000000 1.0
C      1  0.4547890000000  0.5213740000000  0.4709750000000 1.0
C      1  0.5390610000000  0.4585520000000  0.5144540000000 1.0
C      1  0.4772240000000  0.4733600000000  0.4556550000000 1.0
C      1  0.5341090000000  0.5078580000000  0.5471740000000 1.0
C      1  0.5348480000000  0.4934490000000  0.4542880000000 1.0
C      1  0.4879980000000  0.4421120000000  0.4922050000000 1.0
C      1  0.4928470000000  0.4571910000000  0.4722340000000 1.0
C      1  0.5135960000000  0.5591540000000  0.5073720000000 1.0
C      1  0.5130040000000  0.4536650000000  0.5185220000000 1.0
C      1  0.5064470000000  0.4545440000000  0.4713170000000 1.0
C      1  0.5136290000000  0.4431940000000  0.4953270000000 1.0
C      1  0.4714740000000  0.4569970000000  0.4749180000000 1.0
C      1  0.4919730000000  0.4473520000000  0.5055030000000 1.0
C      1  0.4835300000000  0.5534790000000  0.5184950000000 1.0
C      1  0.4904910000000  0.5415370000000  0.4711220000000 1.0
C      1  0.4936220000000  0.5508200000000  0.4947220000000 1.0
C      1  0.4816110000000  0.4854560000000  0.5463460000000 1.0
C      1  0.5189790000000  0.5119260000000  0.5467570000000 1.0
C      1  0.4803950000000  0.4880440000000  0.4533080000000 1.0
C      1  0.4449270000000  0.5091710000000  0.4915440000000 1.0
C      1  0.5563230000000  0.4950020000000  0.4867860000000 1.0
C      1  0.5187880000000  0.5129440000000  0.4541190000000 1.0
C      1  0.5079690000000  0.5529980000000  0.4948870000000 1.0
END
