TITL C240-209245 -0.0212556219589938 1000000 -1708.51415581555 0 0 240 (Ih) n - 1
REM
REM in /home/chem/mssmkc/work/CARBON/AIRSS/Generating-Clusters/Str-Search/GAP20/LAMMPS-RUNS
REM
REM
REM
REM
REM
REM C240.cell (8de69c9181397faddf095354167c9a03)
REM
REM
REM
REM
REM
CELL 1.54180  100.00000  100.00000  100.00000   90.00000   90.00000   90.00000
LATT -1
SFAC C  
C      1  0.5381530000000  0.5072680000000  0.5657800000000 1.0
C      1  0.4927290000000  0.5657790000000  0.5381560000000 1.0
C      1  0.5069050000000  0.5745410000000  0.4847820000000 1.0
C      1  0.4612010000000  0.4451690000000  0.5363840000000 1.0
C      1  0.5152210000000  0.4930940000000  0.4254600000000 1.0
C      1  0.5548270000000  0.5363870000000  0.5388020000000 1.0
C      1  0.4847790000000  0.5069060000000  0.5745400000000 1.0
C      1  0.4930900000000  0.5745400000000  0.4847810000000 1.0
C      1  0.4342190000000  0.5381520000000  0.5072670000000 1.0
C      1  0.5318940000000  0.4494400000000  0.5475610000000 1.0
C      1  0.5381560000000  0.5072700000000  0.4342210000000 1.0
C      1  0.4524390000000  0.4681040000000  0.5505590000000 1.0
C      1  0.5657780000000  0.5381570000000  0.5072700000000 1.0
C      1  0.5745410000000  0.4847830000000  0.4930940000000 1.0
C      1  0.4618440000000  0.4927300000000  0.5657790000000 1.0
C      1  0.4342220000000  0.4618420000000  0.5072660000000 1.0
C      1  0.4254590000000  0.5152170000000  0.4930920000000 1.0
C      1  0.4927300000000  0.5657800000000  0.4618460000000 1.0
C      1  0.4847790000000  0.4930910000000  0.5745400000000 1.0
C      1  0.5072700000000  0.4342200000000  0.5381540000000 1.0
C      1  0.4254590000000  0.5152170000000  0.5069060000000 1.0
C      1  0.5072710000000  0.4342210000000  0.4618440000000 1.0
C      1  0.4930950000000  0.4254590000000  0.5152180000000 1.0
C      1  0.4636120000000  0.5387980000000  0.5548290000000 1.0
C      1  0.4618430000000  0.5072660000000  0.5657790000000 1.0
C      1  0.4524410000000  0.4681050000000  0.4494380000000 1.0
C      1  0.5700490000000  0.4730230000000  0.5141760000000 1.0
C      1  0.5475590000000  0.5318950000000  0.5505620000000 1.0
C      1  0.4930960000000  0.4254600000000  0.4847790000000 1.0
C      1  0.5387980000000  0.5548300000000  0.5363870000000 1.0
C      1  0.4847820000000  0.5069070000000  0.4254600000000 1.0
C      1  0.4451720000000  0.4636120000000  0.5387990000000 1.0
C      1  0.5152180000000  0.4930930000000  0.5745400000000 1.0
C      1  0.4858280000000  0.4299510000000  0.4730200000000 1.0
C      1  0.5388020000000  0.4451720000000  0.5363850000000 1.0
C      1  0.4612020000000  0.4451700000000  0.4636130000000 1.0
C      1  0.4927350000000  0.4342210000000  0.4618440000000 1.0
C      1  0.5069100000000  0.4254600000000  0.5152190000000 1.0
C      1  0.4494410000000  0.4524360000000  0.5318920000000 1.0
C      1  0.4730200000000  0.4858230000000  0.5700480000000 1.0
C      1  0.5381570000000  0.4927340000000  0.4342210000000 1.0
C      1  0.5475610000000  0.4681080000000  0.5505610000000 1.0
C      1  0.4681090000000  0.4494390000000  0.4524380000000 1.0
C      1  0.4299530000000  0.4730180000000  0.4858230000000 1.0
C      1  0.4618460000000  0.5072670000000  0.4342200000000 1.0
C      1  0.4494370000000  0.5475590000000  0.5318930000000 1.0
C      1  0.5269770000000  0.5141750000000  0.5700490000000 1.0
C      1  0.5069040000000  0.5745400000000  0.5152210000000 1.0
C      1  0.5152180000000  0.5069070000000  0.5745410000000 1.0
C      1  0.5072660000000  0.5657800000000  0.4618460000000 1.0
C      1  0.4930900000000  0.5745400000000  0.5152200000000 1.0
C      1  0.5505580000000  0.5475630000000  0.5318950000000 1.0
C      1  0.5388030000000  0.4451730000000  0.4636150000000 1.0
C      1  0.5141730000000  0.5700490000000  0.4730220000000 1.0
C      1  0.4611980000000  0.5548280000000  0.4636150000000 1.0
C      1  0.4611970000000  0.5548270000000  0.5363850000000 1.0
C      1  0.5318920000000  0.5505620000000  0.4524400000000 1.0
C      1  0.5475630000000  0.4681090000000  0.4494400000000 1.0
C      1  0.4494390000000  0.5475600000000  0.4681060000000 1.0
C      1  0.5269780000000  0.4858250000000  0.5700490000000 1.0
C      1  0.5363830000000  0.5388010000000  0.5548300000000 1.0
C      1  0.4681080000000  0.4494380000000  0.5475600000000 1.0
C      1  0.4299520000000  0.4730180000000  0.5141730000000 1.0
C      1  0.4730220000000  0.5141750000000  0.4299510000000 1.0
C      1  0.4858230000000  0.5700480000000  0.4730220000000 1.0
C      1  0.4858270000000  0.4299510000000  0.5269780000000 1.0
C      1  0.5141770000000  0.4299520000000  0.5269780000000 1.0
C      1  0.5505630000000  0.4524410000000  0.4681070000000 1.0
C      1  0.5381540000000  0.4927330000000  0.5657800000000 1.0
C      1  0.5363880000000  0.4612020000000  0.4451710000000 1.0
C      1  0.4636140000000  0.5388000000000  0.4451710000000 1.0
C      1  0.4730190000000  0.5141730000000  0.5700480000000 1.0
C      1  0.4636150000000  0.4611970000000  0.5548280000000 1.0
C      1  0.5363860000000  0.4612000000000  0.5548290000000 1.0
C      1  0.4524390000000  0.5318920000000  0.4494390000000 1.0
C      1  0.5318910000000  0.5505610000000  0.5475620000000 1.0
C      1  0.5387990000000  0.5548310000000  0.4636160000000 1.0
C      1  0.4618470000000  0.4927320000000  0.4342200000000 1.0
C      1  0.5657810000000  0.4618480000000  0.4927330000000 1.0
C      1  0.5072650000000  0.5657790000000  0.5381560000000 1.0
C      1  0.5505590000000  0.5475640000000  0.4681080000000 1.0
C      1  0.5269800000000  0.5141770000000  0.4299520000000 1.0
C      1  0.4681060000000  0.5505600000000  0.4524390000000 1.0
C      1  0.5657780000000  0.5381580000000  0.4927340000000 1.0
C      1  0.5745410000000  0.4847830000000  0.5069080000000 1.0
C      1  0.4342190000000  0.5381530000000  0.4927310000000 1.0
C      1  0.5700470000000  0.5269820000000  0.5141770000000 1.0
C      1  0.5269810000000  0.4858270000000  0.4299520000000 1.0
C      1  0.4858220000000  0.5700480000000  0.5269800000000 1.0
C      1  0.4927340000000  0.4342200000000  0.5381540000000 1.0
C      1  0.5475610000000  0.5318960000000  0.4494410000000 1.0
C      1  0.4299500000000  0.5269760000000  0.5141740000000 1.0
C      1  0.5069100000000  0.4254600000000  0.4847800000000 1.0
C      1  0.5657810000000  0.4618470000000  0.5072690000000 1.0
C      1  0.4681040000000  0.5505580000000  0.5475610000000 1.0
C      1  0.4494420000000  0.4524370000000  0.4681050000000 1.0
C      1  0.4730230000000  0.4858250000000  0.4299510000000 1.0
C      1  0.5318960000000  0.4494420000000  0.4524390000000 1.0
C      1  0.4342220000000  0.4618430000000  0.4927300000000 1.0
C      1  0.5505610000000  0.4524400000000  0.5318940000000 1.0
C      1  0.5141780000000  0.4299520000000  0.4730200000000 1.0
C      1  0.5141720000000  0.5700490000000  0.5269800000000 1.0
C      1  0.4451700000000  0.5363840000000  0.4611990000000 1.0
C      1  0.5700480000000  0.5269820000000  0.4858270000000 1.0
C      1  0.5548300000000  0.4636160000000  0.5388010000000 1.0
C      1  0.4847820000000  0.4930930000000  0.4254590000000 1.0
C      1  0.4299510000000  0.5269770000000  0.4858240000000 1.0
C      1  0.5548280000000  0.5363880000000  0.4612010000000 1.0
C      1  0.4524370000000  0.5318910000000  0.5505600000000 1.0
C      1  0.4451690000000  0.5363830000000  0.5388000000000 1.0
C      1  0.5152210000000  0.5069090000000  0.4254600000000 1.0
C      1  0.5700500000000  0.4730240000000  0.4858260000000 1.0
C      1  0.4451730000000  0.4636130000000  0.4611980000000 1.0
C      1  0.5745400000000  0.5152220000000  0.5069090000000 1.0
C      1  0.4254600000000  0.4847780000000  0.5069050000000 1.0
C      1  0.5745400000000  0.5152220000000  0.4930950000000 1.0
C      1  0.5363850000000  0.5388030000000  0.4451720000000 1.0
C      1  0.4636170000000  0.4611990000000  0.4451700000000 1.0
C      1  0.4254600000000  0.4847780000000  0.4930910000000 1.0
C      1  0.5548310000000  0.4636170000000  0.4612000000000 1.0
C      1  0.5266180000000  0.5685000000000  0.4811190000000 1.0
C      1  0.4315010000000  0.4811150000000  0.5266190000000 1.0
C      1  0.4931200000000  0.5192000000000  0.5730840000000 1.0
C      1  0.5566340000000  0.4500520000000  0.4925820000000 1.0
C      1  0.4269160000000  0.5068760000000  0.4807970000000 1.0
C      1  0.5499520000000  0.4925840000000  0.4433690000000 1.0
C      1  0.5730840000000  0.4931240000000  0.5192030000000 1.0
C      1  0.5068760000000  0.5192010000000  0.5730840000000 1.0
C      1  0.5188800000000  0.5266200000000  0.5685000000000 1.0
C      1  0.4502490000000  0.4457970000000  0.4814500000000 1.0
C      1  0.5266170000000  0.5685000000000  0.5188840000000 1.0
C      1  0.5185450000000  0.5497540000000  0.5542030000000 1.0
C      1  0.4811150000000  0.5266190000000  0.5684990000000 1.0
C      1  0.5191980000000  0.5730850000000  0.5068790000000 1.0
C      1  0.4733830000000  0.4315000000000  0.4811160000000 1.0
C      1  0.5188820000000  0.4733800000000  0.5684990000000 1.0
C      1  0.4808010000000  0.4269150000000  0.5068770000000 1.0
C      1  0.4315020000000  0.4811150000000  0.4733780000000 1.0
C      1  0.5730830000000  0.5068810000000  0.5192030000000 1.0
C      1  0.5684980000000  0.5188850000000  0.5266220000000 1.0
C      1  0.4808020000000  0.4269150000000  0.4931210000000 1.0
C      1  0.5684990000000  0.5188850000000  0.4733810000000 1.0
C      1  0.5068800000000  0.4808000000000  0.4269160000000 1.0
C      1  0.5074200000000  0.4433680000000  0.5499500000000 1.0
C      1  0.4733770000000  0.5684980000000  0.4811180000000 1.0
C      1  0.5185470000000  0.5497550000000  0.4457990000000 1.0
C      1  0.4768670000000  0.4622490000000  0.5616200000000 1.0
C      1  0.4814530000000  0.4502450000000  0.5542010000000 1.0
C      1  0.5068770000000  0.4807980000000  0.5730840000000 1.0
C      1  0.4433670000000  0.5499490000000  0.4925810000000 1.0
C      1  0.5730850000000  0.4931250000000  0.4808000000000 1.0
C      1  0.4500500000000  0.5074180000000  0.4433670000000 1.0
C      1  0.4269150000000  0.5068750000000  0.5192000000000 1.0
C      1  0.4383790000000  0.5231310000000  0.4622500000000 1.0
C      1  0.4433700000000  0.4500470000000  0.4925790000000 1.0
C      1  0.5566330000000  0.4500510000000  0.5074190000000 1.0
C      1  0.4315010000000  0.5188800000000  0.4733790000000 1.0
C      1  0.4931240000000  0.4807990000000  0.4269160000000 1.0
C      1  0.4457990000000  0.5185470000000  0.4502460000000 1.0
C      1  0.4622530000000  0.4383780000000  0.4768650000000 1.0
C      1  0.5266230000000  0.4315020000000  0.5188820000000 1.0
C      1  0.4814490000000  0.5497520000000  0.5542020000000 1.0
C      1  0.5497550000000  0.4458000000000  0.5185480000000 1.0
C      1  0.5231360000000  0.4622520000000  0.4383790000000 1.0
C      1  0.4733770000000  0.5684980000000  0.5188830000000 1.0
C      1  0.4458000000000  0.4814500000000  0.4502450000000 1.0
C      1  0.5377480000000  0.5616220000000  0.4768680000000 1.0
C      1  0.4931230000000  0.5192020000000  0.4269160000000 1.0
C      1  0.4269160000000  0.4931190000000  0.5192000000000 1.0
C      1  0.5685000000000  0.4811210000000  0.4733810000000 1.0
C      1  0.5068790000000  0.5192030000000  0.4269160000000 1.0
C      1  0.5542030000000  0.4814550000000  0.4502470000000 1.0
C      1  0.4433700000000  0.4500470000000  0.5074170000000 1.0
C      1  0.5616220000000  0.4768700000000  0.4622520000000 1.0
C      1  0.5566300000000  0.5499530000000  0.5074210000000 1.0
C      1  0.5566300000000  0.5499530000000  0.4925830000000 1.0
C      1  0.4502440000000  0.5542000000000  0.5185480000000 1.0
C      1  0.4814510000000  0.5497530000000  0.4457990000000 1.0
C      1  0.4457980000000  0.4814490000000  0.5497520000000 1.0
C      1  0.5377520000000  0.4383810000000  0.4768670000000 1.0
C      1  0.4925820000000  0.4433670000000  0.5499500000000 1.0
C      1  0.5497560000000  0.4458000000000  0.4814520000000 1.0
C      1  0.5231330000000  0.4622510000000  0.5616210000000 1.0
C      1  0.4622480000000  0.5616190000000  0.5231330000000 1.0
C      1  0.4383810000000  0.4768650000000  0.4622490000000 1.0
C      1  0.4383780000000  0.5231300000000  0.5377480000000 1.0
C      1  0.5616190000000  0.5231350000000  0.5377510000000 1.0
C      1  0.5542000000000  0.5185500000000  0.5497550000000 1.0
C      1  0.5266230000000  0.4315020000000  0.4811170000000 1.0
C      1  0.4925800000000  0.5566320000000  0.4500500000000 1.0
C      1  0.5074220000000  0.4433690000000  0.4500490000000 1.0
C      1  0.4622490000000  0.5616190000000  0.4768670000000 1.0
C      1  0.5074160000000  0.5566310000000  0.5499520000000 1.0
C      1  0.4925780000000  0.5566310000000  0.5499510000000 1.0
C      1  0.5185510000000  0.4502480000000  0.4457980000000 1.0
C      1  0.4502450000000  0.5542000000000  0.4814520000000 1.0
C      1  0.4433660000000  0.5499480000000  0.5074180000000 1.0
C      1  0.4733820000000  0.4315000000000  0.5188810000000 1.0
C      1  0.4811200000000  0.4733800000000  0.4315000000000 1.0
C      1  0.5684990000000  0.4811200000000  0.5266210000000 1.0
C      1  0.5542010000000  0.4814530000000  0.5497540000000 1.0
C      1  0.5377470000000  0.5616220000000  0.5231350000000 1.0
C      1  0.5497510000000  0.5542030000000  0.5185500000000 1.0
C      1  0.4811180000000  0.5266200000000  0.4315010000000 1.0
C      1  0.5191990000000  0.5730850000000  0.4931230000000 1.0
C      1  0.5188830000000  0.5266220000000  0.4315020000000 1.0
C      1  0.4768640000000  0.5377480000000  0.5616210000000 1.0
C      1  0.5377510000000  0.4383810000000  0.5231330000000 1.0
C      1  0.4383800000000  0.4768640000000  0.5377480000000 1.0
C      1  0.4315000000000  0.5188790000000  0.5266190000000 1.0
C      1  0.4814550000000  0.4502460000000  0.4457970000000 1.0
C      1  0.5231310000000  0.5377500000000  0.5616220000000 1.0
C      1  0.4931210000000  0.4807970000000  0.5730840000000 1.0
C      1  0.4811170000000  0.4733780000000  0.5684980000000 1.0
C      1  0.5497520000000  0.5542040000000  0.4814540000000 1.0
C      1  0.4457970000000  0.5185450000000  0.5497530000000 1.0
C      1  0.4622520000000  0.4383780000000  0.5231320000000 1.0
C      1  0.4502480000000  0.4457960000000  0.5185460000000 1.0
C      1  0.5188850000000  0.4733810000000  0.4315010000000 1.0
C      1  0.5542020000000  0.5185510000000  0.4502480000000 1.0
C      1  0.5616200000000  0.5231360000000  0.4622520000000 1.0
C      1  0.5616210000000  0.4768690000000  0.5377500000000 1.0
C      1  0.4500480000000  0.4925780000000  0.5566310000000 1.0
C      1  0.4768670000000  0.5377490000000  0.4383790000000 1.0
C      1  0.5499520000000  0.5074220000000  0.4433690000000 1.0
C      1  0.5730840000000  0.5068810000000  0.4808000000000 1.0
C      1  0.5231330000000  0.5377510000000  0.4383800000000 1.0
C      1  0.5499500000000  0.4925820000000  0.5566330000000 1.0
C      1  0.5185490000000  0.4502470000000  0.5542010000000 1.0
C      1  0.4500510000000  0.4925800000000  0.4433670000000 1.0
C      1  0.4269170000000  0.4931190000000  0.4807970000000 1.0
C      1  0.4768690000000  0.4622500000000  0.4383780000000 1.0
C      1  0.4500480000000  0.5074160000000  0.5566310000000 1.0
C      1  0.5192040000000  0.4269170000000  0.4931210000000 1.0
C      1  0.4807960000000  0.5730830000000  0.4931220000000 1.0
C      1  0.5192040000000  0.4269170000000  0.5068780000000 1.0
C      1  0.4925840000000  0.4433690000000  0.4500480000000 1.0
C      1  0.5074180000000  0.5566330000000  0.4500500000000 1.0
C      1  0.4807960000000  0.5730830000000  0.5068790000000 1.0
C      1  0.5499490000000  0.5074200000000  0.5566330000000 1.0
END
