TITL C-102689-8077-47 -299.271471548856 1000000 -1677.86939589867 0 0 240 (Th) n - 1
REM
REM in /home/chem/mssmkc/work/GAP20/Larger-Clusters/Only-C240-new-series
REM
REM
REM
REM
REM
REM ./C.cell (0485df7495ed2a90f93db84a705cd676)
REM
REM compiler GCC version 8.3.0
REM options -cpp -mtune=generic -march=x86-64 -g -O0
REM seed 422480725 2051033435 1462677976 23645597 -1843272259 -1256700906 -833654693 1098130995 1730252262 1052500882 406730775 -274962635 1066291396 -1376775129 -1501189556 1085386115 -1772826303 1131122343 1676481679 2104317652 278356265 742689070 281201816 1917675912 1562532956 -1848970504 1320727098 259517680 -21534015 1577094008 1438069848 -1822678020 436102431
REM
CELL 1.54180  100.00000  100.00000  100.00000   90.00000   90.00000   90.00000
LATT -1
SFAC C  
C      1  0.5078820000000  0.4437570000000  0.4454530000000 1.0
C      1  0.4437580000000  0.4454520000000  0.5078860000000 1.0
C      1  0.4454500000000  0.5078820000000  0.4437590000000 1.0
C      1  0.5078850000000  0.5562420000000  0.5545480000000 1.0
C      1  0.4921110000000  0.4437670000000  0.5545570000000 1.0
C      1  0.4921230000000  0.5562340000000  0.4454430000000 1.0
C      1  0.4437660000000  0.5545560000000  0.4921100000000 1.0
C      1  0.5562340000000  0.4454430000000  0.4921230000000 1.0
C      1  0.5562410000000  0.5545490000000  0.5078810000000 1.0
C      1  0.4454450000000  0.4921250000000  0.5562360000000 1.0
C      1  0.5545510000000  0.5078840000000  0.5562390000000 1.0
C      1  0.5545540000000  0.4921080000000  0.4437650000000 1.0
C      1  0.4921150000000  0.4437580000000  0.4454520000000 1.0
C      1  0.5562340000000  0.4454440000000  0.5078900000000 1.0
C      1  0.5545550000000  0.5078750000000  0.4437640000000 1.0
C      1  0.4921180000000  0.5562430000000  0.5545470000000 1.0
C      1  0.5078770000000  0.4437660000000  0.5545570000000 1.0
C      1  0.5078890000000  0.5562330000000  0.4454430000000 1.0
C      1  0.5562420000000  0.5545480000000  0.4921140000000 1.0
C      1  0.4437590000000  0.4454510000000  0.4921190000000 1.0
C      1  0.4437660000000  0.5545570000000  0.5078760000000 1.0
C      1  0.5545500000000  0.4921180000000  0.5562410000000 1.0
C      1  0.4454460000000  0.5078920000000  0.5562350000000 1.0
C      1  0.4454490000000  0.4921160000000  0.4437610000000 1.0
C      1  0.5306070000000  0.5184410000000  0.5379650000000 1.0
C      1  0.5184410000000  0.5379660000000  0.5306050000000 1.0
C      1  0.5379660000000  0.5306070000000  0.5184390000000 1.0
C      1  0.5306080000000  0.4815550000000  0.4620380000000 1.0
C      1  0.4693950000000  0.5184390000000  0.4620320000000 1.0
C      1  0.4693900000000  0.4815650000000  0.5379650000000 1.0
C      1  0.5184380000000  0.4620310000000  0.4693960000000 1.0
C      1  0.4815640000000  0.5379640000000  0.4693880000000 1.0
C      1  0.4815560000000  0.4620390000000  0.5306100000000 1.0
C      1  0.5379640000000  0.4693880000000  0.4815640000000 1.0
C      1  0.4620380000000  0.5306090000000  0.4815560000000 1.0
C      1  0.4620320000000  0.4693960000000  0.5184410000000 1.0
C      1  0.4693920000000  0.5184450000000  0.5379620000000 1.0
C      1  0.4815610000000  0.5379690000000  0.5306040000000 1.0
C      1  0.4620360000000  0.5306120000000  0.5184360000000 1.0
C      1  0.4693930000000  0.4815590000000  0.4620350000000 1.0
C      1  0.5306110000000  0.5184350000000  0.4620350000000 1.0
C      1  0.5306050000000  0.4815610000000  0.5379680000000 1.0
C      1  0.4815590000000  0.4620340000000  0.4693950000000 1.0
C      1  0.5184440000000  0.5379610000000  0.4693900000000 1.0
C      1  0.5184360000000  0.4620360000000  0.5306120000000 1.0
C      1  0.4620340000000  0.4693930000000  0.4815610000000 1.0
C      1  0.5379680000000  0.5306040000000  0.4815590000000 1.0
C      1  0.5379620000000  0.4693910000000  0.5184440000000 1.0
C      1  0.5534090000000  0.5136090000000  0.5295250000000 1.0
C      1  0.5136100000000  0.5295270000000  0.5534070000000 1.0
C      1  0.5295270000000  0.5534080000000  0.5136070000000 1.0
C      1  0.5534090000000  0.4863840000000  0.4704800000000 1.0
C      1  0.4465930000000  0.5136120000000  0.4704730000000 1.0
C      1  0.4465890000000  0.4863960000000  0.5295230000000 1.0
C      1  0.5136110000000  0.4704710000000  0.4465940000000 1.0
C      1  0.4863940000000  0.5295200000000  0.4465880000000 1.0
C      1  0.4863850000000  0.4704820000000  0.5534110000000 1.0
C      1  0.5295210000000  0.4465880000000  0.4863950000000 1.0
C      1  0.4704800000000  0.5534100000000  0.4863840000000 1.0
C      1  0.4704720000000  0.4465940000000  0.5136140000000 1.0
C      1  0.4465910000000  0.5136160000000  0.5295200000000 1.0
C      1  0.4863890000000  0.5295290000000  0.5534060000000 1.0
C      1  0.4704790000000  0.5534120000000  0.5136050000000 1.0
C      1  0.4465920000000  0.4863910000000  0.4704750000000 1.0
C      1  0.5534110000000  0.5136040000000  0.4704770000000 1.0
C      1  0.5534070000000  0.4863890000000  0.5295270000000 1.0
C      1  0.4863900000000  0.4704730000000  0.4465930000000 1.0
C      1  0.5136150000000  0.5295180000000  0.4465890000000 1.0
C      1  0.5136060000000  0.4704800000000  0.5534120000000 1.0
C      1  0.4704730000000  0.4465920000000  0.4863930000000 1.0
C      1  0.5295280000000  0.5534060000000  0.4863860000000 1.0
C      1  0.5295200000000  0.4465900000000  0.5136160000000 1.0
C      1  0.4359900000000  0.4840250000000  0.4927290000000 1.0
C      1  0.4840230000000  0.4927260000000  0.4359910000000 1.0
C      1  0.4927260000000  0.4359900000000  0.4840260000000 1.0
C      1  0.4359910000000  0.5159840000000  0.5072660000000 1.0
C      1  0.5640080000000  0.4840170000000  0.5072740000000 1.0
C      1  0.5640110000000  0.5159740000000  0.4927310000000 1.0
C      1  0.4840190000000  0.5072760000000  0.5640080000000 1.0
C      1  0.5159760000000  0.4927340000000  0.5640110000000 1.0
C      1  0.5159820000000  0.5072630000000  0.4359910000000 1.0
C      1  0.4927340000000  0.5640110000000  0.5159730000000 1.0
C      1  0.5072650000000  0.4359910000000  0.5159850000000 1.0
C      1  0.5072750000000  0.5640080000000  0.4840160000000 1.0
C      1  0.5640080000000  0.4840160000000  0.4927340000000 1.0
C      1  0.5159810000000  0.4927240000000  0.4359920000000 1.0
C      1  0.5072660000000  0.4359890000000  0.4840270000000 1.0
C      1  0.5640100000000  0.5159750000000  0.5072710000000 1.0
C      1  0.4359890000000  0.4840260000000  0.5072680000000 1.0
C      1  0.4359920000000  0.5159830000000  0.4927260000000 1.0
C      1  0.5159770000000  0.5072740000000  0.5640090000000 1.0
C      1  0.4840180000000  0.4927360000000  0.5640090000000 1.0
C      1  0.4840240000000  0.5072660000000  0.4359890000000 1.0
C      1  0.5072730000000  0.5640100000000  0.5159740000000 1.0
C      1  0.4927250000000  0.4359930000000  0.5159840000000 1.0
C      1  0.4927350000000  0.5640090000000  0.4840150000000 1.0
C      1  0.4917260000000  0.4396890000000  0.4698890000000 1.0
C      1  0.4396900000000  0.4698880000000  0.4917280000000 1.0
C      1  0.4698870000000  0.4917250000000  0.4396910000000 1.0
C      1  0.4917310000000  0.5603120000000  0.5301100000000 1.0
C      1  0.5082660000000  0.4396930000000  0.5301210000000 1.0
C      1  0.5082770000000  0.5603060000000  0.4698800000000 1.0
C      1  0.4396930000000  0.5301200000000  0.5082670000000 1.0
C      1  0.5603060000000  0.4698810000000  0.5082770000000 1.0
C      1  0.5603110000000  0.5301110000000  0.4917280000000 1.0
C      1  0.4698830000000  0.5082790000000  0.5603070000000 1.0
C      1  0.5301120000000  0.4917310000000  0.5603110000000 1.0
C      1  0.5301180000000  0.5082650000000  0.4396920000000 1.0
C      1  0.5082690000000  0.4396880000000  0.4698900000000 1.0
C      1  0.5603070000000  0.4698800000000  0.4917330000000 1.0
C      1  0.5301170000000  0.4917210000000  0.4396930000000 1.0
C      1  0.5082740000000  0.5603110000000  0.5301110000000 1.0
C      1  0.4917230000000  0.4396940000000  0.5301200000000 1.0
C      1  0.4917340000000  0.5603070000000  0.4698790000000 1.0
C      1  0.5603100000000  0.5301120000000  0.5082720000000 1.0
C      1  0.4396890000000  0.4698900000000  0.5082720000000 1.0
C      1  0.4396940000000  0.5301190000000  0.4917230000000 1.0
C      1  0.5301130000000  0.5082750000000  0.5603090000000 1.0
C      1  0.4698820000000  0.4917350000000  0.5603080000000 1.0
C      1  0.4698880000000  0.5082690000000  0.4396890000000 1.0
C      1  0.4563280000000  0.5076710000000  0.5659050000000 1.0
C      1  0.5076680000000  0.5659040000000  0.4563250000000 1.0
C      1  0.5659050000000  0.4563270000000  0.5076680000000 1.0
C      1  0.4563330000000  0.4923350000000  0.4340910000000 1.0
C      1  0.5436730000000  0.5076540000000  0.4340930000000 1.0
C      1  0.5436660000000  0.4923400000000  0.5659100000000 1.0
C      1  0.5076560000000  0.4340950000000  0.5436750000000 1.0
C      1  0.4923400000000  0.5659120000000  0.5436640000000 1.0
C      1  0.4923350000000  0.4340890000000  0.4563360000000 1.0
C      1  0.5659110000000  0.5436640000000  0.4923370000000 1.0
C      1  0.4340900000000  0.4563340000000  0.4923390000000 1.0
C      1  0.4340950000000  0.5436740000000  0.5076560000000 1.0
C      1  0.5436670000000  0.5076650000000  0.5659090000000 1.0
C      1  0.4923440000000  0.5659050000000  0.4563250000000 1.0
C      1  0.4340890000000  0.4563360000000  0.5076630000000 1.0
C      1  0.5436720000000  0.4923290000000  0.4340950000000 1.0
C      1  0.4563340000000  0.5076600000000  0.4340900000000 1.0
C      1  0.4563270000000  0.4923460000000  0.5659070000000 1.0
C      1  0.4923320000000  0.4340960000000  0.5436750000000 1.0
C      1  0.5076650000000  0.5659110000000  0.5436640000000 1.0
C      1  0.5076600000000  0.4340880000000  0.4563360000000 1.0
C      1  0.4340950000000  0.5436730000000  0.4923310000000 1.0
C      1  0.5659050000000  0.4563260000000  0.4923440000000 1.0
C      1  0.5659100000000  0.5436660000000  0.5076610000000 1.0
C      1  0.4714640000000  0.5410700000000  0.5211660000000 1.0
C      1  0.5410690000000  0.5211650000000  0.4714620000000 1.0
C      1  0.5211670000000  0.4714640000000  0.5410700000000 1.0
C      1  0.4714600000000  0.4589340000000  0.4788320000000 1.0
C      1  0.5285420000000  0.5410630000000  0.4788270000000 1.0
C      1  0.5285350000000  0.4589330000000  0.5211750000000 1.0
C      1  0.5410640000000  0.4788290000000  0.5285420000000 1.0
C      1  0.4589340000000  0.5211760000000  0.5285350000000 1.0
C      1  0.4589330000000  0.4788300000000  0.4714620000000 1.0
C      1  0.5211740000000  0.5285330000000  0.4589320000000 1.0
C      1  0.4788290000000  0.4714600000000  0.4589350000000 1.0
C      1  0.4788300000000  0.5285430000000  0.5410630000000 1.0
C      1  0.5285400000000  0.5410660000000  0.5211680000000 1.0
C      1  0.4589360000000  0.5211710000000  0.4714580000000 1.0
C      1  0.4788260000000  0.4714670000000  0.5410680000000 1.0
C      1  0.5285360000000  0.4589300000000  0.4788340000000 1.0
C      1  0.4714650000000  0.5410670000000  0.4788250000000 1.0
C      1  0.4714580000000  0.4589370000000  0.5211730000000 1.0
C      1  0.4589310000000  0.4788350000000  0.5285380000000 1.0
C      1  0.5410670000000  0.5211700000000  0.5285380000000 1.0
C      1  0.5410660000000  0.4788240000000  0.4714650000000 1.0
C      1  0.4788330000000  0.5285360000000  0.4589300000000 1.0
C      1  0.5211700000000  0.4714570000000  0.4589370000000 1.0
C      1  0.5211710000000  0.5285400000000  0.5410650000000 1.0
C      1  0.5562680000000  0.4927530000000  0.4579530000000 1.0
C      1  0.4927560000000  0.4579550000000  0.5562700000000 1.0
C      1  0.4579540000000  0.5562690000000  0.4927540000000 1.0
C      1  0.5562660000000  0.5072390000000  0.5420520000000 1.0
C      1  0.4437310000000  0.4927680000000  0.5420480000000 1.0
C      1  0.4437350000000  0.5072400000000  0.4579470000000 1.0
C      1  0.4927660000000  0.5420460000000  0.4437290000000 1.0
C      1  0.5072390000000  0.4579450000000  0.4437370000000 1.0
C      1  0.5072400000000  0.5420540000000  0.5562640000000 1.0
C      1  0.4579460000000  0.4437360000000  0.5072420000000 1.0
C      1  0.5420540000000  0.5562650000000  0.5072360000000 1.0
C      1  0.5420470000000  0.4437290000000  0.4927670000000 1.0
C      1  0.4437340000000  0.4927610000000  0.4579480000000 1.0
C      1  0.5072340000000  0.4579540000000  0.5562710000000 1.0
C      1  0.5420540000000  0.5562640000000  0.4927580000000 1.0
C      1  0.4437320000000  0.5072460000000  0.5420470000000 1.0
C      1  0.5562650000000  0.4927610000000  0.5420530000000 1.0
C      1  0.5562690000000  0.5072320000000  0.4579520000000 1.0
C      1  0.5072440000000  0.5420450000000  0.4437300000000 1.0
C      1  0.4927600000000  0.4579460000000  0.4437360000000 1.0
C      1  0.4927610000000  0.5420550000000  0.5562630000000 1.0
C      1  0.5420460000000  0.4437310000000  0.5072460000000 1.0
C      1  0.4579530000000  0.5562710000000  0.5072330000000 1.0
C      1  0.4579460000000  0.4437350000000  0.4927640000000 1.0
C      1  0.4707080000000  0.5069820000000  0.4544060000000 1.0
C      1  0.5069820000000  0.4544050000000  0.4707100000000 1.0
C      1  0.4544050000000  0.4707100000000  0.5069840000000 1.0
C      1  0.4707040000000  0.4930220000000  0.5455920000000 1.0
C      1  0.5292930000000  0.5069860000000  0.5455930000000 1.0
C      1  0.5292950000000  0.4930100000000  0.4544090000000 1.0
C      1  0.5069860000000  0.5455940000000  0.5292910000000 1.0
C      1  0.4930120000000  0.4544100000000  0.5292980000000 1.0
C      1  0.4930210000000  0.5455910000000  0.4707020000000 1.0
C      1  0.4544100000000  0.5292970000000  0.4930120000000 1.0
C      1  0.5455910000000  0.4707020000000  0.4930210000000 1.0
C      1  0.5455940000000  0.5292920000000  0.5069830000000 1.0
C      1  0.5292960000000  0.5069780000000  0.4544080000000 1.0
C      1  0.4930140000000  0.4544050000000  0.4707090000000 1.0
C      1  0.5455900000000  0.4707030000000  0.5069880000000 1.0
C      1  0.5292920000000  0.4930180000000  0.5455940000000 1.0
C      1  0.4707050000000  0.5069890000000  0.5455910000000 1.0
C      1  0.4707070000000  0.4930140000000  0.4544070000000 1.0
C      1  0.4930180000000  0.5455950000000  0.5292900000000 1.0
C      1  0.5069800000000  0.4544090000000  0.5292980000000 1.0
C      1  0.5069880000000  0.5455900000000  0.4707020000000 1.0
C      1  0.5455950000000  0.5292900000000  0.4930160000000 1.0
C      1  0.4544060000000  0.4707080000000  0.4930170000000 1.0
C      1  0.4544090000000  0.5292980000000  0.5069790000000 1.0
C      1  0.4821900000000  0.5603780000000  0.4927350000000 1.0
C      1  0.5603780000000  0.4927350000000  0.4821890000000 1.0
C      1  0.4927370000000  0.4821910000000  0.5603790000000 1.0
C      1  0.4821810000000  0.4396240000000  0.5072630000000 1.0
C      1  0.5178180000000  0.5603770000000  0.5072550000000 1.0
C      1  0.5178100000000  0.4396210000000  0.4927470000000 1.0
C      1  0.5603770000000  0.5072570000000  0.5178160000000 1.0
C      1  0.4396210000000  0.4927460000000  0.5178120000000 1.0
C      1  0.4396240000000  0.5072620000000  0.4821830000000 1.0
C      1  0.4927450000000  0.5178100000000  0.4396210000000 1.0
C      1  0.5072610000000  0.4821800000000  0.4396240000000 1.0
C      1  0.5072580000000  0.5178190000000  0.5603760000000 1.0
C      1  0.5178190000000  0.5603760000000  0.4927370000000 1.0
C      1  0.4396230000000  0.4927430000000  0.4821840000000 1.0
C      1  0.5072560000000  0.4821900000000  0.5603790000000 1.0
C      1  0.5178100000000  0.4396220000000  0.5072650000000 1.0
C      1  0.4821890000000  0.5603790000000  0.5072530000000 1.0
C      1  0.4821820000000  0.4396230000000  0.4927450000000 1.0
C      1  0.4396220000000  0.5072650000000  0.5178110000000 1.0
C      1  0.5603760000000  0.4927380000000  0.5178170000000 1.0
C      1  0.5603790000000  0.5072540000000  0.4821880000000 1.0
C      1  0.5072630000000  0.5178090000000  0.4396210000000 1.0
C      1  0.4927420000000  0.4821810000000  0.4396240000000 1.0
C      1  0.4927390000000  0.5178200000000  0.5603760000000 1.0
END
