TITL C240-530043 1.40748614602618 1000000 -1687.444597207 0 0 240 (C1) n - 1
REM
REM in /home/chem/mssmkc/work/CARBON/AIRSS/Generating-Clusters/Str-Search/GAP20/LAMMPS-RUNS
REM
REM
REM
REM
REM
REM C240.cell (699beb6e8c65cc00a8ef31e605d89682)
REM
REM
REM
REM
REM
CELL 1.54180  100.00000  100.00000  100.00000   90.00000   90.00000   90.00000
LATT -1
SFAC C  
C      1  0.5419670000000  0.4417710000000  0.4649560000000 1.0
C      1  0.5549300000000  0.4771250000000  0.5346530000000 1.0
C      1  0.5706790000000  0.4800600000000  0.4778650000000 1.0
C      1  0.4567920000000  0.5053380000000  0.4356200000000 1.0
C      1  0.5188680000000  0.4267170000000  0.5242510000000 1.0
C      1  0.4936160000000  0.4374400000000  0.5394540000000 1.0
C      1  0.4833760000000  0.5692920000000  0.4732170000000 1.0
C      1  0.4320470000000  0.4792500000000  0.4813730000000 1.0
C      1  0.5351210000000  0.5354180000000  0.4465670000000 1.0
C      1  0.4811830000000  0.5486380000000  0.5523240000000 1.0
C      1  0.5344840000000  0.4442850000000  0.5270050000000 1.0
C      1  0.4479060000000  0.5179970000000  0.4534750000000 1.0
C      1  0.4654960000000  0.5367880000000  0.4448340000000 1.0
C      1  0.4773280000000  0.4773750000000  0.4298260000000 1.0
C      1  0.4643960000000  0.5558160000000  0.4723320000000 1.0
C      1  0.5362630000000  0.4596460000000  0.4392620000000 1.0
C      1  0.5233870000000  0.5210610000000  0.4322220000000 1.0
C      1  0.5625780000000  0.4733930000000  0.4570850000000 1.0
C      1  0.4856940000000  0.4340130000000  0.4730880000000 1.0
C      1  0.4399370000000  0.5341550000000  0.5448140000000 1.0
C      1  0.5178250000000  0.5224890000000  0.5710750000000 1.0
C      1  0.4422230000000  0.5227060000000  0.4656890000000 1.0
C      1  0.4335700000000  0.5195550000000  0.5269870000000 1.0
C      1  0.5659860000000  0.5426170000000  0.4940070000000 1.0
C      1  0.4638880000000  0.4423030000000  0.4711780000000 1.0
C      1  0.4508710000000  0.5311770000000  0.5532490000000 1.0
C      1  0.5121040000000  0.5710170000000  0.5073870000000 1.0
C      1  0.5560980000000  0.4769850000000  0.4452290000000 1.0
C      1  0.4296760000000  0.5239080000000  0.4856470000000 1.0
C      1  0.5457280000000  0.4919490000000  0.4305290000000 1.0
C      1  0.4767150000000  0.5635140000000  0.5184650000000 1.0
C      1  0.5075710000000  0.5659160000000  0.5397530000000 1.0
C      1  0.5230660000000  0.4391540000000  0.4790220000000 1.0
C      1  0.4844770000000  0.4884370000000  0.5811410000000 1.0
C      1  0.5446160000000  0.5056090000000  0.4334270000000 1.0
C      1  0.4539970000000  0.5094480000000  0.5613980000000 1.0
C      1  0.5589220000000  0.5225020000000  0.4646210000000 1.0
C      1  0.5714350000000  0.5184600000000  0.5240040000000 1.0
C      1  0.5525270000000  0.4508570000000  0.4676540000000 1.0
C      1  0.5781660000000  0.4852570000000  0.5106220000000 1.0
C      1  0.5376120000000  0.5537770000000  0.5261900000000 1.0
C      1  0.5534240000000  0.5174510000000  0.4523350000000 1.0
C      1  0.5296150000000  0.5459320000000  0.4536040000000 1.0
C      1  0.4863160000000  0.5770810000000  0.4845240000000 1.0
C      1  0.4614270000000  0.4464270000000  0.5329780000000 1.0
C      1  0.5465760000000  0.5467550000000  0.4811260000000 1.0
C      1  0.4292380000000  0.5076940000000  0.5202910000000 1.0
C      1  0.5703550000000  0.4752880000000  0.5165970000000 1.0
C      1  0.5154540000000  0.5684750000000  0.4747700000000 1.0
C      1  0.4428340000000  0.4720450000000  0.4618000000000 1.0
C      1  0.4264300000000  0.4736040000000  0.5198320000000 1.0
C      1  0.4542080000000  0.5470710000000  0.4766040000000 1.0
C      1  0.5390720000000  0.5076970000000  0.5662340000000 1.0
C      1  0.5070250000000  0.5151170000000  0.5762510000000 1.0
C      1  0.4538530000000  0.4953350000000  0.5607680000000 1.0
C      1  0.4558670000000  0.4916800000000  0.4333760000000 1.0
C      1  0.4709750000000  0.4493990000000  0.4467830000000 1.0
C      1  0.5470660000000  0.5225920000000  0.5499070000000 1.0
C      1  0.5487660000000  0.5461490000000  0.5224570000000 1.0
C      1  0.4235420000000  0.4856010000000  0.5134470000000 1.0
C      1  0.4430090000000  0.5422940000000  0.4964920000000 1.0
C      1  0.5224270000000  0.5501190000000  0.5489960000000 1.0
C      1  0.4835240000000  0.5687270000000  0.5068520000000 1.0
C      1  0.5786520000000  0.5138390000000  0.4905820000000 1.0
C      1  0.4846890000000  0.5130880000000  0.5830140000000 1.0
C      1  0.4887960000000  0.4854310000000  0.4278150000000 1.0
C      1  0.5123410000000  0.4856150000000  0.4279380000000 1.0
C      1  0.4481050000000  0.4495460000000  0.5304540000000 1.0
C      1  0.5349260000000  0.5545520000000  0.4774490000000 1.0
C      1  0.4396440000000  0.4538330000000  0.5088070000000 1.0
C      1  0.5657870000000  0.5393980000000  0.5077990000000 1.0
C      1  0.5765170000000  0.5076200000000  0.5168770000000 1.0
C      1  0.5576640000000  0.4582970000000  0.4894910000000 1.0
C      1  0.4405190000000  0.4556750000000  0.4947710000000 1.0
C      1  0.4498360000000  0.4762840000000  0.5481990000000 1.0
C      1  0.4806730000000  0.4548210000000  0.5495170000000 1.0
C      1  0.5394590000000  0.4937900000000  0.5649250000000 1.0
C      1  0.4612440000000  0.5546170000000  0.5342320000000 1.0
C      1  0.4755770000000  0.4661280000000  0.5569040000000 1.0
C      1  0.4403220000000  0.4720570000000  0.5386780000000 1.0
C      1  0.4477300000000  0.5518740000000  0.5311880000000 1.0
C      1  0.4260850000000  0.5134350000000  0.4940320000000 1.0
C      1  0.5302650000000  0.4480860000000  0.4448370000000 1.0
C      1  0.4765340000000  0.5381330000000  0.5610830000000 1.0
C      1  0.4741000000000  0.4834410000000  0.5729920000000 1.0
C      1  0.5259840000000  0.5392100000000  0.5570430000000 1.0
C      1  0.5101420000000  0.4277580000000  0.5133130000000 1.0
C      1  0.4273930000000  0.4907690000000  0.4882110000000 1.0
C      1  0.4887540000000  0.5136860000000  0.4279170000000 1.0
C      1  0.5557580000000  0.5261800000000  0.5393850000000 1.0
C      1  0.5473930000000  0.4814570000000  0.5461660000000 1.0
C      1  0.4835560000000  0.4313170000000  0.5067530000000 1.0
C      1  0.5752800000000  0.5243430000000  0.4816140000000 1.0
C      1  0.4650920000000  0.4593090000000  0.4389740000000 1.0
C      1  0.5217240000000  0.4514750000000  0.5481220000000 1.0
C      1  0.5430780000000  0.4542880000000  0.5224580000000 1.0
C      1  0.5754510000000  0.4911220000000  0.4852850000000 1.0
C      1  0.4706160000000  0.5489860000000  0.4490050000000 1.0
C      1  0.5255500000000  0.4641360000000  0.5526290000000 1.0
C      1  0.4523720000000  0.4493140000000  0.4756040000000 1.0
C      1  0.5069240000000  0.4871710000000  0.5738060000000 1.0
C      1  0.5120420000000  0.5138210000000  0.4277520000000 1.0
C      1  0.5083580000000  0.4472520000000  0.4534720000000 1.0
C      1  0.5168710000000  0.4348580000000  0.4913390000000 1.0
C      1  0.4938230000000  0.5635330000000  0.5389140000000 1.0
C      1  0.4762240000000  0.4354060000000  0.5183650000000 1.0
C      1  0.4921140000000  0.4309810000000  0.4848740000000 1.0
C      1  0.4941590000000  0.4469770000000  0.4519290000000 1.0
C      1  0.4476900000000  0.4762430000000  0.4491360000000 1.0
C      1  0.5065080000000  0.4338470000000  0.5437200000000 1.0
C      1  0.5204690000000  0.5670800000000  0.5178100000000 1.0
C      1  0.5101670000000  0.5770100000000  0.4847690000000 1.0
C      1  0.5075580000000  0.5542120000000  0.4526000000000 1.0
C      1  0.4745000000000  0.5190520000000  0.5752550000000 1.0
C      1  0.5175140000000  0.4802050000000  0.5674900000000 1.0
C      1  0.4774950000000  0.5210390000000  0.4324500000000 1.0
C      1  0.4420460000000  0.5419000000000  0.5105270000000 1.0
C      1  0.5558430000000  0.4581450000000  0.5035000000000 1.0
C      1  0.5238700000000  0.4776490000000  0.4301830000000 1.0
C      1  0.4933910000000  0.5550450000000  0.4514380000000 1.0
C      1  0.5006360000000  0.4778930000000  0.4289870000000 1.0
C      1  0.4476830000000  0.5047210000000  0.4474440000000 1.0
C      1  0.5154150000000  0.5352840000000  0.5657550000000 1.0
C      1  0.5147290000000  0.4685490000000  0.5605080000000 1.0
C      1  0.4944340000000  0.5539510000000  0.5503510000000 1.0
C      1  0.5483510000000  0.4943440000000  0.5530530000000 1.0
C      1  0.4727690000000  0.4358140000000  0.4804360000000 1.0
C      1  0.5166090000000  0.5449640000000  0.4463040000000 1.0
C      1  0.5661610000000  0.4838700000000  0.5278840000000 1.0
C      1  0.5222840000000  0.5336470000000  0.4390000000000 1.0
C      1  0.4722340000000  0.5632390000000  0.4814740000000 1.0
C      1  0.4941430000000  0.4801360000000  0.5740070000000 1.0
C      1  0.5744250000000  0.5042960000000  0.4800790000000 1.0
C      1  0.5450320000000  0.4513870000000  0.5088280000000 1.0
C      1  0.4944450000000  0.5222510000000  0.5772740000000 1.0
C      1  0.4287810000000  0.5039370000000  0.4827330000000 1.0
C      1  0.4503970000000  0.5520680000000  0.5168820000000 1.0
C      1  0.4843150000000  0.5463070000000  0.4440030000000 1.0
C      1  0.4458970000000  0.4895040000000  0.5509410000000 1.0
C      1  0.5545340000000  0.5047840000000  0.4446330000000 1.0
C      1  0.5291120000000  0.4349060000000  0.5171450000000 1.0
C      1  0.4353060000000  0.4822400000000  0.4679890000000 1.0
C      1  0.4320600000000  0.4813210000000  0.5314300000000 1.0
C      1  0.5373760000000  0.4417930000000  0.4787920000000 1.0
C      1  0.4831170000000  0.4735210000000  0.5667390000000 1.0
C      1  0.4837600000000  0.5296320000000  0.5703150000000 1.0
C      1  0.5327250000000  0.5609280000000  0.5150390000000 1.0
C      1  0.5167850000000  0.4533950000000  0.4433490000000 1.0
C      1  0.5481690000000  0.5089580000000  0.5546230000000 1.0
C      1  0.4471070000000  0.4901820000000  0.4453710000000 1.0
C      1  0.4938970000000  0.4493350000000  0.5489700000000 1.0
C      1  0.5003500000000  0.5216670000000  0.4274650000000 1.0
C      1  0.5745570000000  0.4942960000000  0.5217690000000 1.0
C      1  0.4773560000000  0.5695410000000  0.4934740000000 1.0
C      1  0.5226540000000  0.4646500000000  0.4359280000000 1.0
C      1  0.4333930000000  0.5150840000000  0.4743610000000 1.0
C      1  0.5493390000000  0.4495900000000  0.4819450000000 1.0
C      1  0.4286650000000  0.4938190000000  0.5248740000000 1.0
C      1  0.5215470000000  0.4338120000000  0.5049320000000 1.0
C      1  0.4848880000000  0.4536460000000  0.4427580000000 1.0
C      1  0.4375210000000  0.5201450000000  0.5411210000000 1.0
C      1  0.5090040000000  0.5556680000000  0.5503800000000 1.0
C      1  0.5559370000000  0.4906800000000  0.4412230000000 1.0
C      1  0.4786860000000  0.4639470000000  0.4347040000000 1.0
C      1  0.4787250000000  0.5340140000000  0.4383020000000 1.0
C      1  0.5689930000000  0.4836160000000  0.4642620000000 1.0
C      1  0.4526730000000  0.5501560000000  0.4902690000000 1.0
C      1  0.4796490000000  0.4323690000000  0.4929420000000 1.0
C      1  0.5080660000000  0.4468640000000  0.5508450000000 1.0
C      1  0.5190540000000  0.5712360000000  0.4947010000000 1.0
C      1  0.4466550000000  0.5169020000000  0.5519350000000 1.0
C      1  0.5261800000000  0.5637830000000  0.4844690000000 1.0
C      1  0.4630160000000  0.4409410000000  0.5191120000000 1.0
C      1  0.4495050000000  0.4459080000000  0.5160690000000 1.0
C      1  0.5649910000000  0.5158740000000  0.5362330000000 1.0
C      1  0.5692730000000  0.5153910000000  0.4718820000000 1.0
C      1  0.4636500000000  0.5576880000000  0.5195850000000 1.0
C      1  0.5532090000000  0.5470190000000  0.5088950000000 1.0
C      1  0.5526340000000  0.5483700000000  0.4942290000000 1.0
C      1  0.4491040000000  0.4461680000000  0.4889470000000 1.0
C      1  0.4980670000000  0.5793220000000  0.4913730000000 1.0
C      1  0.5564380000000  0.5364790000000  0.4728970000000 1.0
C      1  0.5643920000000  0.4668600000000  0.4796970000000 1.0
C      1  0.5677620000000  0.5360430000000  0.4819130000000 1.0
C      1  0.4576830000000  0.5253750000000  0.4454300000000 1.0
C      1  0.4390580000000  0.4597570000000  0.5317380000000 1.0
C      1  0.5367140000000  0.5166810000000  0.4350130000000 1.0
C      1  0.5359500000000  0.5286060000000  0.5571430000000 1.0
C      1  0.4853210000000  0.4400360000000  0.4608300000000 1.0
C      1  0.5607190000000  0.4657820000000  0.5145720000000 1.0
C      1  0.5379590000000  0.4804040000000  0.4305710000000 1.0
C      1  0.4976450000000  0.5739790000000  0.5050210000000 1.0
C      1  0.5043780000000  0.5008240000000  0.5789800000000 1.0
C      1  0.5282010000000  0.5558260000000  0.5370020000000 1.0
C      1  0.4982320000000  0.4290060000000  0.5061910000000 1.0
C      1  0.4906360000000  0.5005400000000  0.5841270000000 1.0
C      1  0.4735910000000  0.4471090000000  0.5393710000000 1.0
C      1  0.4631010000000  0.5316920000000  0.5601780000000 1.0
C      1  0.5520120000000  0.4653690000000  0.5259580000000 1.0
C      1  0.4453580000000  0.5355450000000  0.4734150000000 1.0
C      1  0.4633130000000  0.5189160000000  0.5670980000000 1.0
C      1  0.5185670000000  0.4306980000000  0.5375620000000 1.0
C      1  0.5181500000000  0.4404450000000  0.4639630000000 1.0
C      1  0.4642710000000  0.5167920000000  0.4359540000000 1.0
C      1  0.4379580000000  0.5347130000000  0.4855990000000 1.0
C      1  0.4376910000000  0.4657920000000  0.4841200000000 1.0
C      1  0.4630420000000  0.4848110000000  0.5647210000000 1.0
C      1  0.5359060000000  0.4745130000000  0.5529930000000 1.0
C      1  0.4385710000000  0.5416690000000  0.5333450000000 1.0
C      1  0.5602590000000  0.4625460000000  0.4665140000000 1.0
C      1  0.4565720000000  0.4701650000000  0.4394220000000 1.0
C      1  0.5031640000000  0.4309300000000  0.4927790000000 1.0
C      1  0.5076810000000  0.4996010000000  0.4269240000000 1.0
C      1  0.5795480000000  0.5067360000000  0.5026920000000 1.0
C      1  0.5667040000000  0.5314590000000  0.5193860000000 1.0
C      1  0.5186240000000  0.5650320000000  0.5316380000000 1.0
C      1  0.5284110000000  0.5537750000000  0.4646900000000 1.0
C      1  0.4932400000000  0.4995150000000  0.4269730000000 1.0
C      1  0.4241740000000  0.4930490000000  0.5019550000000 1.0
C      1  0.4623760000000  0.4734950000000  0.5557910000000 1.0
C      1  0.5156330000000  0.5603160000000  0.4634520000000 1.0
C      1  0.5432300000000  0.5244800000000  0.4451220000000 1.0
C      1  0.4446830000000  0.4615700000000  0.4721900000000 1.0
C      1  0.4357690000000  0.5336190000000  0.5215070000000 1.0
C      1  0.4325150000000  0.4612390000000  0.5189480000000 1.0
C      1  0.4821170000000  0.4382970000000  0.5316360000000 1.0
C      1  0.4714480000000  0.4431760000000  0.4590010000000 1.0
C      1  0.5792550000000  0.4927740000000  0.4989350000000 1.0
C      1  0.5451560000000  0.4703920000000  0.4382370000000 1.0
C      1  0.4256940000000  0.5067710000000  0.5061500000000 1.0
C      1  0.5566650000000  0.5359480000000  0.5286810000000 1.0
C      1  0.4632880000000  0.4802720000000  0.4314620000000 1.0
C      1  0.5310510000000  0.5189810000000  0.5666560000000 1.0
C      1  0.4734010000000  0.5546580000000  0.5410730000000 1.0
C      1  0.4845990000000  0.5624520000000  0.4610170000000 1.0
C      1  0.4820140000000  0.5620480000000  0.5319770000000 1.0
C      1  0.5310540000000  0.4830170000000  0.5635110000000 1.0
C      1  0.5275750000000  0.4421180000000  0.5391940000000 1.0
C      1  0.5307720000000  0.4409610000000  0.4567710000000 1.0
C      1  0.4713780000000  0.5569340000000  0.4600790000000 1.0
END
