TITL C-102688-8074-21 0.0351802982016674 1000000 -1801.14133217412 0 0 240 (C1) n - 1
REM
REM in /home/chem/mssmkc/work/GAP20/Larger-Clusters/Only-C240-new-series
REM
REM
REM
REM
REM
REM ./C.cell (0485df7495ed2a90f93db84a705cd676)
REM
REM compiler GCC version 8.3.0
REM options -cpp -mtune=generic -march=x86-64 -g -O0
REM seed -720513516 -1442428160 1272138964 2022033756 1496442226 1712799753 -1393116664 -848063796 -1926390726 -895551690 -1008517077 548365518 850436474 -1198393028 1496244864 -627568532 -987909628 -388966279 -445930101 27644799 -1822779466 1825939297 1094853305 -1051006339 -1947842143 1117997845 33249578 -1012913466 2039779343 1656236845 739081576 1694095187 942309561
REM
CELL 1.54180  100.00000  100.00000  100.00000   90.00000   90.00000   90.00000
LATT -1
SFAC C  
C      1  0.5231430000000  0.4668740000000  0.5429610000000 1.0
C      1  0.5429970000000  0.5231170000000  0.4669010000000 1.0
C      1  0.4669660000000  0.5431720000000  0.5232270000000 1.0
C      1  0.5230090000000  0.5331070000000  0.4570360000000 1.0
C      1  0.4770030000000  0.5331320000000  0.5431040000000 1.0
C      1  0.4768620000000  0.4670160000000  0.4571000000000 1.0
C      1  0.5430730000000  0.4768880000000  0.5329920000000 1.0
C      1  0.4570440000000  0.4770530000000  0.4671200000000 1.0
C      1  0.4569530000000  0.5232120000000  0.5332680000000 1.0
C      1  0.4669580000000  0.4571090000000  0.4770590000000 1.0
C      1  0.5330290000000  0.4569820000000  0.5229930000000 1.0
C      1  0.5330180000000  0.5430860000000  0.4769600000000 1.0
C      1  0.5230210000000  0.5430360000000  0.4669770000000 1.0
C      1  0.5429740000000  0.4669060000000  0.5229970000000 1.0
C      1  0.4669940000000  0.5231610000000  0.5431890000000 1.0
C      1  0.5230510000000  0.4569200000000  0.5329960000000 1.0
C      1  0.4769920000000  0.5430780000000  0.5331790000000 1.0
C      1  0.4769200000000  0.4570410000000  0.4670440000000 1.0
C      1  0.5429670000000  0.5331160000000  0.4768740000000 1.0
C      1  0.4570670000000  0.4670900000000  0.4770900000000 1.0
C      1  0.4569370000000  0.5332350000000  0.5232750000000 1.0
C      1  0.4669330000000  0.4770600000000  0.4570910000000 1.0
C      1  0.5329910000000  0.5231120000000  0.4569420000000 1.0
C      1  0.5331170000000  0.4768730000000  0.5430010000000 1.0
C      1  0.5000580000000  0.4895930000000  0.5787440000000 1.0
C      1  0.5787060000000  0.4999940000000  0.4896470000000 1.0
C      1  0.4898030000000  0.5788260000000  0.5001050000000 1.0
C      1  0.4998130000000  0.5104600000000  0.4212920000000 1.0
C      1  0.5002190000000  0.5103710000000  0.5787610000000 1.0
C      1  0.4999330000000  0.4896870000000  0.4212970000000 1.0
C      1  0.5787280000000  0.4999580000000  0.5101430000000 1.0
C      1  0.4212970000000  0.5001400000000  0.4897970000000 1.0
C      1  0.4212740000000  0.5000760000000  0.5104300000000 1.0
C      1  0.4895530000000  0.4212430000000  0.5000680000000 1.0
C      1  0.5103210000000  0.4212230000000  0.4999060000000 1.0
C      1  0.5103010000000  0.5788140000000  0.5000470000000 1.0
C      1  0.4999660000000  0.5788120000000  0.4896900000000 1.0
C      1  0.5787060000000  0.4895870000000  0.4998180000000 1.0
C      1  0.4898920000000  0.5000030000000  0.5787720000000 1.0
C      1  0.4999610000000  0.4212200000000  0.5102390000000 1.0
C      1  0.5001380000000  0.5788150000000  0.5104640000000 1.0
C      1  0.4999120000000  0.4212340000000  0.4897340000000 1.0
C      1  0.5787160000000  0.5103640000000  0.4999740000000 1.0
C      1  0.4213010000000  0.4897170000000  0.5002110000000 1.0
C      1  0.4212700000000  0.5103640000000  0.5001500000000 1.0
C      1  0.4896210000000  0.5000710000000  0.4212990000000 1.0
C      1  0.5101220000000  0.5000740000000  0.4212790000000 1.0
C      1  0.5103880000000  0.4999610000000  0.5787440000000 1.0
C      1  0.4382030000000  0.4780210000000  0.4882380000000 1.0
C      1  0.4879240000000  0.4381120000000  0.4779320000000 1.0
C      1  0.4777900000000  0.4880770000000  0.4381460000000 1.0
C      1  0.4379870000000  0.5223270000000  0.5122470000000 1.0
C      1  0.5618950000000  0.5221780000000  0.4879520000000 1.0
C      1  0.5618690000000  0.4777940000000  0.5118530000000 1.0
C      1  0.4881270000000  0.5619650000000  0.5222680000000 1.0
C      1  0.5119470000000  0.5619290000000  0.4779040000000 1.0
C      1  0.5119880000000  0.4380540000000  0.5220650000000 1.0
C      1  0.4780280000000  0.5120790000000  0.5620130000000 1.0
C      1  0.5219870000000  0.5120980000000  0.4380710000000 1.0
C      1  0.5222100000000  0.4879110000000  0.5619390000000 1.0
C      1  0.4381940000000  0.4881560000000  0.4781200000000 1.0
C      1  0.4879120000000  0.4779320000000  0.4381620000000 1.0
C      1  0.4778150000000  0.4381680000000  0.4881010000000 1.0
C      1  0.4380000000000  0.5121810000000  0.5223730000000 1.0
C      1  0.5619400000000  0.4879150000000  0.5219950000000 1.0
C      1  0.5619190000000  0.5120590000000  0.4778160000000 1.0
C      1  0.4881740000000  0.5221960000000  0.5619540000000 1.0
C      1  0.5120740000000  0.4777930000000  0.5619080000000 1.0
C      1  0.5118550000000  0.5222310000000  0.4381390000000 1.0
C      1  0.4779650000000  0.5620330000000  0.5121660000000 1.0
C      1  0.5220990000000  0.4381040000000  0.5118990000000 1.0
C      1  0.5221070000000  0.5619660000000  0.4880190000000 1.0
C      1  0.4682570000000  0.4882360000000  0.4485610000000 1.0
C      1  0.4485380000000  0.4684410000000  0.4883170000000 1.0
C      1  0.4880760000000  0.4484880000000  0.4683540000000 1.0
C      1  0.4684190000000  0.5119660000000  0.5516720000000 1.0
C      1  0.5315800000000  0.5119480000000  0.4484250000000 1.0
C      1  0.5317490000000  0.4880440000000  0.5515350000000 1.0
C      1  0.4484020000000  0.5318760000000  0.5121000000000 1.0
C      1  0.5515290000000  0.5317350000000  0.4880740000000 1.0
C      1  0.5514890000000  0.4682470000000  0.5117520000000 1.0
C      1  0.4882440000000  0.5515820000000  0.5318100000000 1.0
C      1  0.5118020000000  0.5515680000000  0.4683370000000 1.0
C      1  0.5118630000000  0.4484150000000  0.5316580000000 1.0
C      1  0.4682830000000  0.4485570000000  0.4882610000000 1.0
C      1  0.4485110000000  0.4882540000000  0.4685290000000 1.0
C      1  0.4880400000000  0.4683630000000  0.4485170000000 1.0
C      1  0.4683650000000  0.5516830000000  0.5120470000000 1.0
C      1  0.5316630000000  0.4484650000000  0.5117620000000 1.0
C      1  0.5316850000000  0.5515920000000  0.4881480000000 1.0
C      1  0.4484340000000  0.5120240000000  0.5318970000000 1.0
C      1  0.5515890000000  0.4880540000000  0.5315910000000 1.0
C      1  0.5515180000000  0.5119360000000  0.4682720000000 1.0
C      1  0.4882650000000  0.5317610000000  0.5515910000000 1.0
C      1  0.5119470000000  0.4682460000000  0.5515310000000 1.0
C      1  0.5117630000000  0.5317780000000  0.4485190000000 1.0
C      1  0.4710060000000  0.5112050000000  0.4330420000000 1.0
C      1  0.4320600000000  0.4700260000000  0.5109740000000 1.0
C      1  0.5110170000000  0.4329410000000  0.4710780000000 1.0
C      1  0.4712480000000  0.4889270000000  0.5670230000000 1.0
C      1  0.5287500000000  0.4889500000000  0.4330240000000 1.0
C      1  0.5289930000000  0.5110600000000  0.5669530000000 1.0
C      1  0.4330480000000  0.5289850000000  0.4890530000000 1.0
C      1  0.5679080000000  0.5300120000000  0.5107780000000 1.0
C      1  0.5678990000000  0.4699270000000  0.4890460000000 1.0
C      1  0.5109410000000  0.5680040000000  0.5301010000000 1.0
C      1  0.4891520000000  0.5680310000000  0.4700440000000 1.0
C      1  0.4888820000000  0.4329300000000  0.5289090000000 1.0
C      1  0.4699270000000  0.4320610000000  0.5108870000000 1.0
C      1  0.4321050000000  0.5109210000000  0.4701430000000 1.0
C      1  0.5107110000000  0.4700290000000  0.4321110000000 1.0
C      1  0.4711580000000  0.5670790000000  0.4890300000000 1.0
C      1  0.5299670000000  0.4320150000000  0.4891030000000 1.0
C      1  0.5289500000000  0.5670840000000  0.5111270000000 1.0
C      1  0.4330770000000  0.4889750000000  0.5290200000000 1.0
C      1  0.5669870000000  0.5110570000000  0.5287840000000 1.0
C      1  0.5669130000000  0.4889050000000  0.4710360000000 1.0
C      1  0.5109890000000  0.5300400000000  0.5679730000000 1.0
C      1  0.4892480000000  0.4699600000000  0.5679190000000 1.0
C      1  0.4890630000000  0.5301320000000  0.4320980000000 1.0
C      1  0.4645650000000  0.4540770000000  0.5251650000000 1.0
C      1  0.5249200000000  0.4646440000000  0.4541670000000 1.0
C      1  0.4541780000000  0.5251210000000  0.4647740000000 1.0
C      1  0.4647570000000  0.5457030000000  0.4751650000000 1.0
C      1  0.5353960000000  0.5457350000000  0.5250060000000 1.0
C      1  0.5353700000000  0.4540380000000  0.4748570000000 1.0
C      1  0.5251450000000  0.5354500000000  0.5459170000000 1.0
C      1  0.4748700000000  0.5355390000000  0.4541480000000 1.0
C      1  0.4750460000000  0.4646460000000  0.5458510000000 1.0
C      1  0.4544580000000  0.4750970000000  0.5353350000000 1.0
C      1  0.5455180000000  0.4750430000000  0.4647040000000 1.0
C      1  0.5456210000000  0.5249220000000  0.5352070000000 1.0
C      1  0.4646130000000  0.5251170000000  0.4543900000000 1.0
C      1  0.5249340000000  0.4542680000000  0.4646130000000 1.0
C      1  0.4541010000000  0.4645920000000  0.5251650000000 1.0
C      1  0.4648220000000  0.4750980000000  0.5456400000000 1.0
C      1  0.5353120000000  0.5249420000000  0.5455690000000 1.0
C      1  0.5351610000000  0.4750740000000  0.4543900000000 1.0
C      1  0.5251580000000  0.5459570000000  0.5354500000000 1.0
C      1  0.4750090000000  0.4542790000000  0.5353970000000 1.0
C      1  0.4749160000000  0.5460160000000  0.4646480000000 1.0
C      1  0.4544250000000  0.5353640000000  0.4752060000000 1.0
C      1  0.5458490000000  0.4645360000000  0.4748730000000 1.0
C      1  0.5458410000000  0.5353620000000  0.5249750000000 1.0
C      1  0.4726210000000  0.5225020000000  0.4248480000000 1.0
C      1  0.4209990000000  0.4674440000000  0.5209660000000 1.0
C      1  0.5223070000000  0.4247340000000  0.4726860000000 1.0
C      1  0.4728380000000  0.4776070000000  0.5751860000000 1.0
C      1  0.5271370000000  0.4776470000000  0.4248400000000 1.0
C      1  0.5274360000000  0.5223610000000  0.5751470000000 1.0
C      1  0.4248710000000  0.5273750000000  0.4777440000000 1.0
C      1  0.5789870000000  0.5326490000000  0.5207590000000 1.0
C      1  0.5789490000000  0.4673250000000  0.4790320000000 1.0
C      1  0.5209310000000  0.5790750000000  0.5327260000000 1.0
C      1  0.4791690000000  0.5791120000000  0.4674570000000 1.0
C      1  0.4775760000000  0.4247470000000  0.5272960000000 1.0
C      1  0.4672930000000  0.4209630000000  0.5208430000000 1.0
C      1  0.4210240000000  0.5208870000000  0.4675070000000 1.0
C      1  0.5206750000000  0.4673820000000  0.4210200000000 1.0
C      1  0.4727300000000  0.5752690000000  0.4777270000000 1.0
C      1  0.5325840000000  0.4209230000000  0.4791340000000 1.0
C      1  0.5273560000000  0.5752710000000  0.5224330000000 1.0
C      1  0.4248840000000  0.4776740000000  0.5274420000000 1.0
C      1  0.5751670000000  0.5223640000000  0.5271910000000 1.0
C      1  0.5750940000000  0.4775950000000  0.4726010000000 1.0
C      1  0.5210110000000  0.5326300000000  0.5790190000000 1.0
C      1  0.4792670000000  0.4673170000000  0.5789950000000 1.0
C      1  0.4790740000000  0.5327720000000  0.4210300000000 1.0
C      1  0.4461380000000  0.5344020000000  0.4874500000000 1.0
C      1  0.4872480000000  0.4459950000000  0.5343540000000 1.0
C      1  0.5341810000000  0.4873180000000  0.4461070000000 1.0
C      1  0.4455710000000  0.4654200000000  0.5129390000000 1.0
C      1  0.5543810000000  0.4653430000000  0.4871010000000 1.0
C      1  0.5543760000000  0.5346030000000  0.5127300000000 1.0
C      1  0.4871610000000  0.5545220000000  0.4654500000000 1.0
C      1  0.5129090000000  0.5544800000000  0.5346580000000 1.0
C      1  0.5126810000000  0.4460070000000  0.4656430000000 1.0
C      1  0.5343560000000  0.5126830000000  0.5538440000000 1.0
C      1  0.4656110000000  0.5128600000000  0.4461240000000 1.0
C      1  0.4658190000000  0.4873280000000  0.5539370000000 1.0
C      1  0.4461830000000  0.4873620000000  0.5343900000000 1.0
C      1  0.4871120000000  0.5347090000000  0.4456180000000 1.0
C      1  0.5345520000000  0.4455270000000  0.4871130000000 1.0
C      1  0.4456370000000  0.5128860000000  0.4655510000000 1.0
C      1  0.5538050000000  0.4872950000000  0.4656640000000 1.0
C      1  0.5539030000000  0.5126800000000  0.5342140000000 1.0
C      1  0.4872930000000  0.4653850000000  0.5543820000000 1.0
C      1  0.5129230000000  0.5346370000000  0.5544580000000 1.0
C      1  0.5126740000000  0.4654230000000  0.4456370000000 1.0
C      1  0.5343690000000  0.5540110000000  0.5127650000000 1.0
C      1  0.4653640000000  0.4455780000000  0.5128980000000 1.0
C      1  0.4657450000000  0.5539880000000  0.4874140000000 1.0
C      1  0.4297550000000  0.5007220000000  0.5216050000000 1.0
C      1  0.5216760000000  0.4295280000000  0.5005060000000 1.0
C      1  0.5004450000000  0.5218220000000  0.4295860000000 1.0
C      1  0.4295980000000  0.4995480000000  0.4784600000000 1.0
C      1  0.5702660000000  0.4993310000000  0.5213180000000 1.0
C      1  0.5702270000000  0.5006290000000  0.4784840000000 1.0
C      1  0.5214630000000  0.5703340000000  0.4994100000000 1.0
C      1  0.4786310000000  0.5703590000000  0.5007480000000 1.0
C      1  0.4782140000000  0.4295720000000  0.4994800000000 1.0
C      1  0.5006560000000  0.4782330000000  0.5704450000000 1.0
C      1  0.4993180000000  0.4783330000000  0.4296040000000 1.0
C      1  0.4995970000000  0.5217470000000  0.5704880000000 1.0
C      1  0.4297350000000  0.5215550000000  0.5007940000000 1.0
C      1  0.5212980000000  0.5006850000000  0.4297430000000 1.0
C      1  0.5005980000000  0.4296870000000  0.5214140000000 1.0
C      1  0.4295790000000  0.4783620000000  0.4996130000000 1.0
C      1  0.5704290000000  0.5217330000000  0.4993730000000 1.0
C      1  0.5704160000000  0.4782220000000  0.5004370000000 1.0
C      1  0.5215460000000  0.4993330000000  0.5702590000000 1.0
C      1  0.4787140000000  0.5006470000000  0.5703170000000 1.0
C      1  0.4784570000000  0.4994680000000  0.4297810000000 1.0
C      1  0.5005570000000  0.5705120000000  0.4783320000000 1.0
C      1  0.4992940000000  0.4297160000000  0.4785690000000 1.0
C      1  0.4995350000000  0.5705170000000  0.5218250000000 1.0
C      1  0.4520410000000  0.4996940000000  0.5382320000000 1.0
C      1  0.5381630000000  0.4518250000000  0.4994280000000 1.0
C      1  0.4994440000000  0.5382930000000  0.4519030000000 1.0
C      1  0.4518740000000  0.5005520000000  0.4620080000000 1.0
C      1  0.5480510000000  0.5003450000000  0.5380290000000 1.0
C      1  0.5479420000000  0.4996380000000  0.4618640000000 1.0
C      1  0.5381890000000  0.5480860000000  0.5004350000000 1.0
C      1  0.4619260000000  0.5481420000000  0.4997570000000 1.0
C      1  0.4617790000000  0.4519100000000  0.5005950000000 1.0
C      1  0.4996140000000  0.4618010000000  0.5481360000000 1.0
C      1  0.5003520000000  0.4618640000000  0.4518860000000 1.0
C      1  0.5005920000000  0.5382550000000  0.5481960000000 1.0
C      1  0.4519860000000  0.5382470000000  0.4997820000000 1.0
C      1  0.5380060000000  0.4996490000000  0.4519630000000 1.0
C      1  0.4995800000000  0.4519130000000  0.5381750000000 1.0
C      1  0.4518700000000  0.4618600000000  0.5006110000000 1.0
C      1  0.5481370000000  0.5381860000000  0.5004050000000 1.0
C      1  0.5481000000000  0.4617450000000  0.4994270000000 1.0
C      1  0.5381540000000  0.5003450000000  0.5479680000000 1.0
C      1  0.4619910000000  0.4996750000000  0.5481150000000 1.0
C      1  0.4617930000000  0.5005420000000  0.4520780000000 1.0
C      1  0.4994680000000  0.5482180000000  0.4618350000000 1.0
C      1  0.5003630000000  0.4519600000000  0.4618310000000 1.0
C      1  0.5005870000000  0.5481910000000  0.5382760000000 1.0
END
