TITL C240-525289 -1.14118699575821 1000000 -1681.81899546329 0 0 240 (S10) n - 1
REM
REM in /home/chem/mssmkc/work/CARBON/AIRSS/Generating-Clusters/Str-Search/GAP20/LAMMPS-RUNS
REM
REM
REM
REM
REM
REM C240.cell (f1f5e860899a516fa0b66c26f0e4d080)
REM
REM
REM
REM
REM
CELL 1.54180  100.00000  100.00000  100.00000   90.00000   90.00000   90.00000
LATT -1
SFAC C  
C      1  0.5006140000000  0.5396620000000  0.4914510000000 1.0
C      1  0.5307100000000  0.5212740000000  0.4831320000000 1.0
C      1  0.5363850000000  0.4814990000000  0.4960700000000 1.0
C      1  0.5362510000000  0.5174770000000  0.4948090000000 1.0
C      1  0.4794090000000  0.5168180000000  0.4682150000000 1.0
C      1  0.4692900000000  0.4787260000000  0.5168680000000 1.0
C      1  0.5204990000000  0.5053200000000  0.4648640000000 1.0
C      1  0.5201730000000  0.5191170000000  0.5300330000000 1.0
C      1  0.4942360000000  0.4635010000000  0.4832330000000 1.0
C      1  0.5357920000000  0.4817810000000  0.5102060000000 1.0
C      1  0.5205300000000  0.4912060000000  0.4650960000000 1.0
C      1  0.4995720000000  0.5407010000000  0.5048420000000 1.0
C      1  0.5041020000000  0.5015680000000  0.5412050000000 1.0
C      1  0.5163680000000  0.5302720000000  0.5222690000000 1.0
C      1  0.4993860000000  0.4603380000000  0.5085490000000 1.0
C      1  0.4906640000000  0.5017200000000  0.5398940000000 1.0
C      1  0.4805440000000  0.4720950000000  0.5221190000000 1.0
C      1  0.4759190000000  0.5192040000000  0.5270730000000 1.0
C      1  0.5280340000000  0.4784170000000  0.5207330000000 1.0
C      1  0.4719660000000  0.5215830000000  0.4792670000000 1.0
C      1  0.4794700000000  0.5087940000000  0.5349040000000 1.0
C      1  0.5056500000000  0.4648900000000  0.5202430000000 1.0
C      1  0.5082340000000  0.4632190000000  0.4840710000000 1.0
C      1  0.4842670000000  0.5055700000000  0.4625420000000 1.0
C      1  0.4642080000000  0.5182190000000  0.4897940000000 1.0
C      1  0.4643880000000  0.4817340000000  0.4911490000000 1.0
C      1  0.4795010000000  0.4946800000000  0.5351360000000 1.0
C      1  0.5205910000000  0.4831820000000  0.5317850000000 1.0
C      1  0.4692550000000  0.5232220000000  0.5152530000000 1.0
C      1  0.5307450000000  0.4767780000000  0.4847470000000 1.0
C      1  0.4798270000000  0.4808830000000  0.4699670000000 1.0
C      1  0.5004280000000  0.4592990000000  0.4951580000000 1.0
C      1  0.5093360000000  0.4982800000000  0.4601060000000 1.0
C      1  0.5403130000000  0.5065290000000  0.5025780000000 1.0
C      1  0.5356120000000  0.5182660000000  0.5088510000000 1.0
C      1  0.5057640000000  0.5364990000000  0.5167670000000 1.0
C      1  0.5194560000000  0.5279050000000  0.4778810000000 1.0
C      1  0.4958980000000  0.4984320000000  0.4587950000000 1.0
C      1  0.4596870000000  0.4934710000000  0.4974220000000 1.0
C      1  0.4756460000000  0.4835870000000  0.5284940000000 1.0
C      1  0.5084360000000  0.5351400000000  0.4806550000000 1.0
C      1  0.5243540000000  0.5164130000000  0.4715060000000 1.0
C      1  0.4722120000000  0.4772120000000  0.4811580000000 1.0
C      1  0.4636150000000  0.5185010000000  0.5039300000000 1.0
C      1  0.4637490000000  0.4825230000000  0.5051910000000 1.0
C      1  0.4915640000000  0.4648600000000  0.5193450000000 1.0
C      1  0.4836320000000  0.4697280000000  0.4777310000000 1.0
C      1  0.5403190000000  0.4930440000000  0.5030020000000 1.0
C      1  0.5240810000000  0.4807960000000  0.4729270000000 1.0
C      1  0.4596810000000  0.5069560000000  0.4969980000000 1.0
C      1  0.5277880000000  0.5227880000000  0.5188420000000 1.0
C      1  0.4843280000000  0.4915500000000  0.4630400000000 1.0
C      1  0.5156720000000  0.5084500000000  0.5369600000000 1.0
C      1  0.4806180000000  0.5302480000000  0.5198100000000 1.0
C      1  0.4943500000000  0.5351100000000  0.4797570000000 1.0
C      1  0.4917660000000  0.5367810000000  0.5159290000000 1.0
C      1  0.5157330000000  0.4944300000000  0.5374580000000 1.0
C      1  0.5163990000000  0.4716860000000  0.5247480000000 1.0
C      1  0.5193820000000  0.4697520000000  0.4801900000000 1.0
C      1  0.4836010000000  0.5283140000000  0.4752520000000 1.0
C      1  0.5076610000000  0.5672830000000  0.5128220000000 1.0
C      1  0.4328710000000  0.5128770000000  0.5073220000000 1.0
C      1  0.4683880000000  0.5344870000000  0.5505810000000 1.0
C      1  0.5460900000000  0.4566320000000  0.5272410000000 1.0
C      1  0.4491110000000  0.5316990000000  0.4653510000000 1.0
C      1  0.5432820000000  0.5273480000000  0.4531750000000 1.0
C      1  0.5508900000000  0.4683010000000  0.5346490000000 1.0
C      1  0.5324660000000  0.5342520000000  0.5508580000000 1.0
C      1  0.4877750000000  0.5076590000000  0.5677270000000 1.0
C      1  0.4850500000000  0.4374400000000  0.4757980000000 1.0
C      1  0.5072630000000  0.5672840000000  0.4880370000000 1.0
C      1  0.5242720000000  0.5146180000000  0.5635560000000 1.0
C      1  0.5125820000000  0.5074870000000  0.5680320000000 1.0
C      1  0.5351460000000  0.5502000000000  0.5315390000000 1.0
C      1  0.4927370000000  0.4327160000000  0.5119640000000 1.0
C      1  0.4877480000000  0.4930300000000  0.5674420000000 1.0
C      1  0.4659210000000  0.4494480000000  0.5317200000000 1.0
C      1  0.4319840000000  0.5127180000000  0.4926330000000 1.0
C      1  0.5510050000000  0.5308530000000  0.5339610000000 1.0
C      1  0.5680160000000  0.4872810000000  0.5073670000000 1.0
C      1  0.4648540000000  0.4498000000000  0.4684610000000 1.0
C      1  0.5671290000000  0.4871230000000  0.4926770000000 1.0
C      1  0.5316120000000  0.4655120000000  0.4494200000000 1.0
C      1  0.4735150000000  0.4540120000000  0.5434790000000 1.0
C      1  0.4929380000000  0.5675690000000  0.5130200000000 1.0
C      1  0.5237860000000  0.5140160000000  0.4370440000000 1.0
C      1  0.4932090000000  0.4411420000000  0.5357010000000 1.0
C      1  0.4762140000000  0.4859830000000  0.5629560000000 1.0
C      1  0.5317900000000  0.4650900000000  0.5511220000000 1.0
C      1  0.4536670000000  0.5441020000000  0.5274040000000 1.0
C      1  0.5506550000000  0.4680700000000  0.4653130000000 1.0
C      1  0.4561660000000  0.4735170000000  0.4544260000000 1.0
C      1  0.4493450000000  0.5319300000000  0.5346870000000 1.0
C      1  0.4643230000000  0.5074000000000  0.4415240000000 1.0
C      1  0.4541850000000  0.4565460000000  0.5276170000000 1.0
C      1  0.5463330000000  0.4558980000000  0.4725960000000 1.0
C      1  0.4320000000000  0.4879520000000  0.4933220000000 1.0
C      1  0.4675340000000  0.4657480000000  0.4491410000000 1.0
C      1  0.4364630000000  0.5243350000000  0.4853840000000 1.0
C      1  0.4412740000000  0.4645260000000  0.4934530000000 1.0
C      1  0.5070620000000  0.4324310000000  0.4869810000000 1.0
C      1  0.4760880000000  0.5146720000000  0.5632580000000 1.0
C      1  0.5146360000000  0.4372270000000  0.5233490000000 1.0
C      1  0.5066350000000  0.4421060000000  0.4638890000000 1.0
C      1  0.4925420000000  0.5671790000000  0.4882470000000 1.0
C      1  0.4364730000000  0.4763850000000  0.4861580000000 1.0
C      1  0.5583390000000  0.5354860000000  0.4922360000000 1.0
C      1  0.4682110000000  0.5349110000000  0.4488780000000 1.0
C      1  0.4495820000000  0.4683070000000  0.5351920000000 1.0
C      1  0.5670250000000  0.5119500000000  0.4919620000000 1.0
C      1  0.5308890000000  0.5343770000000  0.4493660000000 1.0
C      1  0.5627870000000  0.4755940000000  0.4855340000000 1.0
C      1  0.4534840000000  0.4570920000000  0.4732020000000 1.0
C      1  0.5361140000000  0.4926130000000  0.4409740000000 1.0
C      1  0.5458150000000  0.5434540000000  0.4723820000000 1.0
C      1  0.5465160000000  0.5429080000000  0.5267970000000 1.0
C      1  0.4857850000000  0.5632740000000  0.5246610000000 1.0
C      1  0.4760340000000  0.5147440000000  0.4367280000000 1.0
C      1  0.4373830000000  0.4764630000000  0.5152270000000 1.0
C      1  0.5584880000000  0.4636370000000  0.4927910000000 1.0
C      1  0.5273170000000  0.4534440000000  0.5439160000000 1.0
C      1  0.5142140000000  0.4367260000000  0.4753400000000 1.0
C      1  0.5075300000000  0.4409930000000  0.5357110000000 1.0
C      1  0.4415110000000  0.5363630000000  0.5072090000000 1.0
C      1  0.4643540000000  0.4931590000000  0.4416190000000 1.0
C      1  0.4638860000000  0.5073860000000  0.5590250000000 1.0
C      1  0.5356450000000  0.5068420000000  0.5583810000000 1.0
C      1  0.5635270000000  0.5236150000000  0.5138420000000 1.0
C      1  0.5074590000000  0.4328210000000  0.5117530000000 1.0
C      1  0.5264850000000  0.5459880000000  0.4565210000000 1.0
C      1  0.4719980000000  0.4542130000000  0.4563610000000 1.0
C      1  0.4414190000000  0.5361390000000  0.4928680000000 1.0
C      1  0.4728450000000  0.5459210000000  0.5433540000000 1.0
C      1  0.5280020000000  0.5457880000000  0.5436380000000 1.0
C      1  0.5239110000000  0.4853280000000  0.4367420000000 1.0
C      1  0.4853650000000  0.5627730000000  0.4766520000000 1.0
C      1  0.4539110000000  0.5433680000000  0.4727590000000 1.0
C      1  0.4923390000000  0.4327170000000  0.4871790000000 1.0
C      1  0.5122250000000  0.4923410000000  0.4322730000000 1.0
C      1  0.5680000000000  0.5120480000000  0.5066780000000 1.0
C      1  0.5635370000000  0.4756650000000  0.5146160000000 1.0
C      1  0.5587260000000  0.5354740000000  0.5065460000000 1.0
C      1  0.5149490000000  0.5625600000000  0.5242030000000 1.0
C      1  0.5122520000000  0.5069690000000  0.4325580000000 1.0
C      1  0.5340790000000  0.5505510000000  0.4682800000000 1.0
C      1  0.4875030000000  0.5073380000000  0.4323340000000 1.0
C      1  0.4933640000000  0.5578940000000  0.5361120000000 1.0
C      1  0.5585810000000  0.4638610000000  0.5071320000000 1.0
C      1  0.4638680000000  0.4929790000000  0.5590540000000 1.0
C      1  0.4329750000000  0.4880500000000  0.5080370000000 1.0
C      1  0.4757270000000  0.4853830000000  0.4364440000000 1.0
C      1  0.5076960000000  0.5578250000000  0.5361080000000 1.0
C      1  0.4691110000000  0.4656220000000  0.5506340000000 1.0
C      1  0.5124970000000  0.4926630000000  0.5676660000000 1.0
C      1  0.5142560000000  0.5631130000000  0.4762610000000 1.0
C      1  0.4372130000000  0.5244060000000  0.5144650000000 1.0
C      1  0.4416610000000  0.4645140000000  0.5077640000000 1.0
C      1  0.4857450000000  0.4368870000000  0.5237390000000 1.0
C      1  0.4874180000000  0.4925140000000  0.4319680000000 1.0
C      1  0.5626170000000  0.5235370000000  0.4847730000000 1.0
C      1  0.5361320000000  0.5070200000000  0.4409460000000 1.0
C      1  0.5356770000000  0.4926010000000  0.5584760000000 1.0
C      1  0.4563670000000  0.5273200000000  0.5463130000000 1.0
C      1  0.4924710000000  0.5590070000000  0.4642890000000 1.0
C      1  0.5436330000000  0.4726790000000  0.4536870000000 1.0
C      1  0.5504180000000  0.5316930000000  0.4648070000000 1.0
C      1  0.5067920000000  0.5588580000000  0.4643000000000 1.0
C      1  0.5438340000000  0.5264840000000  0.5455740000000 1.0
C      1  0.5239670000000  0.4852560000000  0.5632720000000 1.0
C      1  0.4564000000000  0.5273970000000  0.4537720000000 1.0
C      1  0.4489950000000  0.4691470000000  0.4660390000000 1.0
C      1  0.4923040000000  0.4421750000000  0.4638920000000 1.0
C      1  0.4567180000000  0.4726520000000  0.5468250000000 1.0
C      1  0.5346460000000  0.4487490000000  0.4681380000000 1.0
C      1  0.4655160000000  0.5503560000000  0.4683640000000 1.0
C      1  0.5344850000000  0.4496450000000  0.5316360000000 1.0
C      1  0.5271550000000  0.4540790000000  0.4566460000000 1.0
C      1  0.4726840000000  0.5465560000000  0.4560850000000 1.0
C      1  0.4653540000000  0.5512510000000  0.5318620000000 1.0
C      1  0.5436000000000  0.4726030000000  0.5462280000000 1.0
C      1  0.4999810000000  0.5131740000000  0.4323470000000 1.0
C      1  0.4766790000000  0.5279690000000  0.4405020000000 1.0
C      1  0.5442530000000  0.5134650000000  0.5499520000000 1.0
C      1  0.5445390000000  0.4856330000000  0.5506000000000 1.0
C      1  0.4724730000000  0.5598270000000  0.5237510000000 1.0
C      1  0.5233210000000  0.4720310000000  0.5594990000000 1.0
C      1  0.4849860000000  0.4498030000000  0.4550970000000 1.0
C      1  0.5273190000000  0.5588060000000  0.4769740000000 1.0
C      1  0.5504880000000  0.4553060000000  0.5142790000000 1.0
C      1  0.5449830000000  0.5145450000000  0.4483660000000 1.0
C      1  0.4854580000000  0.5516240000000  0.4550040000000 1.0
C      1  0.5002030000000  0.5135420000000  0.5684310000000 1.0
C      1  0.5687880000000  0.4998340000000  0.5130110000000 1.0
C      1  0.5595290000000  0.4765300000000  0.5277790000000 1.0
C      1  0.5000190000000  0.4868260000000  0.5676530000000 1.0
C      1  0.4332870000000  0.5006310000000  0.5135570000000 1.0
C      1  0.4412890000000  0.5233270000000  0.5275550000000 1.0
C      1  0.4724910000000  0.5580260000000  0.4773930000000 1.0
C      1  0.4776390000000  0.4730910000000  0.5584010000000 1.0
C      1  0.5223610000000  0.5269090000000  0.4415990000000 1.0
C      1  0.5145430000000  0.4483770000000  0.5449970000000 1.0
C      1  0.4490880000000  0.4558220000000  0.4861830000000 1.0
C      1  0.4495310000000  0.4555950000000  0.5146890000000 1.0
C      1  0.5139800000000  0.4502830000000  0.4556420000000 1.0
C      1  0.4550170000000  0.4854540000000  0.5516340000000 1.0
C      1  0.4550090000000  0.5145540000000  0.5512860000000 1.0
C      1  0.5150140000000  0.5501970000000  0.5449040000000 1.0
C      1  0.5275260000000  0.4401720000000  0.4762490000000 1.0
C      1  0.5239750000000  0.5278200000000  0.5596020000000 1.0
C      1  0.4760250000000  0.4721800000000  0.4403980000000 1.0
C      1  0.4726820000000  0.4411940000000  0.5230260000000 1.0
C      1  0.4997970000000  0.4864580000000  0.4315690000000 1.0
C      1  0.5667130000000  0.4993690000000  0.4864430000000 1.0
C      1  0.5134540000000  0.5674800000000  0.5003280000000 1.0
C      1  0.5449900000000  0.4854460000000  0.4487140000000 1.0
C      1  0.4495120000000  0.5446940000000  0.4857210000000 1.0
C      1  0.5587110000000  0.4766730000000  0.4724440000000 1.0
C      1  0.4312120000000  0.5001660000000  0.4869880000000 1.0
C      1  0.4865460000000  0.4325200000000  0.4996730000000 1.0
C      1  0.4719640000000  0.4415610000000  0.4769020000000 1.0
C      1  0.4489990000000  0.5453330000000  0.5144900000000 1.0
C      1  0.5280350000000  0.5584400000000  0.5230980000000 1.0
C      1  0.5229490000000  0.4723280000000  0.4411950000000 1.0
C      1  0.4557470000000  0.4865350000000  0.4500480000000 1.0
C      1  0.4554610000000  0.5143670000000  0.4494010000000 1.0
C      1  0.5510010000000  0.4546670000000  0.4855100000000 1.0
C      1  0.4404710000000  0.5234700000000  0.4722210000000 1.0
C      1  0.5132440000000  0.4322830000000  0.4992890000000 1.0
C      1  0.5275100000000  0.4419750000000  0.5226080000000 1.0
C      1  0.4867560000000  0.5677170000000  0.5007110000000 1.0
C      1  0.4770500000000  0.5276720000000  0.5588050000000 1.0
C      1  0.5136770000000  0.5508750000000  0.4554340000000 1.0
C      1  0.4863230000000  0.4491250000000  0.5445660000000 1.0
C      1  0.4414270000000  0.4770530000000  0.5283570000000 1.0
C      1  0.5509120000000  0.5441780000000  0.5138170000000 1.0
C      1  0.5504690000000  0.5444050000000  0.4853110000000 1.0
C      1  0.4860200000000  0.5497160000000  0.5443590000000 1.0
C      1  0.5594000000000  0.5225280000000  0.5269380000000 1.0
C      1  0.5585730000000  0.5229460000000  0.4716430000000 1.0
C      1  0.4406000000000  0.4774730000000  0.4730620000000 1.0
END
