TITL C-102689-8077-189 9.49293272678818 1000000 -1661.77580946757 0 0 240 (Th) n - 1
REM
REM in /home/chem/mssmkc/work/GAP20/Larger-Clusters/Only-C240-new-series
REM
REM
REM
REM
REM
REM ./C.cell (0485df7495ed2a90f93db84a705cd676)
REM
REM compiler GCC version 8.3.0
REM options -cpp -mtune=generic -march=x86-64 -g -O0
REM seed 3692958 -335559703 1811289526 1648614157 1207397759 -869407710 634792608 -849422155 103735494 295626449 399615672 -760561658 1546628355 647810955 -1704856804 1953582673 -830966782 1969796627 -1173165540 -240090114 1618229527 697196498 1975638114 -956941703 1898997783 -106775437 -1682515199 -1773327375 1588406067 2005325376 -116522524 1553158612 -64251251
REM
CELL 1.54180  100.00000  100.00000  100.00000   90.00000   90.00000   90.00000
LATT -1
SFAC C  
C      1  0.5164020000000  0.4344380000000  0.4927410000000 1.0
C      1  0.4927450000000  0.5164060000000  0.4344380000000 1.0
C      1  0.4344370000000  0.4927440000000  0.5164010000000 1.0
C      1  0.4836010000000  0.4344360000000  0.5072480000000 1.0
C      1  0.5163990000000  0.5655630000000  0.5072580000000 1.0
C      1  0.4835970000000  0.5655630000000  0.4927520000000 1.0
C      1  0.5072540000000  0.5163960000000  0.5655640000000 1.0
C      1  0.4927480000000  0.4835940000000  0.5655620000000 1.0
C      1  0.5072530000000  0.4836050000000  0.4344360000000 1.0
C      1  0.5655630000000  0.4927500000000  0.4835980000000 1.0
C      1  0.4344370000000  0.5072530000000  0.4836010000000 1.0
C      1  0.5655630000000  0.5072540000000  0.5164000000000 1.0
C      1  0.5163990000000  0.5655640000000  0.4927520000000 1.0
C      1  0.4927460000000  0.4836040000000  0.4344360000000 1.0
C      1  0.4344370000000  0.5072500000000  0.5164020000000 1.0
C      1  0.4835980000000  0.5655620000000  0.5072590000000 1.0
C      1  0.5164030000000  0.4344370000000  0.5072480000000 1.0
C      1  0.4836010000000  0.4344370000000  0.4927420000000 1.0
C      1  0.5072550000000  0.4835940000000  0.5655620000000 1.0
C      1  0.4927470000000  0.5163950000000  0.5655640000000 1.0
C      1  0.5072520000000  0.5164060000000  0.4344380000000 1.0
C      1  0.5655630000000  0.5072560000000  0.4835990000000 1.0
C      1  0.4344370000000  0.4927460000000  0.4836000000000 1.0
C      1  0.5655630000000  0.4927470000000  0.5163990000000 1.0
C      1  0.5192790000000  0.4592170000000  0.4874290000000 1.0
C      1  0.4874310000000  0.5192810000000  0.4592170000000 1.0
C      1  0.4592160000000  0.4874300000000  0.5192780000000 1.0
C      1  0.4807230000000  0.4592140000000  0.5125650000000 1.0
C      1  0.5192770000000  0.5407840000000  0.5125710000000 1.0
C      1  0.4807210000000  0.5407850000000  0.4874360000000 1.0
C      1  0.5125680000000  0.5192750000000  0.5407860000000 1.0
C      1  0.4874330000000  0.4807180000000  0.5407840000000 1.0
C      1  0.5125680000000  0.4807260000000  0.4592130000000 1.0
C      1  0.5407850000000  0.4874350000000  0.4807200000000 1.0
C      1  0.4592150000000  0.5125680000000  0.4807230000000 1.0
C      1  0.5407850000000  0.5125670000000  0.5192780000000 1.0
C      1  0.5192770000000  0.5407860000000  0.4874350000000 1.0
C      1  0.4874320000000  0.4807250000000  0.4592140000000 1.0
C      1  0.4592150000000  0.5125650000000  0.5192800000000 1.0
C      1  0.4807210000000  0.5407830000000  0.5125710000000 1.0
C      1  0.5192790000000  0.4592150000000  0.5125640000000 1.0
C      1  0.4807230000000  0.4592160000000  0.4874290000000 1.0
C      1  0.5125690000000  0.4807190000000  0.5407830000000 1.0
C      1  0.4874320000000  0.5192740000000  0.5407870000000 1.0
C      1  0.5125670000000  0.5192820000000  0.4592160000000 1.0
C      1  0.5407840000000  0.5125710000000  0.4807220000000 1.0
C      1  0.4592150000000  0.4874330000000  0.4807220000000 1.0
C      1  0.5407850000000  0.4874320000000  0.5192770000000 1.0
C      1  0.4615540000000  0.5257840000000  0.5154080000000 1.0
C      1  0.5154070000000  0.4615530000000  0.5257830000000 1.0
C      1  0.5257850000000  0.5154090000000  0.4615550000000 1.0
C      1  0.5384450000000  0.5257880000000  0.4845960000000 1.0
C      1  0.4615550000000  0.4742140000000  0.4845930000000 1.0
C      1  0.5384460000000  0.4742140000000  0.5154030000000 1.0
C      1  0.4845950000000  0.4615560000000  0.4742110000000 1.0
C      1  0.5154040000000  0.5384480000000  0.4742170000000 1.0
C      1  0.4845940000000  0.5384430000000  0.5257890000000 1.0
C      1  0.4742140000000  0.5154020000000  0.5384470000000 1.0
C      1  0.5257870000000  0.4845920000000  0.5384440000000 1.0
C      1  0.4742140000000  0.4845970000000  0.4615540000000 1.0
C      1  0.4615550000000  0.4742120000000  0.5154040000000 1.0
C      1  0.5154050000000  0.5384440000000  0.5257890000000 1.0
C      1  0.5257860000000  0.4845980000000  0.4615530000000 1.0
C      1  0.5384460000000  0.4742160000000  0.4845920000000 1.0
C      1  0.4615540000000  0.5257860000000  0.4845970000000 1.0
C      1  0.5384450000000  0.5257860000000  0.5154070000000 1.0
C      1  0.4845930000000  0.5384470000000  0.4742170000000 1.0
C      1  0.5154060000000  0.4615570000000  0.4742110000000 1.0
C      1  0.4845960000000  0.4615520000000  0.5257830000000 1.0
C      1  0.4742150000000  0.4845910000000  0.5384450000000 1.0
C      1  0.5257860000000  0.5154030000000  0.5384460000000 1.0
C      1  0.4742130000000  0.5154080000000  0.4615560000000 1.0
C      1  0.5533960000000  0.5243840000000  0.5330690000000 1.0
C      1  0.5330670000000  0.5533950000000  0.5243880000000 1.0
C      1  0.5243850000000  0.5330650000000  0.5533980000000 1.0
C      1  0.4466030000000  0.5243860000000  0.4669350000000 1.0
C      1  0.5533960000000  0.4756190000000  0.4669290000000 1.0
C      1  0.4466050000000  0.4756110000000  0.5330670000000 1.0
C      1  0.4669300000000  0.5533970000000  0.4756200000000 1.0
C      1  0.5330690000000  0.4466070000000  0.4756110000000 1.0
C      1  0.4669340000000  0.4466010000000  0.5243810000000 1.0
C      1  0.4756140000000  0.5330710000000  0.4466070000000 1.0
C      1  0.5243850000000  0.4669370000000  0.4466010000000 1.0
C      1  0.4756170000000  0.4669270000000  0.5533940000000 1.0
C      1  0.5533970000000  0.4756140000000  0.5330650000000 1.0
C      1  0.5330700000000  0.4466030000000  0.5243800000000 1.0
C      1  0.5243860000000  0.4669290000000  0.5533930000000 1.0
C      1  0.4466040000000  0.4756160000000  0.4669310000000 1.0
C      1  0.5533950000000  0.5243890000000  0.4669330000000 1.0
C      1  0.4466040000000  0.5243810000000  0.5330710000000 1.0
C      1  0.4669330000000  0.4466050000000  0.4756120000000 1.0
C      1  0.5330660000000  0.5533990000000  0.4756190000000 1.0
C      1  0.4669310000000  0.5533930000000  0.5243890000000 1.0
C      1  0.4756150000000  0.4669350000000  0.4466020000000 1.0
C      1  0.5243830000000  0.5330730000000  0.4466060000000 1.0
C      1  0.4756150000000  0.5330630000000  0.5533990000000 1.0
C      1  0.4447620000000  0.4866970000000  0.4761910000000 1.0
C      1  0.4761930000000  0.4447630000000  0.4866930000000 1.0
C      1  0.4866970000000  0.4761950000000  0.4447610000000 1.0
C      1  0.5552380000000  0.4866960000000  0.5238070000000 1.0
C      1  0.4447620000000  0.5133000000000  0.5238100000000 1.0
C      1  0.5552370000000  0.5133070000000  0.4761920000000 1.0
C      1  0.5238100000000  0.4447620000000  0.5132990000000 1.0
C      1  0.4761900000000  0.5552360000000  0.5133080000000 1.0
C      1  0.5238070000000  0.5552390000000  0.4867010000000 1.0
C      1  0.5133050000000  0.4761880000000  0.5552360000000 1.0
C      1  0.4866970000000  0.5238040000000  0.5552400000000 1.0
C      1  0.5133020000000  0.5238130000000  0.4447640000000 1.0
C      1  0.4447620000000  0.5133040000000  0.4761930000000 1.0
C      1  0.4761900000000  0.5552380000000  0.4867010000000 1.0
C      1  0.4866950000000  0.5238120000000  0.4447640000000 1.0
C      1  0.5552380000000  0.5133030000000  0.5238090000000 1.0
C      1  0.4447630000000  0.4866930000000  0.5238080000000 1.0
C      1  0.5552380000000  0.4867000000000  0.4761900000000 1.0
C      1  0.5238070000000  0.5552370000000  0.5133070000000 1.0
C      1  0.4761930000000  0.4447610000000  0.5132990000000 1.0
C      1  0.5238100000000  0.4447640000000  0.4866920000000 1.0
C      1  0.5133030000000  0.5238040000000  0.5552390000000 1.0
C      1  0.4866980000000  0.4761870000000  0.5552360000000 1.0
C      1  0.5133030000000  0.4761960000000  0.4447600000000 1.0
C      1  0.5238770000000  0.4530920000000  0.4662900000000 1.0
C      1  0.4662930000000  0.5238790000000  0.4530910000000 1.0
C      1  0.4530900000000  0.4662910000000  0.5238740000000 1.0
C      1  0.4761250000000  0.4530860000000  0.5337030000000 1.0
C      1  0.5238750000000  0.5469090000000  0.5337090000000 1.0
C      1  0.4761220000000  0.5469130000000  0.4662980000000 1.0
C      1  0.5337060000000  0.5238740000000  0.5469120000000 1.0
C      1  0.4662950000000  0.4761190000000  0.5469090000000 1.0
C      1  0.5337060000000  0.4761280000000  0.4530870000000 1.0
C      1  0.5469120000000  0.4662970000000  0.4761200000000 1.0
C      1  0.4530880000000  0.5337060000000  0.4761270000000 1.0
C      1  0.5469100000000  0.5337050000000  0.5238780000000 1.0
C      1  0.5238750000000  0.5469140000000  0.4662970000000 1.0
C      1  0.4662940000000  0.4761260000000  0.4530880000000 1.0
C      1  0.4530880000000  0.5337030000000  0.5238800000000 1.0
C      1  0.4761230000000  0.5469080000000  0.5337100000000 1.0
C      1  0.5238780000000  0.4530870000000  0.5337020000000 1.0
C      1  0.4761250000000  0.4530910000000  0.4662910000000 1.0
C      1  0.5337070000000  0.4761210000000  0.5469090000000 1.0
C      1  0.4662940000000  0.5238720000000  0.5469130000000 1.0
C      1  0.5337050000000  0.5238810000000  0.4530910000000 1.0
C      1  0.5469100000000  0.5337090000000  0.4761260000000 1.0
C      1  0.4530900000000  0.4662950000000  0.4761220000000 1.0
C      1  0.5469120000000  0.4662940000000  0.5238730000000 1.0
C      1  0.5063940000000  0.4490710000000  0.4502870000000 1.0
C      1  0.4502900000000  0.5063960000000  0.4490680000000 1.0
C      1  0.4490680000000  0.4502890000000  0.5063900000000 1.0
C      1  0.4936080000000  0.4490630000000  0.5497050000000 1.0
C      1  0.5063930000000  0.5509290000000  0.5497130000000 1.0
C      1  0.4936040000000  0.5509370000000  0.4502950000000 1.0
C      1  0.5497100000000  0.5063910000000  0.5509330000000 1.0
C      1  0.4502920000000  0.4936010000000  0.5509330000000 1.0
C      1  0.5497090000000  0.4936120000000  0.4490660000000 1.0
C      1  0.5509340000000  0.4502930000000  0.4936020000000 1.0
C      1  0.4490650000000  0.5497080000000  0.4936110000000 1.0
C      1  0.5509320000000  0.5497100000000  0.5063970000000 1.0
C      1  0.5063920000000  0.5509370000000  0.4502950000000 1.0
C      1  0.4502900000000  0.4936090000000  0.4490670000000 1.0
C      1  0.4490650000000  0.5497070000000  0.5063980000000 1.0
C      1  0.4936060000000  0.5509290000000  0.5497130000000 1.0
C      1  0.5063960000000  0.4490630000000  0.5497050000000 1.0
C      1  0.4936070000000  0.4490710000000  0.4502870000000 1.0
C      1  0.5497100000000  0.4936040000000  0.5509320000000 1.0
C      1  0.4502910000000  0.5063880000000  0.5509340000000 1.0
C      1  0.5497080000000  0.5063990000000  0.4490670000000 1.0
C      1  0.5509320000000  0.5497110000000  0.4936100000000 1.0
C      1  0.4490680000000  0.4502900000000  0.4936030000000 1.0
C      1  0.5509350000000  0.4502920000000  0.5063890000000 1.0
C      1  0.5458900000000  0.4525270000000  0.5197990000000 1.0
C      1  0.5198020000000  0.5458930000000  0.4525310000000 1.0
C      1  0.4525270000000  0.5197990000000  0.5458910000000 1.0
C      1  0.4541120000000  0.4525270000000  0.4801930000000 1.0
C      1  0.5458870000000  0.5474760000000  0.4801990000000 1.0
C      1  0.4541100000000  0.5474700000000  0.5198080000000 1.0
C      1  0.4801960000000  0.5458840000000  0.5474770000000 1.0
C      1  0.5198060000000  0.4541080000000  0.5474690000000 1.0
C      1  0.4801970000000  0.4541150000000  0.4525240000000 1.0
C      1  0.5474720000000  0.5198090000000  0.4541120000000 1.0
C      1  0.4525270000000  0.4801990000000  0.4541100000000 1.0
C      1  0.5474740000000  0.4801940000000  0.5458860000000 1.0
C      1  0.5458880000000  0.5474730000000  0.5198070000000 1.0
C      1  0.5198040000000  0.4541160000000  0.4525230000000 1.0
C      1  0.4525280000000  0.4801910000000  0.5458880000000 1.0
C      1  0.4541100000000  0.5474730000000  0.4802010000000 1.0
C      1  0.5458900000000  0.4525300000000  0.4801920000000 1.0
C      1  0.4541130000000  0.4525240000000  0.5198010000000 1.0
C      1  0.4801980000000  0.4541070000000  0.5474690000000 1.0
C      1  0.5198030000000  0.5458850000000  0.5474760000000 1.0
C      1  0.4801940000000  0.5458920000000  0.4525310000000 1.0
C      1  0.5474730000000  0.4802010000000  0.4541090000000 1.0
C      1  0.4525260000000  0.5198060000000  0.4541140000000 1.0
C      1  0.5474730000000  0.5198010000000  0.5458900000000 1.0
C      1  0.5068060000000  0.4715390000000  0.5312490000000 1.0
C      1  0.5312510000000  0.5068080000000  0.4715410000000 1.0
C      1  0.4715410000000  0.5312500000000  0.5068080000000 1.0
C      1  0.4931960000000  0.4715440000000  0.4687470000000 1.0
C      1  0.5068040000000  0.5284610000000  0.4687510000000 1.0
C      1  0.4931950000000  0.5284560000000  0.5312540000000 1.0
C      1  0.4687490000000  0.5068020000000  0.5284600000000 1.0
C      1  0.5312520000000  0.4931940000000  0.5284580000000 1.0
C      1  0.4687490000000  0.4931970000000  0.4715410000000 1.0
C      1  0.5284580000000  0.5312530000000  0.4931970000000 1.0
C      1  0.4715420000000  0.4687480000000  0.4931930000000 1.0
C      1  0.5284600000000  0.4687490000000  0.5068020000000 1.0
C      1  0.5068040000000  0.5284560000000  0.5312530000000 1.0
C      1  0.5312510000000  0.4931980000000  0.4715400000000 1.0
C      1  0.4715420000000  0.4687470000000  0.5068030000000 1.0
C      1  0.4931940000000  0.5284610000000  0.4687510000000 1.0
C      1  0.5068050000000  0.4715440000000  0.4687460000000 1.0
C      1  0.4931960000000  0.4715390000000  0.5312490000000 1.0
C      1  0.4687490000000  0.4931920000000  0.5284590000000 1.0
C      1  0.5312510000000  0.5068030000000  0.5284590000000 1.0
C      1  0.4687480000000  0.5068060000000  0.4715420000000 1.0
C      1  0.5284590000000  0.4687500000000  0.4931920000000 1.0
C      1  0.4715400000000  0.5312510000000  0.4931980000000 1.0
C      1  0.5284580000000  0.5312520000000  0.5068070000000 1.0
C      1  0.4276360000000  0.4857850000000  0.5062100000000 1.0
C      1  0.5062120000000  0.4276370000000  0.4857820000000 1.0
C      1  0.4857860000000  0.5062150000000  0.4276370000000 1.0
C      1  0.5723640000000  0.4857900000000  0.4937880000000 1.0
C      1  0.4276360000000  0.5142110000000  0.4937920000000 1.0
C      1  0.5723640000000  0.5142140000000  0.5062100000000 1.0
C      1  0.4937920000000  0.4276350000000  0.5142070000000 1.0
C      1  0.5062080000000  0.5723630000000  0.5142180000000 1.0
C      1  0.4937880000000  0.5723650000000  0.4857930000000 1.0
C      1  0.5142140000000  0.5062050000000  0.5723640000000 1.0
C      1  0.4857880000000  0.4937840000000  0.5723640000000 1.0
C      1  0.5142120000000  0.4937960000000  0.4276350000000 1.0
C      1  0.4276360000000  0.5142100000000  0.5062120000000 1.0
C      1  0.5062080000000  0.5723650000000  0.4857930000000 1.0
C      1  0.4857860000000  0.4937950000000  0.4276360000000 1.0
C      1  0.5723640000000  0.5142150000000  0.4937900000000 1.0
C      1  0.4276360000000  0.4857860000000  0.4937900000000 1.0
C      1  0.5723650000000  0.4857890000000  0.5062080000000 1.0
C      1  0.4937880000000  0.5723630000000  0.5142190000000 1.0
C      1  0.5062120000000  0.4276350000000  0.5142070000000 1.0
C      1  0.4937920000000  0.4276370000000  0.4857820000000 1.0
C      1  0.5142140000000  0.4937850000000  0.5723630000000 1.0
C      1  0.4857880000000  0.5062040000000  0.5723650000000 1.0
C      1  0.5142120000000  0.5062160000000  0.4276360000000 1.0
END
