TITL C-102688-8074-180 2.29947830576457 1000000 -1655.85587717399 0 0 240 (C1) n - 1
REM
REM in /home/chem/mssmkc/work/GAP20/Larger-Clusters/Only-C240-new-series
REM
REM
REM
REM
REM
REM ./C.cell (0485df7495ed2a90f93db84a705cd676)
REM
REM compiler GCC version 8.3.0
REM options -cpp -mtune=generic -march=x86-64 -g -O0
REM seed 1801160269 106079809 1507044930 -826423233 1001245813 -741400001 1847495052 1440056787 -1505521556 1670230397 1512686625 1725695345 -2058374206 -761394957 1395543268 323220410 2059391570 -115991271 -782049831 -1516359508 2144616907 -2035026782 120016080 -1213566461 1602549461 1677720710 1765248732 -1098864152 -2005955399 -1140339863 -1452046535 -1000222020 1172026978
REM
CELL 1.54180  100.00000  100.00000  100.00000   90.00000   90.00000   90.00000
LATT -1
SFAC C  
C      1  0.4629820000000  0.5445810000000  0.4803020000000 1.0
C      1  0.5468270000000  0.4793160000000  0.4640680000000 1.0
C      1  0.4829080000000  0.4612980000000  0.5486370000000 1.0
C      1  0.4687880000000  0.4536670000000  0.5171180000000 1.0
C      1  0.5327060000000  0.5470910000000  0.5152570000000 1.0
C      1  0.5379800000000  0.4565560000000  0.4845270000000 1.0
C      1  0.5336930000000  0.5158170000000  0.5356890000000 1.0
C      1  0.4611870000000  0.4818550000000  0.5394030000000 1.0
C      1  0.4593630000000  0.5154970000000  0.4600140000000 1.0
C      1  0.4812890000000  0.5359770000000  0.4532420000000 1.0
C      1  0.5160030000000  0.4612180000000  0.4574120000000 1.0
C      1  0.5168200000000  0.5394600000000  0.5450260000000 1.0
C      1  0.5370260000000  0.5462790000000  0.4803930000000 1.0
C      1  0.4538940000000  0.4862830000000  0.4680960000000 1.0
C      1  0.5182830000000  0.4608400000000  0.5472270000000 1.0
C      1  0.5329500000000  0.4534930000000  0.5157760000000 1.0
C      1  0.4657950000000  0.5447990000000  0.5145080000000 1.0
C      1  0.4622760000000  0.4576670000000  0.4850170000000 1.0
C      1  0.4618200000000  0.5126830000000  0.5332280000000 1.0
C      1  0.5363170000000  0.4832970000000  0.5359470000000 1.0
C      1  0.5444530000000  0.5136050000000  0.4665750000000 1.0
C      1  0.5151640000000  0.5346500000000  0.4599880000000 1.0
C      1  0.4830930000000  0.4651490000000  0.4605950000000 1.0
C      1  0.4837660000000  0.5363950000000  0.5419950000000 1.0
C      1  0.4410910000000  0.5370450000000  0.5359100000000 1.0
C      1  0.5394250000000  0.5339000000000  0.4415660000000 1.0
C      1  0.5441830000000  0.4327680000000  0.5366840000000 1.0
C      1  0.4300300000000  0.4681720000000  0.4682720000000 1.0
C      1  0.5658060000000  0.5390150000000  0.4588330000000 1.0
C      1  0.5580990000000  0.4636410000000  0.5311050000000 1.0
C      1  0.5369260000000  0.4500070000000  0.5670920000000 1.0
C      1  0.4627240000000  0.5289270000000  0.5606520000000 1.0
C      1  0.4628960000000  0.4667180000000  0.4426550000000 1.0
C      1  0.5484410000000  0.5656620000000  0.4622800000000 1.0
C      1  0.4498770000000  0.4392380000000  0.4618450000000 1.0
C      1  0.4529260000000  0.5653640000000  0.5360200000000 1.0
C      1  0.5547290000000  0.5400860000000  0.5404460000000 1.0
C      1  0.4708540000000  0.5454610000000  0.4302680000000 1.0
C      1  0.4586970000000  0.4311220000000  0.5388520000000 1.0
C      1  0.5696320000000  0.4632770000000  0.4523310000000 1.0
C      1  0.4432500000000  0.5446710000000  0.4550900000000 1.0
C      1  0.4418810000000  0.4596360000000  0.5342790000000 1.0
C      1  0.4663950000000  0.4494940000000  0.5688820000000 1.0
C      1  0.5339510000000  0.5507140000000  0.5651990000000 1.0
C      1  0.5401880000000  0.4681750000000  0.4321810000000 1.0
C      1  0.4603800000000  0.5694040000000  0.4559550000000 1.0
C      1  0.5456020000000  0.4398980000000  0.4597070000000 1.0
C      1  0.5363330000000  0.5739260000000  0.5384430000000 1.0
C      1  0.4619240000000  0.5643410000000  0.5255440000000 1.0
C      1  0.5629760000000  0.5270060000000  0.4639810000000 1.0
C      1  0.5294940000000  0.4619160000000  0.5667130000000 1.0
C      1  0.4589850000000  0.4391750000000  0.4715350000000 1.0
C      1  0.5366900000000  0.5655750000000  0.4693720000000 1.0
C      1  0.5350600000000  0.4331740000000  0.5269780000000 1.0
C      1  0.5579530000000  0.4737930000000  0.5215880000000 1.0
C      1  0.4432130000000  0.5261420000000  0.5288640000000 1.0
C      1  0.4336380000000  0.4791910000000  0.4758410000000 1.0
C      1  0.5290100000000  0.5254280000000  0.4442860000000 1.0
C      1  0.4716570000000  0.4773510000000  0.4399330000000 1.0
C      1  0.4735790000000  0.5203350000000  0.5624640000000 1.0
C      1  0.5334440000000  0.5675730000000  0.5262040000000 1.0
C      1  0.4444800000000  0.5329730000000  0.4615430000000 1.0
C      1  0.4732700000000  0.4617130000000  0.5689780000000 1.0
C      1  0.5369910000000  0.4390370000000  0.4704580000000 1.0
C      1  0.4620480000000  0.5643290000000  0.4683270000000 1.0
C      1  0.4661260000000  0.4333780000000  0.5279160000000 1.0
C      1  0.4407990000000  0.4697940000000  0.5250570000000 1.0
C      1  0.5511320000000  0.5295830000000  0.5322820000000 1.0
C      1  0.5675840000000  0.4701270000000  0.4638260000000 1.0
C      1  0.4747810000000  0.5323170000000  0.4318370000000 1.0
C      1  0.5278390000000  0.4680790000000  0.4386260000000 1.0
C      1  0.5277420000000  0.5388280000000  0.5648720000000 1.0
C      1  0.4662910000000  0.5502850000000  0.4675840000000 1.0
C      1  0.5540980000000  0.4687380000000  0.4704650000000 1.0
C      1  0.4723720000000  0.4688200000000  0.5558290000000 1.0
C      1  0.4728880000000  0.4466810000000  0.5286960000000 1.0
C      1  0.5283170000000  0.5541050000000  0.5267740000000 1.0
C      1  0.5304060000000  0.4521250000000  0.4730860000000 1.0
C      1  0.5364390000000  0.5283370000000  0.5289370000000 1.0
C      1  0.4647950000000  0.4719310000000  0.5313200000000 1.0
C      1  0.4581780000000  0.5285220000000  0.4659040000000 1.0
C      1  0.4710900000000  0.5282820000000  0.4456030000000 1.0
C      1  0.5286020000000  0.4663420000000  0.4530700000000 1.0
C      1  0.5280150000000  0.5320560000000  0.5513580000000 1.0
C      1  0.5295390000000  0.5524480000000  0.4695230000000 1.0
C      1  0.4484540000000  0.4779640000000  0.4779610000000 1.0
C      1  0.5292320000000  0.4685400000000  0.5533190000000 1.0
C      1  0.5281840000000  0.4468090000000  0.5273040000000 1.0
C      1  0.4698760000000  0.5520730000000  0.5261540000000 1.0
C      1  0.4669530000000  0.4524310000000  0.4723200000000 1.0
C      1  0.4582160000000  0.5247880000000  0.5267010000000 1.0
C      1  0.5340810000000  0.4730610000000  0.5277600000000 1.0
C      1  0.5499890000000  0.5258380000000  0.4705330000000 1.0
C      1  0.5261880000000  0.5257650000000  0.4592040000000 1.0
C      1  0.4737370000000  0.4736960000000  0.4651090000000 1.0
C      1  0.4800020000000  0.5244450000000  0.5381840000000 1.0
C      1  0.4230500000000  0.5036340000000  0.4730460000000 1.0
C      1  0.4945100000000  0.4803780000000  0.4285100000000 1.0
C      1  0.4587110000000  0.4222220000000  0.4922700000000 1.0
C      1  0.4276560000000  0.5050290000000  0.5258320000000 1.0
C      1  0.5674930000000  0.4977830000000  0.5212180000000 1.0
C      1  0.5789400000000  0.5063490000000  0.4607070000000 1.0
C      1  0.4955340000000  0.5238800000000  0.5754560000000 1.0
C      1  0.5084540000000  0.4625190000000  0.5825300000000 1.0
C      1  0.5095710000000  0.5174410000000  0.4286090000000 1.0
C      1  0.4582420000000  0.5782550000000  0.5032720000000 1.0
C      1  0.5382750000000  0.4202030000000  0.5035530000000 1.0
C      1  0.5376060000000  0.5807020000000  0.4913420000000 1.0
C      1  0.5799010000000  0.4935910000000  0.4615510000000 1.0
C      1  0.5069970000000  0.4783670000000  0.4270850000000 1.0
C      1  0.5384670000000  0.4212720000000  0.4907280000000 1.0
C      1  0.5669540000000  0.5103160000000  0.5235740000000 1.0
C      1  0.4284120000000  0.4923480000000  0.5245340000000 1.0
C      1  0.4255060000000  0.5159830000000  0.4700070000000 1.0
C      1  0.5071270000000  0.5287240000000  0.5775980000000 1.0
C      1  0.4956300000000  0.4624290000000  0.5830650000000 1.0
C      1  0.4971270000000  0.5194730000000  0.4258760000000 1.0
C      1  0.5376090000000  0.5810450000000  0.5041390000000 1.0
C      1  0.4600290000000  0.4209970000000  0.5049380000000 1.0
C      1  0.4583940000000  0.5784660000000  0.4904840000000 1.0
C      1  0.5560030000000  0.4904540000000  0.4630630000000 1.0
C      1  0.4939720000000  0.4616150000000  0.5586030000000 1.0
C      1  0.4615050000000  0.5544790000000  0.4900980000000 1.0
C      1  0.5446060000000  0.5071730000000  0.5319940000000 1.0
C      1  0.4499870000000  0.4902340000000  0.5347140000000 1.0
C      1  0.4469610000000  0.5095910000000  0.4620920000000 1.0
C      1  0.4933060000000  0.5324160000000  0.4457910000000 1.0
C      1  0.5062060000000  0.4656270000000  0.4481530000000 1.0
C      1  0.5062760000000  0.5371240000000  0.5550540000000 1.0
C      1  0.4646830000000  0.4442740000000  0.5072140000000 1.0
C      1  0.5361360000000  0.5567670000000  0.5051600000000 1.0
C      1  0.5372450000000  0.4449750000000  0.4927130000000 1.0
C      1  0.4441400000000  0.4963280000000  0.4648110000000 1.0
C      1  0.5080720000000  0.4616380000000  0.5580180000000 1.0
C      1  0.5372010000000  0.5564080000000  0.4910290000000 1.0
C      1  0.4504070000000  0.5043450000000  0.5340340000000 1.0
C      1  0.5461600000000  0.4931650000000  0.5311310000000 1.0
C      1  0.5548640000000  0.5046620000000  0.4632380000000 1.0
C      1  0.5067380000000  0.5306500000000  0.4489020000000 1.0
C      1  0.4920650000000  0.4677540000000  0.4490510000000 1.0
C      1  0.4923790000000  0.5344120000000  0.5542500000000 1.0
C      1  0.5366370000000  0.4436080000000  0.5063640000000 1.0
C      1  0.4620960000000  0.5544470000000  0.5042640000000 1.0
C      1  0.4628030000000  0.4458600000000  0.4935050000000 1.0
C      1  0.5255850000000  0.5063170000000  0.5567520000000 1.0
C      1  0.5050220000000  0.5563250000000  0.5343460000000 1.0
C      1  0.5375990000000  0.5259310000000  0.5043420000000 1.0
C      1  0.5253510000000  0.4891820000000  0.4603640000000 1.0
C      1  0.4721710000000  0.5022040000000  0.4449530000000 1.0
C      1  0.4725980000000  0.4944940000000  0.5574430000000 1.0
C      1  0.5048740000000  0.4484730000000  0.4750650000000 1.0
C      1  0.4914340000000  0.5530940000000  0.4658130000000 1.0
C      1  0.4943260000000  0.4434590000000  0.5381510000000 1.0
C      1  0.5524930000000  0.4713960000000  0.4963540000000 1.0
C      1  0.4605960000000  0.5225510000000  0.4908820000000 1.0
C      1  0.4497300000000  0.4686270000000  0.5133310000000 1.0
C      1  0.4737200000000  0.5075700000000  0.5547080000000 1.0
C      1  0.4927160000000  0.5563480000000  0.5340910000000 1.0
C      1  0.4614270000000  0.5237000000000  0.5032020000000 1.0
C      1  0.4692150000000  0.4892920000000  0.4477710000000 1.0
C      1  0.5243870000000  0.5014310000000  0.4613930000000 1.0
C      1  0.5271050000000  0.4938630000000  0.5563190000000 1.0
C      1  0.4923830000000  0.4476880000000  0.4746420000000 1.0
C      1  0.5036900000000  0.5540800000000  0.4666000000000 1.0
C      1  0.5065620000000  0.4431740000000  0.5375310000000 1.0
C      1  0.4480930000000  0.4702020000000  0.5003330000000 1.0
C      1  0.5403870000000  0.5264910000000  0.4923970000000 1.0
C      1  0.5497300000000  0.4708780000000  0.5094860000000 1.0
C      1  0.4688790000000  0.4823520000000  0.5522440000000 1.0
C      1  0.4794260000000  0.5466320000000  0.4620170000000 1.0
C      1  0.5492980000000  0.4655590000000  0.4841520000000 1.0
C      1  0.4684030000000  0.5146220000000  0.4494580000000 1.0
C      1  0.5333780000000  0.4777980000000  0.4604250000000 1.0
C      1  0.5285260000000  0.5177890000000  0.5488330000000 1.0
C      1  0.4820880000000  0.4509090000000  0.5388220000000 1.0
C      1  0.5176510000000  0.5499780000000  0.5356960000000 1.0
C      1  0.5164760000000  0.4541840000000  0.4695360000000 1.0
C      1  0.5337570000000  0.5328980000000  0.5156630000000 1.0
C      1  0.4632660000000  0.4664070000000  0.5191040000000 1.0
C      1  0.4612760000000  0.5307180000000  0.4795910000000 1.0
C      1  0.5308590000000  0.4822190000000  0.5496110000000 1.0
C      1  0.5164230000000  0.5478290000000  0.4655010000000 1.0
C      1  0.4539950000000  0.4690590000000  0.4876840000000 1.0
C      1  0.5303260000000  0.5134230000000  0.4646250000000 1.0
C      1  0.4662010000000  0.4843450000000  0.4617410000000 1.0
C      1  0.4737990000000  0.5126870000000  0.5406680000000 1.0
C      1  0.5186690000000  0.4507610000000  0.5371560000000 1.0
C      1  0.4805900000000  0.5490990000000  0.5350970000000 1.0
C      1  0.4810740000000  0.4532510000000  0.4687110000000 1.0
C      1  0.4637440000000  0.5307960000000  0.5151350000000 1.0
C      1  0.5366080000000  0.4671010000000  0.5158030000000 1.0
C      1  0.5432860000000  0.5334920000000  0.4805720000000 1.0
C      1  0.4633240000000  0.4313410000000  0.5135000000000 1.0
C      1  0.4372280000000  0.5204830000000  0.4642440000000 1.0
C      1  0.5138780000000  0.4705510000000  0.4363720000000 1.0
C      1  0.4603130000000  0.5673420000000  0.4826850000000 1.0
C      1  0.5378020000000  0.4333790000000  0.4838700000000 1.0
C      1  0.5362680000000  0.5699930000000  0.5121260000000 1.0
C      1  0.4385520000000  0.4835240000000  0.5285890000000 1.0
C      1  0.5557360000000  0.5164490000000  0.5292400000000 1.0
C      1  0.5693640000000  0.4849560000000  0.4632370000000 1.0
C      1  0.5136240000000  0.5354770000000  0.5674900000000 1.0
C      1  0.4877110000000  0.4621540000000  0.5717580000000 1.0
C      1  0.4887810000000  0.5280250000000  0.4326550000000 1.0
C      1  0.5370520000000  0.4305810000000  0.5125290000000 1.0
C      1  0.5670410000000  0.5129430000000  0.4619830000000 1.0
C      1  0.4857430000000  0.4748690000000  0.4380000000000 1.0
C      1  0.5371630000000  0.5691650000000  0.4839240000000 1.0
C      1  0.4601180000000  0.4342390000000  0.4853320000000 1.0
C      1  0.4603050000000  0.5672290000000  0.5111670000000 1.0
C      1  0.5580580000000  0.4877950000000  0.5247430000000 1.0
C      1  0.4388330000000  0.5122300000000  0.5297850000000 1.0
C      1  0.4315610000000  0.4930020000000  0.4711770000000 1.0
C      1  0.4866470000000  0.5260790000000  0.5647630000000 1.0
C      1  0.5154480000000  0.4624850000000  0.5705910000000 1.0
C      1  0.5157790000000  0.5241390000000  0.4392280000000 1.0
C      1  0.5552070000000  0.4540370000000  0.5384000000000 1.0
C      1  0.4546920000000  0.5368390000000  0.5554080000000 1.0
C      1  0.5578510000000  0.5621450000000  0.4545760000000 1.0
C      1  0.5585390000000  0.5481090000000  0.4513870000000 1.0
C      1  0.4352320000000  0.4585630000000  0.4622060000000 1.0
C      1  0.4460140000000  0.5440770000000  0.5466770000000 1.0
C      1  0.4544520000000  0.4594610000000  0.4480520000000 1.0
C      1  0.5485840000000  0.5421000000000  0.4433460000000 1.0
C      1  0.5435740000000  0.4445000000000  0.5578750000000 1.0
C      1  0.5488060000000  0.4430140000000  0.5450070000000 1.0
C      1  0.4475420000000  0.5581100000000  0.5447730000000 1.0
C      1  0.4456660000000  0.4516190000000  0.4560880000000 1.0
C      1  0.4463020000000  0.4510270000000  0.5419830000000 1.0
C      1  0.5421790000000  0.5571230000000  0.5557920000000 1.0
C      1  0.4569060000000  0.5606890000000  0.4455370000000 1.0
C      1  0.4439280000000  0.5548730000000  0.4475790000000 1.0
C      1  0.5587170000000  0.4574640000000  0.4455670000000 1.0
C      1  0.5517700000000  0.5493480000000  0.5483750000000 1.0
C      1  0.5518410000000  0.4648110000000  0.4355820000000 1.0
C      1  0.4649300000000  0.5553250000000  0.4353480000000 1.0
C      1  0.4597280000000  0.4427410000000  0.5606670000000 1.0
C      1  0.4539890000000  0.4406090000000  0.5480360000000 1.0
C      1  0.5391000000000  0.5698100000000  0.5500490000000 1.0
C      1  0.5522310000000  0.4460530000000  0.4511120000000 1.0
END
