TITL C-102688-8074-19 0.00797157694053865 1000000 -1762.41837268093 0 0 240 (Th) n - 1
REM
REM in /home/chem/mssmkc/work/GAP20/Larger-Clusters/Only-C240-new-series
REM
REM
REM
REM
REM
REM ./C.cell (0485df7495ed2a90f93db84a705cd676)
REM
REM compiler GCC version 8.3.0
REM options -cpp -mtune=generic -march=x86-64 -g -O0
REM seed 1398774959 -1347056355 50490159 -968321353 709022152 -1831697195 -1321220369 768580002 664975353 -482329355 719408886 1074121423 175281307 -272202896 553303504 1574348118 -158715612 -1689835134 1447703805 -1815800201 2146125500 -851781573 -646407565 -510137035 -1182804624 148490099 -1196866699 223431389 1124367296 2129198068 -2023855683 -646164618 -1591023964
REM
CELL 1.54180  100.00000  100.00000  100.00000   90.00000   90.00000   90.00000
LATT -1
SFAC C  
C      1  0.5626180000000  0.4694630000000  0.4928620000000 1.0
C      1  0.4928540000000  0.5626120000000  0.4694540000000 1.0
C      1  0.4694580000000  0.4928610000000  0.5626150000000 1.0
C      1  0.5626160000000  0.5305370000000  0.5071510000000 1.0
C      1  0.4373840000000  0.5305350000000  0.4928400000000 1.0
C      1  0.4373820000000  0.4694650000000  0.5071480000000 1.0
C      1  0.4928480000000  0.4373880000000  0.5305450000000 1.0
C      1  0.5071520000000  0.4373780000000  0.4694750000000 1.0
C      1  0.5071460000000  0.5626220000000  0.5305270000000 1.0
C      1  0.4694700000000  0.5071390000000  0.4373790000000 1.0
C      1  0.5305300000000  0.5071590000000  0.5626190000000 1.0
C      1  0.5305420000000  0.4928410000000  0.4373870000000 1.0
C      1  0.4373840000000  0.4694630000000  0.4928490000000 1.0
C      1  0.5071520000000  0.5626120000000  0.4694550000000 1.0
C      1  0.5305300000000  0.4928610000000  0.5626210000000 1.0
C      1  0.4373820000000  0.5305370000000  0.5071380000000 1.0
C      1  0.5626180000000  0.5305350000000  0.4928520000000 1.0
C      1  0.5626160000000  0.4694650000000  0.5071600000000 1.0
C      1  0.5071460000000  0.4373880000000  0.5305460000000 1.0
C      1  0.4928540000000  0.4373780000000  0.4694730000000 1.0
C      1  0.4928480000000  0.5626220000000  0.5305250000000 1.0
C      1  0.5305420000000  0.5071390000000  0.4373850000000 1.0
C      1  0.4694580000000  0.5071590000000  0.5626130000000 1.0
C      1  0.4694700000000  0.4928410000000  0.4373810000000 1.0
C      1  0.4849870000000  0.4352090000000  0.4816000000000 1.0
C      1  0.4815970000000  0.4849750000000  0.4352130000000 1.0
C      1  0.4352140000000  0.4815890000000  0.4849820000000 1.0
C      1  0.4849830000000  0.5647910000000  0.5183980000000 1.0
C      1  0.5150170000000  0.5647850000000  0.4815820000000 1.0
C      1  0.5150130000000  0.4352150000000  0.5184210000000 1.0
C      1  0.4815850000000  0.5150250000000  0.5647840000000 1.0
C      1  0.5184150000000  0.5150050000000  0.4352120000000 1.0
C      1  0.5184030000000  0.4849950000000  0.5647920000000 1.0
C      1  0.4352110000000  0.5184120000000  0.5150060000000 1.0
C      1  0.5647890000000  0.5184070000000  0.4849880000000 1.0
C      1  0.5647860000000  0.4815930000000  0.5150240000000 1.0
C      1  0.5150170000000  0.4352090000000  0.4816020000000 1.0
C      1  0.5184150000000  0.4849750000000  0.4352160000000 1.0
C      1  0.5647890000000  0.4815880000000  0.4849940000000 1.0
C      1  0.5150130000000  0.5647910000000  0.5184000000000 1.0
C      1  0.4849870000000  0.5647850000000  0.4815790000000 1.0
C      1  0.4849830000000  0.4352150000000  0.5184180000000 1.0
C      1  0.5184030000000  0.5150250000000  0.5647870000000 1.0
C      1  0.4815970000000  0.5150050000000  0.4352080000000 1.0
C      1  0.4815850000000  0.4849950000000  0.5647880000000 1.0
C      1  0.5647860000000  0.5184110000000  0.5150180000000 1.0
C      1  0.4352140000000  0.5184070000000  0.4849760000000 1.0
C      1  0.4352110000000  0.4815930000000  0.5150120000000 1.0
C      1  0.5383500000000  0.4412030000000  0.4929360000000 1.0
C      1  0.4929290000000  0.5383400000000  0.4411970000000 1.0
C      1  0.4412000000000  0.4929290000000  0.5383450000000 1.0
C      1  0.5383490000000  0.5587970000000  0.5070710000000 1.0
C      1  0.4616520000000  0.5587950000000  0.4929100000000 1.0
C      1  0.4616500000000  0.4412050000000  0.5070820000000 1.0
C      1  0.4929180000000  0.4616600000000  0.5588020000000 1.0
C      1  0.5070820000000  0.4616420000000  0.4412100000000 1.0
C      1  0.5070710000000  0.5383580000000  0.5587910000000 1.0
C      1  0.4412070000000  0.5070710000000  0.4616440000000 1.0
C      1  0.5587930000000  0.5070830000000  0.5383540000000 1.0
C      1  0.5588000000000  0.4929170000000  0.4616580000000 1.0
C      1  0.4616510000000  0.4412030000000  0.4929290000000 1.0
C      1  0.5070820000000  0.5383400000000  0.4411980000000 1.0
C      1  0.5587930000000  0.4929290000000  0.5383560000000 1.0
C      1  0.4616500000000  0.5587970000000  0.5070640000000 1.0
C      1  0.5383500000000  0.5587950000000  0.4929180000000 1.0
C      1  0.5383480000000  0.4412050000000  0.5070900000000 1.0
C      1  0.5070710000000  0.4616600000000  0.5588030000000 1.0
C      1  0.4929290000000  0.4616420000000  0.4412090000000 1.0
C      1  0.4929180000000  0.5383580000000  0.5587900000000 1.0
C      1  0.5588000000000  0.5070710000000  0.4616550000000 1.0
C      1  0.4412000000000  0.5070830000000  0.5383420000000 1.0
C      1  0.4412070000000  0.4929170000000  0.4616460000000 1.0
C      1  0.5586850000000  0.4695210000000  0.5359380000000 1.0
C      1  0.5359300000000  0.5586840000000  0.4695100000000 1.0
C      1  0.4695100000000  0.5359360000000  0.5586800000000 1.0
C      1  0.5586920000000  0.5304790000000  0.4640740000000 1.0
C      1  0.4413080000000  0.5304900000000  0.5359170000000 1.0
C      1  0.4413150000000  0.4695100000000  0.4640720000000 1.0
C      1  0.5359240000000  0.4413160000000  0.5304970000000 1.0
C      1  0.4640760000000  0.4413060000000  0.4695210000000 1.0
C      1  0.4640700000000  0.5586940000000  0.5304720000000 1.0
C      1  0.4695210000000  0.4640640000000  0.4413140000000 1.0
C      1  0.5304790000000  0.4640820000000  0.5586970000000 1.0
C      1  0.5304900000000  0.5359180000000  0.4413090000000 1.0
C      1  0.4413080000000  0.4695210000000  0.5359260000000 1.0
C      1  0.4640760000000  0.5586840000000  0.4695030000000 1.0
C      1  0.5304790000000  0.5359360000000  0.5586860000000 1.0
C      1  0.4413150000000  0.5304790000000  0.4640620000000 1.0
C      1  0.5586850000000  0.5304900000000  0.5359280000000 1.0
C      1  0.5586920000000  0.4695100000000  0.4640830000000 1.0
C      1  0.4640700000000  0.4413160000000  0.5304900000000 1.0
C      1  0.5359300000000  0.4413060000000  0.4695280000000 1.0
C      1  0.5359240000000  0.5586940000000  0.5304790000000 1.0
C      1  0.5304900000000  0.4640640000000  0.4413200000000 1.0
C      1  0.4695100000000  0.4640820000000  0.5586910000000 1.0
C      1  0.4695210000000  0.5359180000000  0.4413030000000 1.0
C      1  0.5679060000000  0.4927290000000  0.4927540000000 1.0
C      1  0.4927470000000  0.5679050000000  0.4927190000000 1.0
C      1  0.4927240000000  0.4927570000000  0.5679060000000 1.0
C      1  0.5679050000000  0.5072710000000  0.5072590000000 1.0
C      1  0.4320950000000  0.5072680000000  0.4927380000000 1.0
C      1  0.4320940000000  0.4927320000000  0.5072480000000 1.0
C      1  0.4927450000000  0.4320950000000  0.5072790000000 1.0
C      1  0.5072550000000  0.4320930000000  0.4927420000000 1.0
C      1  0.5072530000000  0.5679070000000  0.5072600000000 1.0
C      1  0.4927370000000  0.5072430000000  0.4320920000000 1.0
C      1  0.5072630000000  0.5072650000000  0.5679050000000 1.0
C      1  0.5072760000000  0.4927350000000  0.4320960000000 1.0
C      1  0.4320950000000  0.4927290000000  0.4927410000000 1.0
C      1  0.5072550000000  0.5679050000000  0.4927210000000 1.0
C      1  0.5072630000000  0.4927570000000  0.5679080000000 1.0
C      1  0.4320940000000  0.5072710000000  0.5072460000000 1.0
C      1  0.5679060000000  0.5072680000000  0.4927520000000 1.0
C      1  0.5679050000000  0.4927320000000  0.5072620000000 1.0
C      1  0.5072530000000  0.4320950000000  0.5072810000000 1.0
C      1  0.4927470000000  0.4320930000000  0.4927400000000 1.0
C      1  0.4927450000000  0.5679070000000  0.5072580000000 1.0
C      1  0.5072760000000  0.5072430000000  0.4320940000000 1.0
C      1  0.4927240000000  0.5072650000000  0.5679040000000 1.0
C      1  0.4927370000000  0.4927350000000  0.4320950000000 1.0
C      1  0.5537890000000  0.5133600000000  0.4498220000000 1.0
C      1  0.4498180000000  0.5537860000000  0.5133540000000 1.0
C      1  0.5133620000000  0.4498280000000  0.5537930000000 1.0
C      1  0.5537790000000  0.4866400000000  0.5501880000000 1.0
C      1  0.4462210000000  0.4866250000000  0.4498160000000 1.0
C      1  0.4462110000000  0.5133750000000  0.5501740000000 1.0
C      1  0.4498200000000  0.4462140000000  0.4866360000000 1.0
C      1  0.5501800000000  0.4462180000000  0.5133810000000 1.0
C      1  0.5501820000000  0.5537820000000  0.4866290000000 1.0
C      1  0.5133730000000  0.5501720000000  0.4462100000000 1.0
C      1  0.4866270000000  0.5501890000000  0.5537750000000 1.0
C      1  0.4866380000000  0.4498110000000  0.4462230000000 1.0
C      1  0.4462210000000  0.5133600000000  0.4498120000000 1.0
C      1  0.5501800000000  0.5537860000000  0.5133640000000 1.0
C      1  0.4866270000000  0.4498280000000  0.5537900000000 1.0
C      1  0.4462110000000  0.4866400000000  0.5501780000000 1.0
C      1  0.5537890000000  0.4866250000000  0.4498260000000 1.0
C      1  0.5537790000000  0.5133750000000  0.5501840000000 1.0
C      1  0.5501820000000  0.4462140000000  0.4866460000000 1.0
C      1  0.4498180000000  0.4462180000000  0.5133710000000 1.0
C      1  0.4498200000000  0.5537820000000  0.4866190000000 1.0
C      1  0.4866380000000  0.5501720000000  0.4462070000000 1.0
C      1  0.5133620000000  0.5501890000000  0.5537770000000 1.0
C      1  0.5133730000000  0.4498110000000  0.4462250000000 1.0
C      1  0.5488130000000  0.5539460000000  0.4722410000000 1.0
C      1  0.4722400000000  0.5488190000000  0.5539400000000 1.0
C      1  0.5539450000000  0.4722530000000  0.5488200000000 1.0
C      1  0.5488070000000  0.4460540000000  0.5277680000000 1.0
C      1  0.4511920000000  0.4460460000000  0.4722490000000 1.0
C      1  0.4511870000000  0.5539540000000  0.5277420000000 1.0
C      1  0.4722500000000  0.4511810000000  0.4460550000000 1.0
C      1  0.5277500000000  0.4511980000000  0.5539600000000 1.0
C      1  0.5277600000000  0.5488020000000  0.4460450000000 1.0
C      1  0.5539550000000  0.5277470000000  0.4511910000000 1.0
C      1  0.4460450000000  0.5277630000000  0.5488010000000 1.0
C      1  0.4460550000000  0.4722370000000  0.4511890000000 1.0
C      1  0.4511930000000  0.5539460000000  0.4722320000000 1.0
C      1  0.5277500000000  0.5488190000000  0.5539450000000 1.0
C      1  0.4460450000000  0.4722530000000  0.5488090000000 1.0
C      1  0.4511870000000  0.4460540000000  0.5277590000000 1.0
C      1  0.5488130000000  0.4460460000000  0.4722580000000 1.0
C      1  0.5488080000000  0.5539540000000  0.5277510000000 1.0
C      1  0.5277600000000  0.4511810000000  0.4460600000000 1.0
C      1  0.4722400000000  0.4511980000000  0.5539550000000 1.0
C      1  0.4722500000000  0.5488020000000  0.4460400000000 1.0
C      1  0.4460550000000  0.5277470000000  0.4511800000000 1.0
C      1  0.5539450000000  0.5277630000000  0.5488110000000 1.0
C      1  0.5539550000000  0.4722370000000  0.4511990000000 1.0
C      1  0.4857120000000  0.4414510000000  0.5419760000000 1.0
C      1  0.5419740000000  0.4857070000000  0.4414510000000 1.0
C      1  0.4414460000000  0.5419660000000  0.4857040000000 1.0
C      1  0.4857210000000  0.5585490000000  0.4580210000000 1.0
C      1  0.5142790000000  0.5585620000000  0.5419610000000 1.0
C      1  0.5142870000000  0.4414380000000  0.4580420000000 1.0
C      1  0.5419630000000  0.5142930000000  0.5585570000000 1.0
C      1  0.4580370000000  0.5142740000000  0.4414380000000 1.0
C      1  0.4580260000000  0.4857260000000  0.5585540000000 1.0
C      1  0.4414430000000  0.4580340000000  0.5142840000000 1.0
C      1  0.5585570000000  0.4580290000000  0.4857290000000 1.0
C      1  0.5585540000000  0.5419710000000  0.5142830000000 1.0
C      1  0.5142790000000  0.4414510000000  0.5419790000000 1.0
C      1  0.4580370000000  0.4857070000000  0.4414430000000 1.0
C      1  0.5585570000000  0.5419660000000  0.4857160000000 1.0
C      1  0.5142880000000  0.5585490000000  0.4580240000000 1.0
C      1  0.4857130000000  0.5585620000000  0.5419580000000 1.0
C      1  0.4857210000000  0.4414380000000  0.4580390000000 1.0
C      1  0.4580260000000  0.5142930000000  0.5585490000000 1.0
C      1  0.5419740000000  0.5142740000000  0.4414460000000 1.0
C      1  0.5419630000000  0.4857260000000  0.5585620000000 1.0
C      1  0.5585540000000  0.4580340000000  0.5142960000000 1.0
C      1  0.4414460000000  0.4580290000000  0.4857170000000 1.0
C      1  0.4414430000000  0.5419710000000  0.5142710000000 1.0
C      1  0.5180340000000  0.5290810000000  0.5617990000000 1.0
C      1  0.5617990000000  0.5180440000000  0.5290740000000 1.0
C      1  0.5290690000000  0.5618040000000  0.5180330000000 1.0
C      1  0.5180460000000  0.4709190000000  0.4382050000000 1.0
C      1  0.4819540000000  0.4709390000000  0.5618040000000 1.0
C      1  0.4819660000000  0.5290610000000  0.4381920000000 1.0
C      1  0.5618040000000  0.4819550000000  0.4709380000000 1.0
C      1  0.4381960000000  0.4819650000000  0.5290680000000 1.0
C      1  0.4382010000000  0.5180350000000  0.4709200000000 1.0
C      1  0.5290730000000  0.4381960000000  0.4819730000000 1.0
C      1  0.4709270000000  0.4382010000000  0.5180470000000 1.0
C      1  0.4709310000000  0.5617990000000  0.4819480000000 1.0
C      1  0.4819540000000  0.5290810000000  0.5617950000000 1.0
C      1  0.4381960000000  0.5180450000000  0.5290620000000 1.0
C      1  0.4709270000000  0.5618040000000  0.5180270000000 1.0
C      1  0.4819660000000  0.4709190000000  0.4382010000000 1.0
C      1  0.5180340000000  0.4709390000000  0.5618080000000 1.0
C      1  0.5180460000000  0.5290610000000  0.4381960000000 1.0
C      1  0.4382010000000  0.4819560000000  0.4709260000000 1.0
C      1  0.5617990000000  0.4819650000000  0.5290800000000 1.0
C      1  0.5618040000000  0.5180350000000  0.4709320000000 1.0
C      1  0.4709310000000  0.4381960000000  0.4819670000000 1.0
C      1  0.5290690000000  0.4382010000000  0.5180520000000 1.0
C      1  0.5290730000000  0.5617990000000  0.4819530000000 1.0
C      1  0.4577190000000  0.5287750000000  0.4427980000000 1.0
C      1  0.4428030000000  0.4577180000000  0.5287850000000 1.0
C      1  0.5287880000000  0.4428000000000  0.4577250000000 1.0
C      1  0.4577080000000  0.4712250000000  0.5571940000000 1.0
C      1  0.5422920000000  0.4712070000000  0.4428150000000 1.0
C      1  0.5422810000000  0.5287930000000  0.5571930000000 1.0
C      1  0.4428090000000  0.5422820000000  0.4712040000000 1.0
C      1  0.5571910000000  0.5422910000000  0.5287830000000 1.0
C      1  0.5571960000000  0.4577090000000  0.4712280000000 1.0
C      1  0.5287800000000  0.5572000000000  0.5422800000000 1.0
C      1  0.4712200000000  0.5571870000000  0.4577020000000 1.0
C      1  0.4712120000000  0.4428130000000  0.5422920000000 1.0
C      1  0.5422920000000  0.5287750000000  0.4428060000000 1.0
C      1  0.5571910000000  0.4577180000000  0.5287960000000 1.0
C      1  0.4712200000000  0.4428000000000  0.4577200000000 1.0
C      1  0.5422810000000  0.4712250000000  0.5572020000000 1.0
C      1  0.4577190000000  0.4712070000000  0.4428070000000 1.0
C      1  0.4577080000000  0.5287930000000  0.5571850000000 1.0
C      1  0.5571970000000  0.5422820000000  0.4712150000000 1.0
C      1  0.4428040000000  0.5422910000000  0.5287720000000 1.0
C      1  0.4428090000000  0.4577090000000  0.4712170000000 1.0
C      1  0.4712120000000  0.5572000000000  0.5422750000000 1.0
C      1  0.5287880000000  0.5571870000000  0.4577080000000 1.0
C      1  0.5287800000000  0.4428130000000  0.5422980000000 1.0
END
