TITL C-102689-8077-83 0.14511268184078 1000000 -1782.33020950542 0 0 240 (Th) n - 1
REM
REM in /home/chem/mssmkc/work/GAP20/Larger-Clusters/Only-C240-new-series
REM
REM
REM
REM
REM
REM ./C.cell (0485df7495ed2a90f93db84a705cd676)
REM
REM compiler GCC version 8.3.0
REM options -cpp -mtune=generic -march=x86-64 -g -O0
REM seed -981228368 -268425742 -1345068845 -38130003 -1736773371 -1340002821 -1293806429 -2087791803 -2019239480 -1702596563 -1252079235 477402278 -1949512137 -1931137336 790603252 1174540417 -638593338 1437280324 -1303407192 -1414596717 462384865 1385463578 -317539048 605430577 867345473 1329867222 1127703410 -316922760 2083625394 -2057888431 -638694773 1347290158 1614445256
REM
CELL 1.54180  100.00000  100.00000  100.00000   90.00000   90.00000   90.00000
LATT -1
SFAC C  
C      1  0.5536370000000  0.5353020000000  0.4609630000000 1.0
C      1  0.5353030000000  0.4609680000000  0.5536390000000 1.0
C      1  0.4609640000000  0.5536380000000  0.5353000000000 1.0
C      1  0.4463610000000  0.4646970000000  0.4609670000000 1.0
C      1  0.5536420000000  0.4647020000000  0.5390340000000 1.0
C      1  0.4463600000000  0.5352990000000  0.5390350000000 1.0
C      1  0.4646990000000  0.5390350000000  0.5536390000000 1.0
C      1  0.5352980000000  0.5390350000000  0.4463590000000 1.0
C      1  0.4647000000000  0.4609630000000  0.4463620000000 1.0
C      1  0.5390380000000  0.4463630000000  0.5353010000000 1.0
C      1  0.4609660000000  0.4463580000000  0.4647010000000 1.0
C      1  0.5390320000000  0.5536400000000  0.4646970000000 1.0
C      1  0.5536390000000  0.5353030000000  0.5390330000000 1.0
C      1  0.5353010000000  0.4609650000000  0.4463610000000 1.0
C      1  0.4609620000000  0.5536370000000  0.4646990000000 1.0
C      1  0.4463630000000  0.4646980000000  0.5390370000000 1.0
C      1  0.5536400000000  0.4647010000000  0.4609650000000 1.0
C      1  0.4463580000000  0.5352980000000  0.4609660000000 1.0
C      1  0.4646970000000  0.5390320000000  0.4463610000000 1.0
C      1  0.5353000000000  0.5390370000000  0.5536380000000 1.0
C      1  0.4647020000000  0.4609650000000  0.5536410000000 1.0
C      1  0.5390360000000  0.4463620000000  0.4647000000000 1.0
C      1  0.4609680000000  0.4463600000000  0.5353030000000 1.0
C      1  0.5390340000000  0.5536420000000  0.5352990000000 1.0
C      1  0.5366280000000  0.4390990000000  0.4865900000000 1.0
C      1  0.4390990000000  0.4865880000000  0.5366270000000 1.0
C      1  0.4865870000000  0.5366240000000  0.4390970000000 1.0
C      1  0.4633720000000  0.5609010000000  0.4865890000000 1.0
C      1  0.5366240000000  0.5609040000000  0.5134080000000 1.0
C      1  0.4633770000000  0.4390960000000  0.5134120000000 1.0
C      1  0.5609030000000  0.5134130000000  0.5366240000000 1.0
C      1  0.4390960000000  0.5134070000000  0.4633750000000 1.0
C      1  0.5609020000000  0.4865910000000  0.4633730000000 1.0
C      1  0.5134100000000  0.4633740000000  0.4390980000000 1.0
C      1  0.4865930000000  0.4633750000000  0.5609040000000 1.0
C      1  0.5134100000000  0.5366270000000  0.5609020000000 1.0
C      1  0.5366280000000  0.4390990000000  0.5134110000000 1.0
C      1  0.4390970000000  0.4865870000000  0.4633760000000 1.0
C      1  0.4865900000000  0.5366260000000  0.5609020000000 1.0
C      1  0.4633720000000  0.5609010000000  0.5134100000000 1.0
C      1  0.5366230000000  0.5609040000000  0.4865880000000 1.0
C      1  0.4633760000000  0.4390960000000  0.4865920000000 1.0
C      1  0.5609010000000  0.5134120000000  0.4633730000000 1.0
C      1  0.4390980000000  0.5134090000000  0.5366270000000 1.0
C      1  0.5609040000000  0.4865930000000  0.5366250000000 1.0
C      1  0.5134130000000  0.4633760000000  0.5609030000000 1.0
C      1  0.4865900000000  0.4633730000000  0.4390980000000 1.0
C      1  0.5134070000000  0.5366250000000  0.4390960000000 1.0
C      1  0.5693220000000  0.5069830000000  0.5279500000000 1.0
C      1  0.5069800000000  0.5279530000000  0.5693210000000 1.0
C      1  0.5279490000000  0.5693230000000  0.5069780000000 1.0
C      1  0.4306790000000  0.4930180000000  0.5279530000000 1.0
C      1  0.5693210000000  0.4930220000000  0.4720470000000 1.0
C      1  0.4306770000000  0.5069760000000  0.4720500000000 1.0
C      1  0.4930230000000  0.4720490000000  0.5693220000000 1.0
C      1  0.5069790000000  0.4720470000000  0.4306790000000 1.0
C      1  0.4930180000000  0.5279500000000  0.4306780000000 1.0
C      1  0.4720510000000  0.4306770000000  0.5069820000000 1.0
C      1  0.5279540000000  0.4306790000000  0.4930210000000 1.0
C      1  0.4720450000000  0.5693200000000  0.4930190000000 1.0
C      1  0.5693210000000  0.5069820000000  0.4720470000000 1.0
C      1  0.5069770000000  0.5279510000000  0.4306780000000 1.0
C      1  0.5279490000000  0.5693230000000  0.4930180000000 1.0
C      1  0.4306780000000  0.4930170000000  0.4720500000000 1.0
C      1  0.5693230000000  0.4930240000000  0.5279500000000 1.0
C      1  0.4306790000000  0.5069780000000  0.5279530000000 1.0
C      1  0.4930200000000  0.4720470000000  0.4306790000000 1.0
C      1  0.5069820000000  0.4720500000000  0.5693220000000 1.0
C      1  0.4930210000000  0.5279530000000  0.5693210000000 1.0
C      1  0.4720510000000  0.4306770000000  0.4930220000000 1.0
C      1  0.5279550000000  0.4306800000000  0.5069810000000 1.0
C      1  0.4720460000000  0.5693210000000  0.5069790000000 1.0
C      1  0.5072960000000  0.4366890000000  0.4805850000000 1.0
C      1  0.4366900000000  0.4805810000000  0.5072960000000 1.0
C      1  0.4805820000000  0.5072920000000  0.4366900000000 1.0
C      1  0.4927030000000  0.5633100000000  0.4805820000000 1.0
C      1  0.5072920000000  0.5633110000000  0.5194150000000 1.0
C      1  0.4927090000000  0.4366900000000  0.5194180000000 1.0
C      1  0.5633100000000  0.5194190000000  0.5072930000000 1.0
C      1  0.4366890000000  0.5194140000000  0.4927070000000 1.0
C      1  0.5633110000000  0.4805860000000  0.4927050000000 1.0
C      1  0.5194150000000  0.4927050000000  0.4366890000000 1.0
C      1  0.4805850000000  0.4927060000000  0.5633110000000 1.0
C      1  0.5194180000000  0.5072960000000  0.5633100000000 1.0
C      1  0.5072970000000  0.4366900000000  0.5194180000000 1.0
C      1  0.4366900000000  0.4805810000000  0.4927070000000 1.0
C      1  0.4805850000000  0.5072950000000  0.5633110000000 1.0
C      1  0.4927040000000  0.5633110000000  0.5194150000000 1.0
C      1  0.5072910000000  0.5633100000000  0.4805820000000 1.0
C      1  0.4927080000000  0.4366890000000  0.4805850000000 1.0
C      1  0.5633100000000  0.5194190000000  0.4927040000000 1.0
C      1  0.4366890000000  0.5194140000000  0.5072950000000 1.0
C      1  0.5633110000000  0.4805860000000  0.5072930000000 1.0
C      1  0.5194180000000  0.4927080000000  0.5633100000000 1.0
C      1  0.4805820000000  0.4927040000000  0.4366900000000 1.0
C      1  0.5194150000000  0.5072940000000  0.4366890000000 1.0
C      1  0.5309380000000  0.5597850000000  0.5259430000000 1.0
C      1  0.5597830000000  0.5259480000000  0.5309380000000 1.0
C      1  0.5259450000000  0.5309420000000  0.5597820000000 1.0
C      1  0.4690630000000  0.4402160000000  0.5259460000000 1.0
C      1  0.5309420000000  0.4402180000000  0.4740560000000 1.0
C      1  0.4690570000000  0.5597810000000  0.4740550000000 1.0
C      1  0.4402190000000  0.4740540000000  0.5309420000000 1.0
C      1  0.5597840000000  0.4740570000000  0.4690590000000 1.0
C      1  0.4402150000000  0.5259420000000  0.4690610000000 1.0
C      1  0.4740580000000  0.4690600000000  0.5597840000000 1.0
C      1  0.5259440000000  0.4690600000000  0.4402170000000 1.0
C      1  0.4740530000000  0.5309380000000  0.4402170000000 1.0
C      1  0.5309370000000  0.5597840000000  0.4740540000000 1.0
C      1  0.5597810000000  0.5259460000000  0.4690580000000 1.0
C      1  0.5259420000000  0.5309400000000  0.4402160000000 1.0
C      1  0.4690620000000  0.4402150000000  0.4740570000000 1.0
C      1  0.5309430000000  0.4402190000000  0.5259450000000 1.0
C      1  0.4690580000000  0.5597820000000  0.5259440000000 1.0
C      1  0.4402170000000  0.4740520000000  0.4690620000000 1.0
C      1  0.5597850000000  0.4740580000000  0.5309390000000 1.0
C      1  0.4402160000000  0.5259430000000  0.5309410000000 1.0
C      1  0.4740550000000  0.4690580000000  0.4402180000000 1.0
C      1  0.5259470000000  0.4690620000000  0.5597830000000 1.0
C      1  0.4740560000000  0.5309400000000  0.5597830000000 1.0
C      1  0.5463400000000  0.4483410000000  0.4926350000000 1.0
C      1  0.4483400000000  0.4926340000000  0.5463400000000 1.0
C      1  0.4926320000000  0.5463370000000  0.4483380000000 1.0
C      1  0.4536590000000  0.5516590000000  0.4926350000000 1.0
C      1  0.5463370000000  0.5516630000000  0.5073630000000 1.0
C      1  0.4536640000000  0.4483370000000  0.5073670000000 1.0
C      1  0.5516620000000  0.5073680000000  0.5463370000000 1.0
C      1  0.4483380000000  0.5073620000000  0.4536630000000 1.0
C      1  0.5516600000000  0.4926360000000  0.4536610000000 1.0
C      1  0.5073650000000  0.4536610000000  0.4483400000000 1.0
C      1  0.4926380000000  0.4536620000000  0.5516620000000 1.0
C      1  0.5073640000000  0.5463400000000  0.5516600000000 1.0
C      1  0.5463410000000  0.4483410000000  0.5073650000000 1.0
C      1  0.4483380000000  0.4926320000000  0.4536630000000 1.0
C      1  0.4926350000000  0.5463390000000  0.5516600000000 1.0
C      1  0.4536600000000  0.5516590000000  0.5073650000000 1.0
C      1  0.5463360000000  0.5516630000000  0.4926330000000 1.0
C      1  0.4536630000000  0.4483370000000  0.4926370000000 1.0
C      1  0.5516600000000  0.5073660000000  0.4536600000000 1.0
C      1  0.4483400000000  0.5073640000000  0.5463390000000 1.0
C      1  0.5516620000000  0.4926380000000  0.5463370000000 1.0
C      1  0.5073680000000  0.4536630000000  0.5516620000000 1.0
C      1  0.4926360000000  0.4536600000000  0.4483400000000 1.0
C      1  0.5073620000000  0.5463380000000  0.4483380000000 1.0
C      1  0.5527290000000  0.5430430000000  0.4831750000000 1.0
C      1  0.5430440000000  0.4831800000000  0.5527300000000 1.0
C      1  0.4831760000000  0.5527310000000  0.5430410000000 1.0
C      1  0.4472700000000  0.4569560000000  0.4831790000000 1.0
C      1  0.5527330000000  0.4569610000000  0.5168230000000 1.0
C      1  0.4472680000000  0.5430400000000  0.5168230000000 1.0
C      1  0.4569590000000  0.5168220000000  0.5527320000000 1.0
C      1  0.5430400000000  0.5168240000000  0.4472680000000 1.0
C      1  0.4569580000000  0.4831740000000  0.4472700000000 1.0
C      1  0.5168260000000  0.4472710000000  0.5430420000000 1.0
C      1  0.4831780000000  0.4472670000000  0.4569600000000 1.0
C      1  0.5168200000000  0.5527310000000  0.4569570000000 1.0
C      1  0.5527300000000  0.5430440000000  0.5168210000000 1.0
C      1  0.5430410000000  0.4831780000000  0.4472680000000 1.0
C      1  0.4831740000000  0.5527290000000  0.4569580000000 1.0
C      1  0.4472710000000  0.4569570000000  0.5168250000000 1.0
C      1  0.5527320000000  0.4569600000000  0.4831770000000 1.0
C      1  0.4472670000000  0.5430390000000  0.4831770000000 1.0
C      1  0.4569560000000  0.5168200000000  0.4472700000000 1.0
C      1  0.5430420000000  0.5168260000000  0.5527300000000 1.0
C      1  0.4569600000000  0.4831760000000  0.5527320000000 1.0
C      1  0.5168240000000  0.4472690000000  0.4569590000000 1.0
C      1  0.4831800000000  0.4472690000000  0.5430430000000 1.0
C      1  0.5168220000000  0.5527330000000  0.5430400000000 1.0
C      1  0.4864550000000  0.5679900000000  0.5074410000000 1.0
C      1  0.5679900000000  0.5074440000000  0.4864560000000 1.0
C      1  0.5074440000000  0.4864600000000  0.5679910000000 1.0
C      1  0.5135450000000  0.4320100000000  0.5074430000000 1.0
C      1  0.4864600000000  0.4320090000000  0.4925600000000 1.0
C      1  0.5135390000000  0.5679910000000  0.4925560000000 1.0
C      1  0.4320090000000  0.4925550000000  0.4864590000000 1.0
C      1  0.5679910000000  0.4925610000000  0.5135410000000 1.0
C      1  0.4320090000000  0.5074400000000  0.5135430000000 1.0
C      1  0.4925590000000  0.5135430000000  0.5679900000000 1.0
C      1  0.5074400000000  0.5135410000000  0.4320090000000 1.0
C      1  0.4925570000000  0.4864560000000  0.4320100000000 1.0
C      1  0.4864550000000  0.5679900000000  0.4925570000000 1.0
C      1  0.5679910000000  0.5074450000000  0.5135410000000 1.0
C      1  0.5074410000000  0.4864570000000  0.4320100000000 1.0
C      1  0.5135450000000  0.4320100000000  0.4925590000000 1.0
C      1  0.4864610000000  0.4320090000000  0.5074440000000 1.0
C      1  0.5135400000000  0.5679910000000  0.5074400000000 1.0
C      1  0.4320100000000  0.4925560000000  0.5135440000000 1.0
C      1  0.5679910000000  0.4925600000000  0.4864570000000 1.0
C      1  0.4320090000000  0.5074390000000  0.4864590000000 1.0
C      1  0.4925560000000  0.5135400000000  0.4320090000000 1.0
C      1  0.5074430000000  0.5135440000000  0.5679900000000 1.0
C      1  0.4925600000000  0.4864590000000  0.5679910000000 1.0
C      1  0.4830870000000  0.5595140000000  0.4702650000000 1.0
C      1  0.5595160000000  0.4702680000000  0.4830890000000 1.0
C      1  0.4702680000000  0.4830900000000  0.5595160000000 1.0
C      1  0.5169120000000  0.4404850000000  0.4702670000000 1.0
C      1  0.4830930000000  0.4404850000000  0.5297350000000 1.0
C      1  0.5169080000000  0.5595160000000  0.5297320000000 1.0
C      1  0.4404840000000  0.5297310000000  0.4830910000000 1.0
C      1  0.5595140000000  0.5297360000000  0.5169080000000 1.0
C      1  0.4404870000000  0.4702640000000  0.5169120000000 1.0
C      1  0.5297340000000  0.5169130000000  0.5595140000000 1.0
C      1  0.4702640000000  0.5169080000000  0.4404850000000 1.0
C      1  0.5297330000000  0.4830900000000  0.4404850000000 1.0
C      1  0.4830880000000  0.5595150000000  0.5297330000000 1.0
C      1  0.5595160000000  0.4702690000000  0.5169090000000 1.0
C      1  0.4702660000000  0.4830870000000  0.4404860000000 1.0
C      1  0.5169130000000  0.4404860000000  0.5297350000000 1.0
C      1  0.4830920000000  0.4404840000000  0.4702680000000 1.0
C      1  0.5169070000000  0.5595150000000  0.4702650000000 1.0
C      1  0.4404840000000  0.5297320000000  0.5169110000000 1.0
C      1  0.5595130000000  0.5297360000000  0.4830880000000 1.0
C      1  0.4404860000000  0.4702640000000  0.4830920000000 1.0
C      1  0.5297320000000  0.5169100000000  0.4404840000000 1.0
C      1  0.4702670000000  0.5169100000000  0.5595150000000 1.0
C      1  0.5297360000000  0.4830920000000  0.5595150000000 1.0
C      1  0.5499170000000  0.5461850000000  0.5308470000000 1.0
C      1  0.5461830000000  0.5308520000000  0.5499160000000 1.0
C      1  0.5308480000000  0.5499200000000  0.5461810000000 1.0
C      1  0.4500850000000  0.4538160000000  0.5308510000000 1.0
C      1  0.5499190000000  0.4538180000000  0.4691510000000 1.0
C      1  0.4500800000000  0.5461800000000  0.4691510000000 1.0
C      1  0.4538190000000  0.4691500000000  0.5499190000000 1.0
C      1  0.5461830000000  0.4691510000000  0.4500820000000 1.0
C      1  0.4538150000000  0.5308460000000  0.4500830000000 1.0
C      1  0.4691540000000  0.4500820000000  0.5461850000000 1.0
C      1  0.5308500000000  0.4500820000000  0.4538180000000 1.0
C      1  0.4691480000000  0.5499160000000  0.4538170000000 1.0
C      1  0.5499150000000  0.5461840000000  0.4691490000000 1.0
C      1  0.5461810000000  0.5308500000000  0.4500810000000 1.0
C      1  0.5308460000000  0.5499180000000  0.4538150000000 1.0
C      1  0.4500830000000  0.4538150000000  0.4691530000000 1.0
C      1  0.5499200000000  0.4538200000000  0.5308490000000 1.0
C      1  0.4500810000000  0.5461820000000  0.5308490000000 1.0
C      1  0.4538170000000  0.4691480000000  0.4500840000000 1.0
C      1  0.5461850000000  0.4691540000000  0.5499170000000 1.0
C      1  0.4538170000000  0.5308490000000  0.5499180000000 1.0
C      1  0.4691520000000  0.4500800000000  0.4538190000000 1.0
C      1  0.5308520000000  0.4500840000000  0.5461830000000 1.0
C      1  0.4691500000000  0.5499180000000  0.5461820000000 1.0
END
