TITL C-102688-8074-1 4.6600771331092 1000000 -1775.60167100777 0 0 240 (Td) n - 1
REM
REM in /home/chem/mssmkc/work/GAP20/Larger-Clusters/Only-C240-new-series
REM
REM
REM
REM
REM
REM ./C.cell (0485df7495ed2a90f93db84a705cd676)
REM
REM compiler GCC version 8.3.0
REM options -cpp -mtune=generic -march=x86-64 -g -O0
REM seed 865145315 1707809361 1413356579 1072828091 -627934521 -183590502 -783401908 1698329484 987070203 1696821559 -797580268 -534317371 -863508179 1735626520 -1627189276 -11279495 1735886081 1027031937 -864918876 -973841426 1763692719 1777798240 501556296 -1346734163 2049773468 565326372 2077976364 -1622844202 1907904709 1866747456 -355844487 -1201710754 -2101601623
REM
CELL 1.54180  100.00000  100.00000  100.00000   90.00000   90.00000   90.00000
LATT -1
SFAC C  
C      1  0.4539480000000  0.4440270000000  0.5057400000000 1.0
C      1  0.4440160000000  0.5057340000000  0.4539610000000 1.0
C      1  0.5057170000000  0.4539500000000  0.4440230000000 1.0
C      1  0.4539630000000  0.5559860000000  0.4942700000000 1.0
C      1  0.5460360000000  0.4440130000000  0.4942700000000 1.0
C      1  0.5460530000000  0.5559740000000  0.5057200000000 1.0
C      1  0.4440240000000  0.4942820000000  0.5460510000000 1.0
C      1  0.5559860000000  0.5057260000000  0.5460380000000 1.0
C      1  0.5559740000000  0.4942580000000  0.4539500000000 1.0
C      1  0.5057430000000  0.5460490000000  0.5559760000000 1.0
C      1  0.4942690000000  0.4539610000000  0.5559850000000 1.0
C      1  0.4942700000000  0.5460410000000  0.4440170000000 1.0
C      1  0.4539500000000  0.5057320000000  0.4440240000000 1.0
C      1  0.4440140000000  0.4539640000000  0.5057400000000 1.0
C      1  0.5057170000000  0.4440150000000  0.4539600000000 1.0
C      1  0.4539610000000  0.4942810000000  0.5559860000000 1.0
C      1  0.5460380000000  0.4942590000000  0.4440150000000 1.0
C      1  0.5460510000000  0.5057280000000  0.5559750000000 1.0
C      1  0.4440260000000  0.5460520000000  0.4942720000000 1.0
C      1  0.5559870000000  0.5460370000000  0.5057200000000 1.0
C      1  0.5559730000000  0.4539470000000  0.4942680000000 1.0
C      1  0.5057430000000  0.5559830000000  0.5460390000000 1.0
C      1  0.4942730000000  0.5559770000000  0.4539510000000 1.0
C      1  0.4942670000000  0.4440250000000  0.5460500000000 1.0
C      1  0.5066500000000  0.5427400000000  0.4384780000000 1.0
C      1  0.5427390000000  0.4384770000000  0.5066510000000 1.0
C      1  0.4384880000000  0.5066630000000  0.5427530000000 1.0
C      1  0.5066510000000  0.4572580000000  0.5615200000000 1.0
C      1  0.4933630000000  0.5427530000000  0.5615140000000 1.0
C      1  0.4933370000000  0.4572490000000  0.4384870000000 1.0
C      1  0.5427550000000  0.5615110000000  0.4933400000000 1.0
C      1  0.4572440000000  0.4384880000000  0.4933600000000 1.0
C      1  0.4572630000000  0.5615240000000  0.5066500000000 1.0
C      1  0.4384770000000  0.4933550000000  0.4572610000000 1.0
C      1  0.5615140000000  0.5066380000000  0.4572460000000 1.0
C      1  0.5615210000000  0.4933450000000  0.5427400000000 1.0
C      1  0.5066460000000  0.4384860000000  0.5427510000000 1.0
C      1  0.5427410000000  0.5066390000000  0.4384780000000 1.0
C      1  0.4384900000000  0.5427560000000  0.5066530000000 1.0
C      1  0.5066540000000  0.5615130000000  0.4572470000000 1.0
C      1  0.4933630000000  0.5615220000000  0.5427420000000 1.0
C      1  0.4933360000000  0.4384800000000  0.4572590000000 1.0
C      1  0.5427520000000  0.4933490000000  0.5615130000000 1.0
C      1  0.4572460000000  0.4933510000000  0.4384880000000 1.0
C      1  0.4572610000000  0.5066620000000  0.5615210000000 1.0
C      1  0.4384760000000  0.4572620000000  0.4933600000000 1.0
C      1  0.5615120000000  0.4572450000000  0.5066470000000 1.0
C      1  0.5615230000000  0.5427370000000  0.4933390000000 1.0
C      1  0.4820020000000  0.4923140000000  0.4301370000000 1.0
C      1  0.4923050000000  0.4301340000000  0.4820180000000 1.0
C      1  0.4301310000000  0.4820200000000  0.4923260000000 1.0
C      1  0.4820190000000  0.5076920000000  0.5698670000000 1.0
C      1  0.5179960000000  0.4923200000000  0.5698640000000 1.0
C      1  0.5179830000000  0.5076750000000  0.4301320000000 1.0
C      1  0.4923290000000  0.5698680000000  0.5179840000000 1.0
C      1  0.5076750000000  0.4301350000000  0.5179940000000 1.0
C      1  0.5076910000000  0.5698630000000  0.4820040000000 1.0
C      1  0.4301380000000  0.5180000000000  0.5076890000000 1.0
C      1  0.5698640000000  0.4820010000000  0.5076770000000 1.0
C      1  0.5698670000000  0.5179790000000  0.4923080000000 1.0
C      1  0.4820000000000  0.4301360000000  0.4923250000000 1.0
C      1  0.4923070000000  0.4820060000000  0.4301370000000 1.0
C      1  0.4301310000000  0.4923250000000  0.4820190000000 1.0
C      1  0.4820220000000  0.5698690000000  0.5076790000000 1.0
C      1  0.5179980000000  0.5698620000000  0.4923090000000 1.0
C      1  0.5179800000000  0.4301330000000  0.5076870000000 1.0
C      1  0.4923270000000  0.5179960000000  0.5698650000000 1.0
C      1  0.5076780000000  0.5179820000000  0.4301320000000 1.0
C      1  0.5076880000000  0.4820160000000  0.5698660000000 1.0
C      1  0.4301380000000  0.5076950000000  0.5179960000000 1.0
C      1  0.5698650000000  0.5076720000000  0.4820030000000 1.0
C      1  0.5698660000000  0.4923080000000  0.5179820000000 1.0
C      1  0.5063120000000  0.5167160000000  0.5701340000000 1.0
C      1  0.5167220000000  0.5701350000000  0.5062950000000 1.0
C      1  0.5701390000000  0.5062940000000  0.5167030000000 1.0
C      1  0.5062920000000  0.4832820000000  0.4298640000000 1.0
C      1  0.4936920000000  0.5167060000000  0.4298630000000 1.0
C      1  0.4937030000000  0.4832960000000  0.5701390000000 1.0
C      1  0.5167000000000  0.4298600000000  0.4937020000000 1.0
C      1  0.4832980000000  0.5701380000000  0.4936930000000 1.0
C      1  0.4832800000000  0.4298660000000  0.5063100000000 1.0
C      1  0.5701340000000  0.4936860000000  0.4832820000000 1.0
C      1  0.4298620000000  0.5063110000000  0.4832960000000 1.0
C      1  0.4298640000000  0.4937090000000  0.5167190000000 1.0
C      1  0.5063140000000  0.5701370000000  0.5167040000000 1.0
C      1  0.5167200000000  0.5063060000000  0.5701340000000 1.0
C      1  0.5701400000000  0.5167020000000  0.5062930000000 1.0
C      1  0.5062910000000  0.4298610000000  0.4832940000000 1.0
C      1  0.4936890000000  0.4298660000000  0.5167180000000 1.0
C      1  0.4937060000000  0.5701360000000  0.4832840000000 1.0
C      1  0.5167030000000  0.4936890000000  0.4298620000000 1.0
C      1  0.4832960000000  0.4937060000000  0.5701390000000 1.0
C      1  0.4832820000000  0.5062990000000  0.4298650000000 1.0
C      1  0.5701340000000  0.4832780000000  0.4936910000000 1.0
C      1  0.4298620000000  0.4832990000000  0.5063110000000 1.0
C      1  0.4298650000000  0.5167210000000  0.4937040000000 1.0
C      1  0.5669130000000  0.5123570000000  0.4691060000000 1.0
C      1  0.5123720000000  0.4691190000000  0.5669160000000 1.0
C      1  0.4691260000000  0.5669200000000  0.5123670000000 1.0
C      1  0.5669170000000  0.4876240000000  0.5308790000000 1.0
C      1  0.4330900000000  0.5123810000000  0.5308920000000 1.0
C      1  0.4330800000000  0.4876380000000  0.4691230000000 1.0
C      1  0.5123660000000  0.5308780000000  0.4330810000000 1.0
C      1  0.4876190000000  0.4691110000000  0.4330890000000 1.0
C      1  0.4876430000000  0.5308930000000  0.5669140000000 1.0
C      1  0.4691040000000  0.4330880000000  0.4876400000000 1.0
C      1  0.5308940000000  0.5669100000000  0.4876220000000 1.0
C      1  0.5308770000000  0.4330820000000  0.5123710000000 1.0
C      1  0.5669120000000  0.4691060000000  0.5123640000000 1.0
C      1  0.5123750000000  0.5669110000000  0.4691080000000 1.0
C      1  0.4691240000000  0.5123790000000  0.5669170000000 1.0
C      1  0.5669180000000  0.5308750000000  0.4876210000000 1.0
C      1  0.4330910000000  0.5308960000000  0.5123740000000 1.0
C      1  0.4330790000000  0.4691230000000  0.4876410000000 1.0
C      1  0.5123630000000  0.4330860000000  0.5308900000000 1.0
C      1  0.4876180000000  0.4330840000000  0.4691220000000 1.0
C      1  0.4876440000000  0.5669190000000  0.5308810000000 1.0
C      1  0.4691060000000  0.4876300000000  0.4330890000000 1.0
C      1  0.5308910000000  0.4876320000000  0.5669130000000 1.0
C      1  0.5308800000000  0.5123590000000  0.4330810000000 1.0
C      1  0.4342070000000  0.5163810000000  0.4735570000000 1.0
C      1  0.5163630000000  0.4735440000000  0.4342090000000 1.0
C      1  0.4735440000000  0.4342130000000  0.5163830000000 1.0
C      1  0.4342090000000  0.4836370000000  0.5264570000000 1.0
C      1  0.5657970000000  0.5163670000000  0.5264400000000 1.0
C      1  0.5657870000000  0.4836140000000  0.4735460000000 1.0
C      1  0.5163850000000  0.5264520000000  0.5657880000000 1.0
C      1  0.4836290000000  0.4735590000000  0.5657960000000 1.0
C      1  0.4836220000000  0.5264450000000  0.4342080000000 1.0
C      1  0.4735590000000  0.5657940000000  0.4836230000000 1.0
C      1  0.5264370000000  0.4342030000000  0.4836280000000 1.0
C      1  0.5264600000000  0.5657900000000  0.5163660000000 1.0
C      1  0.4342060000000  0.4735620000000  0.5163840000000 1.0
C      1  0.5163620000000  0.4342030000000  0.4735550000000 1.0
C      1  0.4735470000000  0.5163720000000  0.4342100000000 1.0
C      1  0.4342100000000  0.5264560000000  0.4836310000000 1.0
C      1  0.5657970000000  0.5264400000000  0.5163650000000 1.0
C      1  0.5657860000000  0.4735410000000  0.4836210000000 1.0
C      1  0.5163870000000  0.5657920000000  0.5264410000000 1.0
C      1  0.4836320000000  0.5657920000000  0.4735480000000 1.0
C      1  0.4836190000000  0.4342130000000  0.5264560000000 1.0
C      1  0.4735560000000  0.4836350000000  0.5657960000000 1.0
C      1  0.5264390000000  0.4836160000000  0.4342070000000 1.0
C      1  0.5264580000000  0.5163760000000  0.5657880000000 1.0
C      1  0.4509760000000  0.5389190000000  0.4712880000000 1.0
C      1  0.5389050000000  0.4712770000000  0.4509720000000 1.0
C      1  0.4712840000000  0.4509810000000  0.5389210000000 1.0
C      1  0.4509710000000  0.4610950000000  0.5287220000000 1.0
C      1  0.5490350000000  0.5389100000000  0.5287050000000 1.0
C      1  0.5490180000000  0.4610760000000  0.4712840000000 1.0
C      1  0.5389240000000  0.5287120000000  0.5490200000000 1.0
C      1  0.4610870000000  0.4712960000000  0.5490330000000 1.0
C      1  0.4610850000000  0.5287150000000  0.4509750000000 1.0
C      1  0.4712890000000  0.5490270000000  0.4610850000000 1.0
C      1  0.5287020000000  0.4509660000000  0.4610870000000 1.0
C      1  0.5287250000000  0.5490260000000  0.5389070000000 1.0
C      1  0.4509730000000  0.4712970000000  0.5389220000000 1.0
C      1  0.5389040000000  0.4509650000000  0.4712860000000 1.0
C      1  0.4712870000000  0.5389140000000  0.4509730000000 1.0
C      1  0.4509730000000  0.5287170000000  0.4610890000000 1.0
C      1  0.5490350000000  0.5287100000000  0.5389060000000 1.0
C      1  0.5490180000000  0.4712760000000  0.4610830000000 1.0
C      1  0.5389240000000  0.5490240000000  0.5287050000000 1.0
C      1  0.4610900000000  0.5490300000000  0.4712860000000 1.0
C      1  0.4610820000000  0.4509810000000  0.5287220000000 1.0
C      1  0.4712860000000  0.4610940000000  0.5490330000000 1.0
C      1  0.5287030000000  0.4610780000000  0.4509740000000 1.0
C      1  0.5287250000000  0.5389140000000  0.5490200000000 1.0
C      1  0.5259140000000  0.4368010000000  0.5354810000000 1.0
C      1  0.4368100000000  0.5354900000000  0.5259230000000 1.0
C      1  0.5354760000000  0.5259090000000  0.4367960000000 1.0
C      1  0.5259240000000  0.5631910000000  0.4645130000000 1.0
C      1  0.4740680000000  0.4368030000000  0.4645290000000 1.0
C      1  0.4740940000000  0.5632050000000  0.5354760000000 1.0
C      1  0.4367940000000  0.4645280000000  0.4740910000000 1.0
C      1  0.5632000000000  0.5354680000000  0.4740710000000 1.0
C      1  0.5631960000000  0.4645140000000  0.5259150000000 1.0
C      1  0.5354820000000  0.4740810000000  0.5631960000000 1.0
C      1  0.4645320000000  0.5259300000000  0.5632000000000 1.0
C      1  0.4645110000000  0.4740800000000  0.4368080000000 1.0
C      1  0.5259170000000  0.5354700000000  0.4367960000000 1.0
C      1  0.4368090000000  0.5259310000000  0.5354840000000 1.0
C      1  0.5354730000000  0.4367990000000  0.5259210000000 1.0
C      1  0.5259210000000  0.4645230000000  0.5631980000000 1.0
C      1  0.4740690000000  0.4645190000000  0.4368080000000 1.0
C      1  0.4740930000000  0.5354880000000  0.5631980000000 1.0
C      1  0.4367940000000  0.4740870000000  0.4645300000000 1.0
C      1  0.5631980000000  0.4740750000000  0.5354740000000 1.0
C      1  0.5631980000000  0.5259070000000  0.4645120000000 1.0
C      1  0.5354850000000  0.5631910000000  0.4740720000000 1.0
C      1  0.4645330000000  0.5632050000000  0.5259180000000 1.0
C      1  0.4645090000000  0.4368050000000  0.4740900000000 1.0
C      1  0.5573590000000  0.5477550000000  0.4800590000000 1.0
C      1  0.5477690000000  0.4800680000000  0.5573500000000 1.0
C      1  0.4800830000000  0.5573610000000  0.5477630000000 1.0
C      1  0.5573490000000  0.4522280000000  0.5199280000000 1.0
C      1  0.4426550000000  0.5477750000000  0.5199320000000 1.0
C      1  0.4426370000000  0.4522410000000  0.4800800000000 1.0
C      1  0.5477620000000  0.5199190000000  0.4426390000000 1.0
C      1  0.4522260000000  0.4800720000000  0.4426530000000 1.0
C      1  0.4522440000000  0.5199420000000  0.5573570000000 1.0
C      1  0.4800560000000  0.4426450000000  0.4522420000000 1.0
C      1  0.5199330000000  0.5573470000000  0.4522280000000 1.0
C      1  0.5199270000000  0.4426470000000  0.5477680000000 1.0
C      1  0.5573560000000  0.4800660000000  0.5477610000000 1.0
C      1  0.5477710000000  0.5573450000000  0.4800600000000 1.0
C      1  0.4800830000000  0.5477730000000  0.5573520000000 1.0
C      1  0.5573520000000  0.5199180000000  0.4522270000000 1.0
C      1  0.4426540000000  0.5199430000000  0.5477700000000 1.0
C      1  0.4426380000000  0.4800740000000  0.4522430000000 1.0
C      1  0.5477590000000  0.4426410000000  0.5199300000000 1.0
C      1  0.4522240000000  0.4426510000000  0.4800800000000 1.0
C      1  0.4522450000000  0.5573620000000  0.5199310000000 1.0
C      1  0.4800570000000  0.4522330000000  0.4426520000000 1.0
C      1  0.5199300000000  0.4522370000000  0.5573560000000 1.0
C      1  0.5199310000000  0.5477580000000  0.4426400000000 1.0
C      1  0.5576860000000  0.5171900000000  0.5376840000000 1.0
C      1  0.5172070000000  0.5376940000000  0.5576750000000 1.0
C      1  0.5377010000000  0.5576760000000  0.5171860000000 1.0
C      1  0.5576730000000  0.4827930000000  0.4623040000000 1.0
C      1  0.4423190000000  0.5172000000000  0.4623140000000 1.0
C      1  0.4423220000000  0.4828160000000  0.5376990000000 1.0
C      1  0.5171840000000  0.4623010000000  0.4423220000000 1.0
C      1  0.4828040000000  0.5376890000000  0.4423190000000 1.0
C      1  0.4828060000000  0.4623160000000  0.5576850000000 1.0
C      1  0.5376810000000  0.4423130000000  0.4828060000000 1.0
C      1  0.4623150000000  0.5576840000000  0.4828040000000 1.0
C      1  0.4623020000000  0.4423270000000  0.5172040000000 1.0
C      1  0.5576870000000  0.5376850000000  0.5171860000000 1.0
C      1  0.5172080000000  0.5576800000000  0.5376840000000 1.0
C      1  0.5377000000000  0.5171950000000  0.5576740000000 1.0
C      1  0.5576720000000  0.4622990000000  0.4828020000000 1.0
C      1  0.4423170000000  0.4623180000000  0.5172050000000 1.0
C      1  0.4423240000000  0.5376980000000  0.4828080000000 1.0
C      1  0.5171830000000  0.4423150000000  0.4623120000000 1.0
C      1  0.4828010000000  0.4423260000000  0.5376980000000 1.0
C      1  0.4828090000000  0.5576790000000  0.4623060000000 1.0
C      1  0.5376830000000  0.4827940000000  0.4423180000000 1.0
C      1  0.4623120000000  0.4828150000000  0.5576850000000 1.0
C      1  0.4623050000000  0.5171960000000  0.4423230000000 1.0
END
