TITL C-102689-8077-116 -0.00465562427836682 1000000 -1616.34949181163 0 0 240 (C1) n - 1
REM
REM in /home/chem/mssmkc/work/GAP20/Larger-Clusters/Only-C240-new-series
REM
REM
REM
REM
REM
REM ./C.cell (0485df7495ed2a90f93db84a705cd676)
REM
REM compiler GCC version 8.3.0
REM options -cpp -mtune=generic -march=x86-64 -g -O0
REM seed -1684884248 2054872867 -824552285 -579471544 1249361587 -446440458 -281405689 1207061050 -1485520679 46014058 1440820647 -1197549095 1365129633 -747901688 -880801265 -374317711 138614787 -494682029 1573208892 1873125602 1476798802 1010441753 -1778366075 980460672 290193354 -1164219752 932945109 18884168 831222950 -1316728285 -1388265413 660216572 433717031
REM
CELL 1.54180  100.00000  100.00000  100.00000   90.00000   90.00000   90.00000
LATT -1
SFAC C  
C      1  0.5616400000000  0.4653630000000  0.5203260000000 1.0
C      1  0.5183180000000  0.5647880000000  0.4672120000000 1.0
C      1  0.4663030000000  0.5187240000000  0.5600700000000 1.0
C      1  0.5622900000000  0.5353990000000  0.4784540000000 1.0
C      1  0.4382900000000  0.5345130000000  0.5203660000000 1.0
C      1  0.4374770000000  0.4649160000000  0.4786500000000 1.0
C      1  0.5185960000000  0.4363710000000  0.5347970000000 1.0
C      1  0.4815930000000  0.4352970000000  0.4673140000000 1.0
C      1  0.4813910000000  0.5635890000000  0.5348980000000 1.0
C      1  0.4676000000000  0.4792880000000  0.4404180000000 1.0
C      1  0.5337030000000  0.4812440000000  0.5599850000000 1.0
C      1  0.5325280000000  0.5206960000000  0.4404700000000 1.0
C      1  0.4354190000000  0.4654990000000  0.5180220000000 1.0
C      1  0.4788570000000  0.5632400000000  0.4663670000000 1.0
C      1  0.5353570000000  0.5205880000000  0.5608740000000 1.0
C      1  0.4401440000000  0.5340430000000  0.4809660000000 1.0
C      1  0.5644740000000  0.5344960000000  0.5178020000000 1.0
C      1  0.5599860000000  0.4658900000000  0.4809760000000 1.0
C      1  0.4794190000000  0.4392660000000  0.5333780000000 1.0
C      1  0.5210740000000  0.4363640000000  0.4664970000000 1.0
C      1  0.5205470000000  0.5607310000000  0.5334080000000 1.0
C      1  0.5322760000000  0.4814500000000  0.4379200000000 1.0
C      1  0.4646730000000  0.4793740000000  0.5609860000000 1.0
C      1  0.4678100000000  0.5185040000000  0.4378740000000 1.0
C      1  0.5511780000000  0.4897050000000  0.4497060000000 1.0
C      1  0.4524900000000  0.5523090000000  0.4906090000000 1.0
C      1  0.4886400000000  0.4518270000000  0.5520740000000 1.0
C      1  0.5528130000000  0.5125810000000  0.5479120000000 1.0
C      1  0.4489430000000  0.5103480000000  0.4496990000000 1.0
C      1  0.4471730000000  0.4873970000000  0.5480880000000 1.0
C      1  0.4474810000000  0.4467430000000  0.5096410000000 1.0
C      1  0.5474200000000  0.4475860000000  0.4904730000000 1.0
C      1  0.5524520000000  0.5533640000000  0.5095420000000 1.0
C      1  0.4875300000000  0.5520210000000  0.4478210000000 1.0
C      1  0.5113620000000  0.5481000000000  0.5520720000000 1.0
C      1  0.5126420000000  0.4479430000000  0.4480810000000 1.0
C      1  0.4488050000000  0.4890000000000  0.4522930000000 1.0
C      1  0.5512790000000  0.5539870000000  0.4873930000000 1.0
C      1  0.5101510000000  0.4492130000000  0.5528650000000 1.0
C      1  0.4480110000000  0.5098290000000  0.5469210000000 1.0
C      1  0.5513140000000  0.5109280000000  0.4521350000000 1.0
C      1  0.5519660000000  0.4901510000000  0.5467880000000 1.0
C      1  0.5489620000000  0.4474700000000  0.5129740000000 1.0
C      1  0.4487400000000  0.4463930000000  0.4873830000000 1.0
C      1  0.4509460000000  0.5524020000000  0.5129810000000 1.0
C      1  0.5097040000000  0.5530800000000  0.4484110000000 1.0
C      1  0.4898380000000  0.5507140000000  0.5529170000000 1.0
C      1  0.4903370000000  0.4468980000000  0.4485120000000 1.0
C      1  0.4580750000000  0.4671370000000  0.5383770000000 1.0
C      1  0.5365970000000  0.4576990000000  0.4733910000000 1.0
C      1  0.4679600000000  0.5401110000000  0.4594830000000 1.0
C      1  0.4575330000000  0.5302510000000  0.4564860000000 1.0
C      1  0.5418630000000  0.5328230000000  0.5382090000000 1.0
C      1  0.5425770000000  0.4698390000000  0.4566040000000 1.0
C      1  0.5451090000000  0.5440110000000  0.5290520000000 1.0
C      1  0.4631360000000  0.5433040000000  0.4730020000000 1.0
C      1  0.4548070000000  0.4559700000000  0.5292010000000 1.0
C      1  0.4717500000000  0.4624420000000  0.5409940000000 1.0
C      1  0.5319100000000  0.4602110000000  0.4597550000000 1.0
C      1  0.5281940000000  0.5375020000000  0.5408790000000 1.0
C      1  0.5413230000000  0.4729510000000  0.5367740000000 1.0
C      1  0.4610950000000  0.4580070000000  0.4680230000000 1.0
C      1  0.5294070000000  0.5455260000000  0.4572830000000 1.0
C      1  0.5424120000000  0.5287050000000  0.4629670000000 1.0
C      1  0.4586190000000  0.5270210000000  0.5368700000000 1.0
C      1  0.4588040000000  0.4717650000000  0.4633930000000 1.0
C      1  0.4608630000000  0.5410010000000  0.5327750000000 1.0
C      1  0.5393130000000  0.5423450000000  0.4676560000000 1.0
C      1  0.5390810000000  0.4589630000000  0.5326960000000 1.0
C      1  0.5300180000000  0.4558770000000  0.5440070000000 1.0
C      1  0.4707110000000  0.4546250000000  0.4573830000000 1.0
C      1  0.4699530000000  0.5440800000000  0.5440710000000 1.0
C      1  0.5690860000000  0.4837430000000  0.4627200000000 1.0
C      1  0.4597400000000  0.5692370000000  0.4834200000000 1.0
C      1  0.4814500000000  0.4605510000000  0.5688220000000 1.0
C      1  0.5701620000000  0.5161580000000  0.5356120000000 1.0
C      1  0.4310880000000  0.5162410000000  0.4626440000000 1.0
C      1  0.4297790000000  0.4838050000000  0.5358630000000 1.0
C      1  0.4617480000000  0.4296950000000  0.5154970000000 1.0
C      1  0.5401910000000  0.4302010000000  0.4836070000000 1.0
C      1  0.5382060000000  0.5704220000000  0.5156050000000 1.0
C      1  0.4847120000000  0.5371380000000  0.4309630000000 1.0
C      1  0.5186020000000  0.5393970000000  0.5687720000000 1.0
C      1  0.5154590000000  0.4626920000000  0.4310710000000 1.0
C      1  0.4314390000000  0.4821220000000  0.4596530000000 1.0
C      1  0.5367240000000  0.5711880000000  0.4845400000000 1.0
C      1  0.5153710000000  0.4637190000000  0.5698020000000 1.0
C      1  0.4309340000000  0.5171880000000  0.5388960000000 1.0
C      1  0.5682220000000  0.5182150000000  0.4594460000000 1.0
C      1  0.5690210000000  0.4827630000000  0.5387720000000 1.0
C      1  0.5370260000000  0.4301620000000  0.5171690000000 1.0
C      1  0.4630760000000  0.4289800000000  0.4844990000000 1.0
C      1  0.4630540000000  0.5699410000000  0.5172490000000 1.0
C      1  0.5154620000000  0.5390680000000  0.4310370000000 1.0
C      1  0.4846590000000  0.5362260000000  0.5698570000000 1.0
C      1  0.4847350000000  0.4608780000000  0.4311020000000 1.0
C      1  0.4660750000000  0.4929960000000  0.5640820000000 1.0
C      1  0.5644700000000  0.4668950000000  0.4943700000000 1.0
C      1  0.4923210000000  0.5670360000000  0.4679670000000 1.0
C      1  0.4694250000000  0.5047940000000  0.4355290000000 1.0
C      1  0.5339670000000  0.5069700000000  0.5639830000000 1.0
C      1  0.5306700000000  0.4951690000000  0.4355430000000 1.0
C      1  0.5671750000000  0.5333020000000  0.5040420000000 1.0
C      1  0.4356110000000  0.5329840000000  0.4943730000000 1.0
C      1  0.4327120000000  0.4667540000000  0.5042630000000 1.0
C      1  0.4926790000000  0.4345070000000  0.5326350000000 1.0
C      1  0.5075470000000  0.4327910000000  0.4679210000000 1.0
C      1  0.5072990000000  0.5655170000000  0.5327230000000 1.0
C      1  0.5330440000000  0.4947470000000  0.5641560000000 1.0
C      1  0.4335180000000  0.4660960000000  0.4920730000000 1.0
C      1  0.5045510000000  0.5675790000000  0.4686370000000 1.0
C      1  0.5308930000000  0.5074270000000  0.4359400000000 1.0
C      1  0.4669780000000  0.5052200000000  0.5642420000000 1.0
C      1  0.4692340000000  0.4925360000000  0.4359030000000 1.0
C      1  0.4354500000000  0.5334680000000  0.5066250000000 1.0
C      1  0.5663460000000  0.5339620000000  0.4918350000000 1.0
C      1  0.5645680000000  0.4663750000000  0.5066210000000 1.0
C      1  0.5049230000000  0.4338960000000  0.5330790000000 1.0
C      1  0.4953390000000  0.4323880000000  0.4687130000000 1.0
C      1  0.4950550000000  0.5661050000000  0.5331970000000 1.0
C      1  0.4718180000000  0.4368480000000  0.4776130000000 1.0
C      1  0.4777700000000  0.4689710000000  0.4400810000000 1.0
C      1  0.4381720000000  0.4763730000000  0.4703240000000 1.0
C      1  0.4716750000000  0.5621480000000  0.5244990000000 1.0
C      1  0.5281600000000  0.5632940000000  0.4774800000000 1.0
C      1  0.5283040000000  0.4378410000000  0.5244020000000 1.0
C      1  0.4769280000000  0.5286280000000  0.5608310000000 1.0
C      1  0.5223960000000  0.5310410000000  0.4401050000000 1.0
C      1  0.5230790000000  0.4713360000000  0.5607680000000 1.0
C      1  0.4380180000000  0.5228970000000  0.5285430000000 1.0
C      1  0.5607940000000  0.5242510000000  0.4697380000000 1.0
C      1  0.5619130000000  0.4770220000000  0.5284540000000 1.0
C      1  0.5294920000000  0.4367720000000  0.4778670000000 1.0
C      1  0.5221560000000  0.4713920000000  0.4390990000000 1.0
C      1  0.5603680000000  0.4764070000000  0.4709870000000 1.0
C      1  0.5303710000000  0.5612530000000  0.5227160000000 1.0
C      1  0.4700500000000  0.5619380000000  0.4774200000000 1.0
C      1  0.4695660000000  0.4388010000000  0.5227060000000 1.0
C      1  0.5239960000000  0.5291010000000  0.5612940000000 1.0
C      1  0.4779150000000  0.5285730000000  0.4390200000000 1.0
C      1  0.4760310000000  0.4708500000000  0.5613680000000 1.0
C      1  0.5625690000000  0.5238140000000  0.5271150000000 1.0
C      1  0.4397870000000  0.5236180000000  0.4708890000000 1.0
C      1  0.4373440000000  0.4761600000000  0.5273380000000 1.0
C      1  0.4548330000000  0.4941480000000  0.4647250000000 1.0
C      1  0.4611010000000  0.4545070000000  0.4926750000000 1.0
C      1  0.4940270000000  0.4592540000000  0.4563900000000 1.0
C      1  0.4541890000000  0.5047700000000  0.5345410000000 1.0
C      1  0.5450340000000  0.5059750000000  0.4645780000000 1.0
C      1  0.5457670000000  0.4951880000000  0.5344090000000 1.0
C      1  0.4635230000000  0.5449810000000  0.5086670000000 1.0
C      1  0.5389210000000  0.5456750000000  0.4925240000000 1.0
C      1  0.5363770000000  0.4548840000000  0.5086020000000 1.0
C      1  0.4929920000000  0.5384040000000  0.5448310000000 1.0
C      1  0.5060710000000  0.5407230000000  0.4563570000000 1.0
C      1  0.5069840000000  0.4615430000000  0.5448020000000 1.0
C      1  0.5440010000000  0.4929650000000  0.4624250000000 1.0
C      1  0.5349510000000  0.4534930000000  0.4955440000000 1.0
C      1  0.5073160000000  0.4602710000000  0.4563330000000 1.0
C      1  0.5450850000000  0.5083740000000  0.5354930000000 1.0
C      1  0.4561300000000  0.5071070000000  0.4624460000000 1.0
C      1  0.4548700000000  0.4915870000000  0.5356440000000 1.0
C      1  0.5400420000000  0.5454520000000  0.5058360000000 1.0
C      1  0.4649050000000  0.5461150000000  0.4955670000000 1.0
C      1  0.4598660000000  0.4546850000000  0.5059770000000 1.0
C      1  0.5059690000000  0.5360740000000  0.5454170000000 1.0
C      1  0.4927710000000  0.5397200000000  0.4562380000000 1.0
C      1  0.4940060000000  0.4638680000000  0.5454150000000 1.0
C      1  0.5659740000000  0.4933290000000  0.5465010000000 1.0
C      1  0.5473290000000  0.5673120000000  0.4921230000000 1.0
C      1  0.4934130000000  0.5464120000000  0.5664060000000 1.0
C      1  0.5653440000000  0.5073330000000  0.4523090000000 1.0
C      1  0.4340050000000  0.5066560000000  0.5466650000000 1.0
C      1  0.4347940000000  0.4926980000000  0.4521980000000 1.0
C      1  0.5469640000000  0.4337740000000  0.5086370000000 1.0
C      1  0.4525300000000  0.4329600000000  0.4920740000000 1.0
C      1  0.4531920000000  0.5661220000000  0.5087010000000 1.0
C      1  0.4936470000000  0.4511280000000  0.4349100000000 1.0
C      1  0.5066190000000  0.4535250000000  0.5663650000000 1.0
C      1  0.5065040000000  0.5487740000000  0.4347950000000 1.0
C      1  0.4336210000000  0.4921690000000  0.5458260000000 1.0
C      1  0.4523990000000  0.5662060000000  0.4941910000000 1.0
C      1  0.5080250000000  0.5471630000000  0.5661480000000 1.0
C      1  0.4350090000000  0.5072860000000  0.4528880000000 1.0
C      1  0.5663610000000  0.5078140000000  0.5456120000000 1.0
C      1  0.5651100000000  0.4927280000000  0.4530160000000 1.0
C      1  0.4519150000000  0.4332000000000  0.5064860000000 1.0
C      1  0.5477800000000  0.4337050000000  0.4941220000000 1.0
C      1  0.5479790000000  0.5669490000000  0.5065340000000 1.0
C      1  0.5080230000000  0.4518590000000  0.4347240000000 1.0
C      1  0.4920060000000  0.4527740000000  0.5661430000000 1.0
C      1  0.4921420000000  0.5480130000000  0.4345360000000 1.0
C      1  0.4471420000000  0.5452440000000  0.5244580000000 1.0
C      1  0.5217590000000  0.4443290000000  0.5461620000000 1.0
C      1  0.5432900000000  0.5227790000000  0.4494970000000 1.0
C      1  0.4464610000000  0.4537700000000  0.4756190000000 1.0
C      1  0.5527730000000  0.4546720000000  0.5244250000000 1.0
C      1  0.5536400000000  0.5467530000000  0.4755470000000 1.0
C      1  0.5214180000000  0.5573220000000  0.4555330000000 1.0
C      1  0.4782200000000  0.5556190000000  0.5462440000000 1.0
C      1  0.4785700000000  0.4427590000000  0.4556280000000 1.0
C      1  0.5436220000000  0.4787100000000  0.5501410000000 1.0
C      1  0.4570750000000  0.4772950000000  0.4497670000000 1.0
C      1  0.4563610000000  0.5212670000000  0.5502470000000 1.0
C      1  0.5568460000000  0.5460610000000  0.5210600000000 1.0
C      1  0.4771070000000  0.4489170000000  0.5435930000000 1.0
C      1  0.4560480000000  0.5218540000000  0.4450110000000 1.0
C      1  0.5502240000000  0.4558020000000  0.4788280000000 1.0
C      1  0.4430660000000  0.4539350000000  0.5212130000000 1.0
C      1  0.4496170000000  0.5443760000000  0.4787860000000 1.0
C      1  0.4758150000000  0.5544960000000  0.4550730000000 1.0
C      1  0.5228660000000  0.5510260000000  0.5435590000000 1.0
C      1  0.5242670000000  0.4454800000000  0.4554510000000 1.0
C      1  0.4539150000000  0.4757030000000  0.5520130000000 1.0
C      1  0.5440430000000  0.4781560000000  0.4450850000000 1.0
C      1  0.5460770000000  0.5242680000000  0.5518560000000 1.0
C      1  0.5183530000000  0.5293910000000  0.5472250000000 1.0
C      1  0.5470830000000  0.5210920000000  0.5292930000000 1.0
C      1  0.5347080000000  0.5474260000000  0.5191740000000 1.0
C      1  0.5191570000000  0.4681810000000  0.4548260000000 1.0
C      1  0.4816260000000  0.4705510000000  0.5472810000000 1.0
C      1  0.4808170000000  0.5319250000000  0.4548720000000 1.0
C      1  0.5464410000000  0.4794390000000  0.4670200000000 1.0
C      1  0.4528490000000  0.4788660000000  0.5294590000000 1.0
C      1  0.4537630000000  0.5206710000000  0.4669420000000 1.0
C      1  0.5286360000000  0.4510300000000  0.4831300000000 1.0
C      1  0.4651980000000  0.4526380000000  0.5192870000000 1.0
C      1  0.4715140000000  0.5482840000000  0.4833560000000 1.0
C      1  0.4796070000000  0.5334780000000  0.5471660000000 1.0
C      1  0.4522380000000  0.5174390000000  0.5284570000000 1.0
C      1  0.4697440000000  0.5466830000000  0.5213710000000 1.0
C      1  0.4808580000000  0.4647440000000  0.4540500000000 1.0
C      1  0.5203700000000  0.4664790000000  0.5471150000000 1.0
C      1  0.5192950000000  0.5353170000000  0.4540710000000 1.0
C      1  0.4522710000000  0.4817490000000  0.4711760000000 1.0
C      1  0.5477060000000  0.4825130000000  0.5283400000000 1.0
C      1  0.5472550000000  0.5181840000000  0.4712700000000 1.0
C      1  0.4689870000000  0.4527540000000  0.4807870000000 1.0
C      1  0.5301780000000  0.4532880000000  0.5213110000000 1.0
C      1  0.5311840000000  0.5472730000000  0.4805060000000 1.0
END
