TITL C-102689-8077-22 -39.4225048605831 1000000 -1766.39482096101 0 0 240 (Th) n - 1
REM
REM in /home/chem/mssmkc/work/GAP20/Larger-Clusters/Only-C240-new-series
REM
REM
REM
REM
REM
REM ./C.cell (0485df7495ed2a90f93db84a705cd676)
REM
REM compiler GCC version 8.3.0
REM options -cpp -mtune=generic -march=x86-64 -g -O0
REM seed 1255422228 1276443016 1098030177 74086662 1203041566 1029480582 -841192284 -2087493520 147044258 1396349940 978053904 -1631901228 960618962 -1679350626 1653818380 -804271956 -791889740 -346864190 646307851 -44741888 -1351681536 296539623 713175977 -373368138 -781345258 -231929466 1712167448 -683299437 -1351650129 1507876666 1984781925 -781905780 1613094155
REM
CELL 1.54180  100.00000  100.00000  100.00000   90.00000   90.00000   90.00000
LATT -1
SFAC C  
C      1  0.4716370000000  0.5616620000000  0.4834300000000 1.0
C      1  0.4834260000000  0.4716340000000  0.5616600000000 1.0
C      1  0.5616630000000  0.4834300000000  0.4716390000000 1.0
C      1  0.5283650000000  0.4383390000000  0.4834260000000 1.0
C      1  0.5283610000000  0.5616610000000  0.5165760000000 1.0
C      1  0.4716370000000  0.4383370000000  0.5165680000000 1.0
C      1  0.5165690000000  0.5283600000000  0.5616640000000 1.0
C      1  0.5165750000000  0.4716400000000  0.4383370000000 1.0
C      1  0.4834300000000  0.5283660000000  0.4383390000000 1.0
C      1  0.4383390000000  0.5165730000000  0.4716350000000 1.0
C      1  0.4383370000000  0.4834260000000  0.5283600000000 1.0
C      1  0.5616600000000  0.5165720000000  0.5283660000000 1.0
C      1  0.4716350000000  0.5616600000000  0.5165740000000 1.0
C      1  0.4834310000000  0.4716400000000  0.4383360000000 1.0
C      1  0.5616610000000  0.4834270000000  0.5283650000000 1.0
C      1  0.5283630000000  0.4383380000000  0.5165700000000 1.0
C      1  0.5283630000000  0.5616630000000  0.4834320000000 1.0
C      1  0.4716390000000  0.4383390000000  0.4834240000000 1.0
C      1  0.5165740000000  0.5283670000000  0.4383400000000 1.0
C      1  0.5165700000000  0.4716340000000  0.5616610000000 1.0
C      1  0.4834250000000  0.5283600000000  0.5616630000000 1.0
C      1  0.4383370000000  0.5165700000000  0.5283610000000 1.0
C      1  0.4383400000000  0.4834290000000  0.4716340000000 1.0
C      1  0.5616630000000  0.5165740000000  0.4716400000000 1.0
C      1  0.4921330000000  0.5387370000000  0.4445310000000 1.0
C      1  0.4445270000000  0.4921290000000  0.5387310000000 1.0
C      1  0.5387350000000  0.4445300000000  0.4921300000000 1.0
C      1  0.5078710000000  0.4612690000000  0.4445270000000 1.0
C      1  0.5078660000000  0.5387310000000  0.5554740000000 1.0
C      1  0.4921300000000  0.4612630000000  0.5554690000000 1.0
C      1  0.5554700000000  0.5078670000000  0.5387360000000 1.0
C      1  0.5554730000000  0.4921340000000  0.4612680000000 1.0
C      1  0.4445300000000  0.5078700000000  0.4612640000000 1.0
C      1  0.4612660000000  0.5554710000000  0.4921330000000 1.0
C      1  0.4612670000000  0.4445280000000  0.5078640000000 1.0
C      1  0.5387330000000  0.5554710000000  0.5078730000000 1.0
C      1  0.4921290000000  0.5387310000000  0.5554730000000 1.0
C      1  0.4445300000000  0.4921330000000  0.4612640000000 1.0
C      1  0.5387350000000  0.4445290000000  0.5078670000000 1.0
C      1  0.5078670000000  0.4612630000000  0.5554690000000 1.0
C      1  0.5078700000000  0.5387370000000  0.4445310000000 1.0
C      1  0.4921340000000  0.4612690000000  0.4445260000000 1.0
C      1  0.5554730000000  0.5078720000000  0.4612690000000 1.0
C      1  0.5554700000000  0.4921300000000  0.5387360000000 1.0
C      1  0.4445270000000  0.5078660000000  0.5387320000000 1.0
C      1  0.4612650000000  0.5554700000000  0.5078700000000 1.0
C      1  0.4612670000000  0.4445290000000  0.4921270000000 1.0
C      1  0.5387330000000  0.5554720000000  0.4921360000000 1.0
C      1  0.5158720000000  0.5146380000000  0.4331230000000 1.0
C      1  0.4331210000000  0.5158680000000  0.5146330000000 1.0
C      1  0.5146350000000  0.4331210000000  0.5158660000000 1.0
C      1  0.4841340000000  0.4853690000000  0.4331210000000 1.0
C      1  0.4841280000000  0.5146310000000  0.5668780000000 1.0
C      1  0.5158670000000  0.4853620000000  0.5668780000000 1.0
C      1  0.5668780000000  0.4841310000000  0.5146360000000 1.0
C      1  0.5668780000000  0.5158710000000  0.4853690000000 1.0
C      1  0.4331230000000  0.4841310000000  0.4853620000000 1.0
C      1  0.4853640000000  0.5668770000000  0.5158720000000 1.0
C      1  0.4853670000000  0.4331230000000  0.4841270000000 1.0
C      1  0.5146340000000  0.5668790000000  0.4841350000000 1.0
C      1  0.5158660000000  0.5146310000000  0.5668790000000 1.0
C      1  0.4331220000000  0.5158690000000  0.4853640000000 1.0
C      1  0.5146360000000  0.4331230000000  0.4841280000000 1.0
C      1  0.4841280000000  0.4853620000000  0.5668760000000 1.0
C      1  0.4841330000000  0.5146380000000  0.4331220000000 1.0
C      1  0.5158720000000  0.4853690000000  0.4331220000000 1.0
C      1  0.5668790000000  0.4841320000000  0.4853670000000 1.0
C      1  0.5668770000000  0.5158690000000  0.5146380000000 1.0
C      1  0.4331220000000  0.4841290000000  0.5146310000000 1.0
C      1  0.4853650000000  0.5668790000000  0.4841340000000 1.0
C      1  0.4853660000000  0.4331210000000  0.5158650000000 1.0
C      1  0.5146330000000  0.5668770000000  0.5158730000000 1.0
C      1  0.5742300000000  0.4928890000000  0.4926050000000 1.0
C      1  0.4926020000000  0.5742300000000  0.4928910000000 1.0
C      1  0.4928850000000  0.4925990000000  0.5742290000000 1.0
C      1  0.4257700000000  0.5071120000000  0.4926000000000 1.0
C      1  0.4257700000000  0.4928860000000  0.5073940000000 1.0
C      1  0.5742300000000  0.5071130000000  0.5074000000000 1.0
C      1  0.5073980000000  0.4257700000000  0.4928840000000 1.0
C      1  0.5073960000000  0.5742300000000  0.5071170000000 1.0
C      1  0.4926040000000  0.4257700000000  0.5071080000000 1.0
C      1  0.5071100000000  0.5073930000000  0.5742310000000 1.0
C      1  0.5071160000000  0.4926070000000  0.4257700000000 1.0
C      1  0.4928900000000  0.5074010000000  0.4257700000000 1.0
C      1  0.5742300000000  0.4928880000000  0.5073990000000 1.0
C      1  0.4926020000000  0.5742290000000  0.5071160000000 1.0
C      1  0.4928900000000  0.4926070000000  0.4257690000000 1.0
C      1  0.4257700000000  0.5071110000000  0.5073950000000 1.0
C      1  0.4257700000000  0.4928870000000  0.4926000000000 1.0
C      1  0.5742300000000  0.5071140000000  0.4926060000000 1.0
C      1  0.5073980000000  0.4257700000000  0.5071090000000 1.0
C      1  0.5073960000000  0.5742300000000  0.4928920000000 1.0
C      1  0.4926040000000  0.4257700000000  0.4928830000000 1.0
C      1  0.5071150000000  0.5074010000000  0.4257710000000 1.0
C      1  0.5071100000000  0.4925990000000  0.5742300000000 1.0
C      1  0.4928840000000  0.5073930000000  0.5742300000000 1.0
C      1  0.4427300000000  0.5369370000000  0.5156860000000 1.0
C      1  0.5156860000000  0.4427290000000  0.5369360000000 1.0
C      1  0.5369410000000  0.5156900000000  0.4427330000000 1.0
C      1  0.5572690000000  0.4630610000000  0.5156870000000 1.0
C      1  0.5572690000000  0.5369400000000  0.4843170000000 1.0
C      1  0.4427320000000  0.4630610000000  0.4843090000000 1.0
C      1  0.4843110000000  0.5572670000000  0.5369410000000 1.0
C      1  0.4843160000000  0.4427330000000  0.4630580000000 1.0
C      1  0.5156870000000  0.5572710000000  0.4630650000000 1.0
C      1  0.4630640000000  0.4843160000000  0.4427290000000 1.0
C      1  0.4630590000000  0.5156830000000  0.5572680000000 1.0
C      1  0.5369370000000  0.4843110000000  0.5572700000000 1.0
C      1  0.4427310000000  0.5369390000000  0.4843130000000 1.0
C      1  0.5156890000000  0.4427330000000  0.4630590000000 1.0
C      1  0.5369360000000  0.5156840000000  0.5572710000000 1.0
C      1  0.5572700000000  0.4630630000000  0.4843140000000 1.0
C      1  0.5572680000000  0.5369390000000  0.5156910000000 1.0
C      1  0.4427310000000  0.4630600000000  0.5156830000000 1.0
C      1  0.4843140000000  0.5572710000000  0.4630640000000 1.0
C      1  0.4843130000000  0.4427290000000  0.5369350000000 1.0
C      1  0.5156840000000  0.5572670000000  0.5369420000000 1.0
C      1  0.4630590000000  0.4843100000000  0.5572670000000 1.0
C      1  0.4630630000000  0.5156890000000  0.4427300000000 1.0
C      1  0.5369410000000  0.4843170000000  0.4427320000000 1.0
C      1  0.4514520000000  0.5168770000000  0.4512040000000 1.0
C      1  0.4512050000000  0.4514480000000  0.5168710000000 1.0
C      1  0.5168780000000  0.4512080000000  0.4514480000000 1.0
C      1  0.5485520000000  0.4831280000000  0.4512060000000 1.0
C      1  0.5485480000000  0.5168740000000  0.5487980000000 1.0
C      1  0.4514480000000  0.4831210000000  0.5487920000000 1.0
C      1  0.5487940000000  0.5485500000000  0.5168800000000 1.0
C      1  0.5487960000000  0.4514520000000  0.4831240000000 1.0
C      1  0.4512050000000  0.5485500000000  0.4831250000000 1.0
C      1  0.4831260000000  0.5487970000000  0.4514520000000 1.0
C      1  0.4831230000000  0.4512020000000  0.5485470000000 1.0
C      1  0.5168730000000  0.5487930000000  0.5485530000000 1.0
C      1  0.4514480000000  0.5168720000000  0.5487940000000 1.0
C      1  0.4512060000000  0.4514500000000  0.4831200000000 1.0
C      1  0.5168740000000  0.4512030000000  0.5485480000000 1.0
C      1  0.5485480000000  0.4831230000000  0.5487960000000 1.0
C      1  0.5485520000000  0.5168790000000  0.4512080000000 1.0
C      1  0.4514520000000  0.4831260000000  0.4512020000000 1.0
C      1  0.5487950000000  0.5485520000000  0.4831290000000 1.0
C      1  0.5487950000000  0.4514500000000  0.5168750000000 1.0
C      1  0.4512040000000  0.5485480000000  0.5168760000000 1.0
C      1  0.4831220000000  0.5487920000000  0.5485520000000 1.0
C      1  0.4831270000000  0.4512070000000  0.4514470000000 1.0
C      1  0.5168770000000  0.5487980000000  0.4514530000000 1.0
C      1  0.4724340000000  0.5068770000000  0.5625690000000 1.0
C      1  0.5625700000000  0.4724370000000  0.5068820000000 1.0
C      1  0.5068810000000  0.5625710000000  0.4724400000000 1.0
C      1  0.5275620000000  0.4931160000000  0.5625700000000 1.0
C      1  0.5275660000000  0.5068850000000  0.4374320000000 1.0
C      1  0.4724390000000  0.4931220000000  0.4374290000000 1.0
C      1  0.4374300000000  0.5275630000000  0.5068800000000 1.0
C      1  0.4374310000000  0.4724360000000  0.4931150000000 1.0
C      1  0.5625690000000  0.5275650000000  0.4931230000000 1.0
C      1  0.4931210000000  0.4374320000000  0.4724330000000 1.0
C      1  0.4931170000000  0.5625680000000  0.5275670000000 1.0
C      1  0.5068810000000  0.4374290000000  0.5275610000000 1.0
C      1  0.4724390000000  0.5068840000000  0.4374300000000 1.0
C      1  0.5625700000000  0.4724370000000  0.4931200000000 1.0
C      1  0.5068790000000  0.5625680000000  0.5275670000000 1.0
C      1  0.5275660000000  0.4931230000000  0.4374310000000 1.0
C      1  0.5275610000000  0.5068780000000  0.5625710000000 1.0
C      1  0.4724340000000  0.4931160000000  0.5625680000000 1.0
C      1  0.4374300000000  0.5275630000000  0.4931180000000 1.0
C      1  0.4374310000000  0.4724350000000  0.5068770000000 1.0
C      1  0.5625690000000  0.5275640000000  0.5068850000000 1.0
C      1  0.4931190000000  0.4374290000000  0.5275600000000 1.0
C      1  0.4931190000000  0.5625710000000  0.4724390000000 1.0
C      1  0.5068830000000  0.4374320000000  0.4724330000000 1.0
C      1  0.4694010000000  0.4716430000000  0.4403020000000 1.0
C      1  0.4403060000000  0.4693990000000  0.4716370000000 1.0
C      1  0.4716430000000  0.4403060000000  0.4693940000000 1.0
C      1  0.5306040000000  0.5283630000000  0.4403070000000 1.0
C      1  0.5306000000000  0.4716380000000  0.5596950000000 1.0
C      1  0.4693950000000  0.5283560000000  0.5596960000000 1.0
C      1  0.5596960000000  0.5306040000000  0.4716450000000 1.0
C      1  0.5596950000000  0.4693970000000  0.5283600000000 1.0
C      1  0.4403030000000  0.5306000000000  0.5283590000000 1.0
C      1  0.5283600000000  0.5596970000000  0.4694020000000 1.0
C      1  0.5283590000000  0.4403030000000  0.5306000000000 1.0
C      1  0.4716390000000  0.5596930000000  0.5306040000000 1.0
C      1  0.4693960000000  0.4716370000000  0.5596930000000 1.0
C      1  0.4403040000000  0.4693960000000  0.5283550000000 1.0
C      1  0.4716400000000  0.4403030000000  0.5305980000000 1.0
C      1  0.5305990000000  0.5283570000000  0.5596980000000 1.0
C      1  0.5306050000000  0.4716440000000  0.4403040000000 1.0
C      1  0.4694000000000  0.5283620000000  0.4403050000000 1.0
C      1  0.5596940000000  0.5306010000000  0.5283630000000 1.0
C      1  0.5596970000000  0.4694000000000  0.4716410000000 1.0
C      1  0.4403050000000  0.5306030000000  0.4716400000000 1.0
C      1  0.5283570000000  0.5596940000000  0.5306060000000 1.0
C      1  0.5283610000000  0.4403070000000  0.4693960000000 1.0
C      1  0.4716410000000  0.5596960000000  0.4694000000000 1.0
C      1  0.5381860000000  0.5550700000000  0.4612680000000 1.0
C      1  0.4612610000000  0.5381820000000  0.5550680000000 1.0
C      1  0.5550670000000  0.4612630000000  0.5381850000000 1.0
C      1  0.4618170000000  0.4449340000000  0.4612600000000 1.0
C      1  0.4618120000000  0.5550650000000  0.5387370000000 1.0
C      1  0.5381850000000  0.4449310000000  0.5387350000000 1.0
C      1  0.5387340000000  0.4618120000000  0.5550670000000 1.0
C      1  0.5387380000000  0.5381890000000  0.4449360000000 1.0
C      1  0.4612670000000  0.4618170000000  0.4449290000000 1.0
C      1  0.4449310000000  0.5387330000000  0.5381850000000 1.0
C      1  0.4449350000000  0.4612650000000  0.4618110000000 1.0
C      1  0.5550680000000  0.5387390000000  0.4618190000000 1.0
C      1  0.5381830000000  0.5550660000000  0.5387400000000 1.0
C      1  0.4612660000000  0.5381880000000  0.4449330000000 1.0
C      1  0.5550690000000  0.4612670000000  0.4618150000000 1.0
C      1  0.4618140000000  0.4449300000000  0.5387320000000 1.0
C      1  0.4618150000000  0.5550690000000  0.4612650000000 1.0
C      1  0.5381880000000  0.4449350000000  0.4612630000000 1.0
C      1  0.5387390000000  0.4618180000000  0.4449320000000 1.0
C      1  0.5387330000000  0.5381830000000  0.5550710000000 1.0
C      1  0.4612620000000  0.4618110000000  0.5550640000000 1.0
C      1  0.4449330000000  0.5387370000000  0.4618150000000 1.0
C      1  0.4449320000000  0.4612610000000  0.5381810000000 1.0
C      1  0.5550650000000  0.5387350000000  0.5381900000000 1.0
C      1  0.5316720000000  0.4511620000000  0.4499940000000 1.0
C      1  0.4499970000000  0.5316710000000  0.4511590000000 1.0
C      1  0.4511590000000  0.4499930000000  0.5316650000000 1.0
C      1  0.4683320000000  0.5488430000000  0.4499970000000 1.0
C      1  0.4683290000000  0.4511560000000  0.5500010000000 1.0
C      1  0.5316670000000  0.5488390000000  0.5500080000000 1.0
C      1  0.5500070000000  0.4683340000000  0.4511590000000 1.0
C      1  0.5500020000000  0.5316680000000  0.5488440000000 1.0
C      1  0.4499940000000  0.4683270000000  0.5488370000000 1.0
C      1  0.5488390000000  0.5500040000000  0.5316740000000 1.0
C      1  0.5488430000000  0.4499980000000  0.4683300000000 1.0
C      1  0.4511600000000  0.5500050000000  0.4683310000000 1.0
C      1  0.5316680000000  0.4511570000000  0.5500030000000 1.0
C      1  0.4499930000000  0.5316660000000  0.5488410000000 1.0
C      1  0.4511610000000  0.4499960000000  0.4683260000000 1.0
C      1  0.4683280000000  0.5488380000000  0.5500060000000 1.0
C      1  0.4683330000000  0.4511610000000  0.4499920000000 1.0
C      1  0.5316710000000  0.5488440000000  0.4499990000000 1.0
C      1  0.5500030000000  0.4683290000000  0.5488410000000 1.0
C      1  0.5500060000000  0.5316730000000  0.4511630000000 1.0
C      1  0.4499980000000  0.4683320000000  0.4511560000000 1.0
C      1  0.5488410000000  0.5500070000000  0.4683350000000 1.0
C      1  0.5488400000000  0.4499950000000  0.5316690000000 1.0
C      1  0.4511570000000  0.5500020000000  0.5316700000000 1.0
END
