TITL C-102688-8074-62 8.28566809201905 1000000 -1755.96844355807 0 0 240 (C1) n - 1
REM
REM in /home/chem/mssmkc/work/GAP20/Larger-Clusters/Only-C240-new-series
REM
REM
REM
REM
REM
REM ./C.cell (0485df7495ed2a90f93db84a705cd676)
REM
REM compiler GCC version 8.3.0
REM options -cpp -mtune=generic -march=x86-64 -g -O0
REM seed 872539865 1099360085 316174079 -2030294513 1560294135 1860680514 1458729448 -1018983827 1720829687 -99065296 244792407 563262729 -1363730271 -1245902131 -715381936 -1603566261 -1244273211 -459657724 339736788 -712773449 1909856447 1570141346 1019363066 8579157 92212234 1817605391 464712582 685706233 -2109510528 547538050 400347740 1103140136 1020089746
REM
CELL 1.54180  100.00000  100.00000  100.00000   90.00000   90.00000   90.00000
LATT -1
SFAC C  
C      1  0.4866780000000  0.5195660000000  0.4304420000000 1.0
C      1  0.5190020000000  0.4274570000000  0.4882550000000 1.0
C      1  0.4300450000000  0.4837340000000  0.5168800000000 1.0
C      1  0.4845630000000  0.4843740000000  0.5742810000000 1.0
C      1  0.5136470000000  0.5166340000000  0.5640340000000 1.0
C      1  0.5160320000000  0.4843720000000  0.4293480000000 1.0
C      1  0.5163050000000  0.5715250000000  0.5113450000000 1.0
C      1  0.4823590000000  0.4276870000000  0.5147110000000 1.0
C      1  0.4774800000000  0.5728610000000  0.4850240000000 1.0
C      1  0.4248440000000  0.5141100000000  0.4846640000000 1.0
C      1  0.5722530000000  0.4821770000000  0.4811150000000 1.0
C      1  0.5725630000000  0.5111950000000  0.5153300000000 1.0
C      1  0.5156930000000  0.5195930000000  0.4316330000000 1.0
C      1  0.4852560000000  0.4266530000000  0.4858600000000 1.0
C      1  0.5738830000000  0.4820290000000  0.5162240000000 1.0
C      1  0.5135990000000  0.4833170000000  0.5718170000000 1.0
C      1  0.4852960000000  0.5181530000000  0.5668160000000 1.0
C      1  0.4871680000000  0.4857680000000  0.4331210000000 1.0
C      1  0.4810520000000  0.5730240000000  0.5135520000000 1.0
C      1  0.5166990000000  0.4307280000000  0.5165430000000 1.0
C      1  0.5162460000000  0.5703400000000  0.4821210000000 1.0
C      1  0.5723700000000  0.5110070000000  0.4816510000000 1.0
C      1  0.4281670000000  0.4853790000000  0.4824070000000 1.0
C      1  0.4259390000000  0.5121580000000  0.5187440000000 1.0
C      1  0.5572400000000  0.4907360000000  0.4491850000000 1.0
C      1  0.4894750000000  0.4547800000000  0.5556610000000 1.0
C      1  0.4502750000000  0.5541170000000  0.4966010000000 1.0
C      1  0.5556670000000  0.5030450000000  0.5450530000000 1.0
C      1  0.4439060000000  0.4910930000000  0.5479540000000 1.0
C      1  0.4448040000000  0.5113970000000  0.4556510000000 1.0
C      1  0.4926190000000  0.5501020000000  0.4455090000000 1.0
C      1  0.5103170000000  0.4558580000000  0.4485820000000 1.0
C      1  0.5073880000000  0.5490860000000  0.5505360000000 1.0
C      1  0.4535950000000  0.4442870000000  0.5035240000000 1.0
C      1  0.5446190000000  0.5513970000000  0.5049880000000 1.0
C      1  0.5505440000000  0.4407820000000  0.4954810000000 1.0
C      1  0.4449780000000  0.4974190000000  0.4540530000000 1.0
C      1  0.5033800000000  0.4535740000000  0.5563700000000 1.0
C      1  0.5451460000000  0.5516920000000  0.4910440000000 1.0
C      1  0.4413040000000  0.5047940000000  0.5494660000000 1.0
C      1  0.5548430000000  0.4891220000000  0.5448640000000 1.0
C      1  0.5588140000000  0.5049920000000  0.4498960000000 1.0
C      1  0.5062160000000  0.5498830000000  0.4499910000000 1.0
C      1  0.4964950000000  0.4570740000000  0.4503970000000 1.0
C      1  0.4923530000000  0.5498860000000  0.5515850000000 1.0
C      1  0.5501650000000  0.4429190000000  0.5096670000000 1.0
C      1  0.4514950000000  0.5542680000000  0.5104780000000 1.0
C      1  0.4557580000000  0.4457200000000  0.4897460000000 1.0
C      1  0.5083240000000  0.4724790000000  0.4309370000000 1.0
C      1  0.4706160000000  0.4267610000000  0.5059360000000 1.0
C      1  0.4258790000000  0.5079950000000  0.4715620000000 1.0
C      1  0.5066780000000  0.5286900000000  0.5616280000000 1.0
C      1  0.4913640000000  0.4716210000000  0.5740260000000 1.0
C      1  0.4948440000000  0.5316200000000  0.4306590000000 1.0
C      1  0.4662560000000  0.5723910000000  0.4940440000000 1.0
C      1  0.5307330000000  0.4272830000000  0.4967290000000 1.0
C      1  0.5284380000000  0.5700250000000  0.5040880000000 1.0
C      1  0.4282540000000  0.4898030000000  0.5297040000000 1.0
C      1  0.5729270000000  0.5037710000000  0.5278840000000 1.0
C      1  0.5707870000000  0.4893730000000  0.4690210000000 1.0
C      1  0.4941940000000  0.4732730000000  0.4328930000000 1.0
C      1  0.5296300000000  0.4306210000000  0.5105270000000 1.0
C      1  0.5728250000000  0.5034030000000  0.4693020000000 1.0
C      1  0.4928450000000  0.5294840000000  0.5629650000000 1.0
C      1  0.5056030000000  0.4711920000000  0.5733960000000 1.0
C      1  0.5085510000000  0.5315770000000  0.4338770000000 1.0
C      1  0.5284160000000  0.5699580000000  0.4901200000000 1.0
C      1  0.4719960000000  0.4268950000000  0.4916410000000 1.0
C      1  0.4679710000000  0.5723720000000  0.5079510000000 1.0
C      1  0.5730230000000  0.4894960000000  0.5283210000000 1.0
C      1  0.4258550000000  0.5039390000000  0.5306870000000 1.0
C      1  0.4270690000000  0.4937930000000  0.4704970000000 1.0
C      1  0.5784990000000  0.5038790000000  0.4914290000000 1.0
C      1  0.5071990000000  0.4944860000000  0.5765240000000 1.0
C      1  0.4912370000000  0.5769550000000  0.5048920000000 1.0
C      1  0.5792390000000  0.4891020000000  0.5056500000000 1.0
C      1  0.4208480000000  0.5050280000000  0.5082240000000 1.0
C      1  0.4216710000000  0.4909530000000  0.4931180000000 1.0
C      1  0.5087980000000  0.5094620000000  0.4251130000000 1.0
C      1  0.4939350000000  0.4951520000000  0.4256810000000 1.0
C      1  0.4924990000000  0.5088670000000  0.5740060000000 1.0
C      1  0.4944410000000  0.4207250000000  0.4940810000000 1.0
C      1  0.5049290000000  0.5749220000000  0.4890550000000 1.0
C      1  0.5074830000000  0.4230870000000  0.5097830000000 1.0
C      1  0.4196200000000  0.5057020000000  0.4940870000000 1.0
C      1  0.4923570000000  0.4950610000000  0.5779380000000 1.0
C      1  0.5056090000000  0.5760840000000  0.5038940000000 1.0
C      1  0.4228190000000  0.4902940000000  0.5072590000000 1.0
C      1  0.5789130000000  0.5039650000000  0.5056360000000 1.0
C      1  0.5784900000000  0.4890310000000  0.4913570000000 1.0
C      1  0.4939340000000  0.5093770000000  0.4252410000000 1.0
C      1  0.5087240000000  0.4951150000000  0.4247220000000 1.0
C      1  0.5071690000000  0.5082890000000  0.5727380000000 1.0
C      1  0.5085370000000  0.4218700000000  0.4949810000000 1.0
C      1  0.4899900000000  0.5761730000000  0.4902120000000 1.0
C      1  0.4933450000000  0.4218590000000  0.5089470000000 1.0
C      1  0.4872090000000  0.5612800000000  0.5464400000000 1.0
C      1  0.5467820000000  0.5399730000000  0.4832610000000 1.0
C      1  0.5424000000000  0.4821190000000  0.5453040000000 1.0
C      1  0.4906790000000  0.4558450000000  0.4628990000000 1.0
C      1  0.5081290000000  0.5587920000000  0.4615010000000 1.0
C      1  0.5105510000000  0.4523280000000  0.5444230000000 1.0
C      1  0.5602950000000  0.4511560000000  0.5124600000000 1.0
C      1  0.4510640000000  0.5423000000000  0.5181220000000 1.0
C      1  0.4568290000000  0.4586790000000  0.4834520000000 1.0
C      1  0.5480470000000  0.5137590000000  0.4478220000000 1.0
C      1  0.4575180000000  0.4907710000000  0.4538070000000 1.0
C      1  0.4524670000000  0.5132600000000  0.5511110000000 1.0
C      1  0.5131980000000  0.5598630000000  0.5448520000000 1.0
C      1  0.4490900000000  0.5421030000000  0.4895560000000 1.0
C      1  0.4568350000000  0.4860140000000  0.5491890000000 1.0
C      1  0.5190670000000  0.4538220000000  0.4595410000000 1.0
C      1  0.4811610000000  0.5533510000000  0.4533510000000 1.0
C      1  0.4822090000000  0.4549160000000  0.5431610000000 1.0
C      1  0.4527910000000  0.4562390000000  0.5111120000000 1.0
C      1  0.5454160000000  0.5394990000000  0.5127250000000 1.0
C      1  0.5533930000000  0.4511400000000  0.4863960000000 1.0
C      1  0.4567770000000  0.5194270000000  0.4561740000000 1.0
C      1  0.5482360000000  0.4880710000000  0.4395780000000 1.0
C      1  0.5437620000000  0.5103080000000  0.5455060000000 1.0
C      1  0.4922340000000  0.5651950000000  0.5343940000000 1.0
C      1  0.5547620000000  0.5297150000000  0.4901450000000 1.0
C      1  0.5321980000000  0.4893880000000  0.5531460000000 1.0
C      1  0.4971230000000  0.4458470000000  0.4708840000000 1.0
C      1  0.4967740000000  0.5649490000000  0.4657720000000 1.0
C      1  0.5046210000000  0.4462740000000  0.5334120000000 1.0
C      1  0.5634340000000  0.4620920000000  0.5053900000000 1.0
C      1  0.4423740000000  0.5320200000000  0.5116630000000 1.0
C      1  0.4475890000000  0.4684470000000  0.4899400000000 1.0
C      1  0.5367290000000  0.5095950000000  0.4410110000000 1.0
C      1  0.4687160000000  0.4971790000000  0.4483730000000 1.0
C      1  0.4640250000000  0.5082930000000  0.5571440000000 1.0
C      1  0.5073010000000  0.5644650000000  0.5334740000000 1.0
C      1  0.4415500000000  0.5320430000000  0.4962010000000 1.0
C      1  0.4656190000000  0.4932580000000  0.5577770000000 1.0
C      1  0.5124810000000  0.4452800000000  0.4696940000000 1.0
C      1  0.4836360000000  0.5616610000000  0.4641880000000 1.0
C      1  0.4889020000000  0.4462420000000  0.5330490000000 1.0
C      1  0.4469820000000  0.4676660000000  0.5054180000000 1.0
C      1  0.5542270000000  0.5294360000000  0.5061430000000 1.0
C      1  0.5608540000000  0.4619910000000  0.4906840000000 1.0
C      1  0.4676070000000  0.5127820000000  0.4477710000000 1.0
C      1  0.5368690000000  0.4949460000000  0.4378260000000 1.0
C      1  0.5326570000000  0.5047230000000  0.5516990000000 1.0
C      1  0.4596110000000  0.4542780000000  0.5233880000000 1.0
C      1  0.4529160000000  0.5309720000000  0.4677000000000 1.0
C      1  0.5315820000000  0.4625820000000  0.4569070000000 1.0
C      1  0.4559380000000  0.5426100000000  0.4762020000000 1.0
C      1  0.5442540000000  0.4512470000000  0.4751370000000 1.0
C      1  0.5359670000000  0.5417210000000  0.5249580000000 1.0
C      1  0.4591710000000  0.4740380000000  0.5403710000000 1.0
C      1  0.5445860000000  0.5218660000000  0.5368040000000 1.0
C      1  0.5436250000000  0.4623610000000  0.4658790000000 1.0
C      1  0.5342660000000  0.5316100000000  0.5359570000000 1.0
C      1  0.4704060000000  0.4659470000000  0.5455430000000 1.0
C      1  0.4701550000000  0.5446830000000  0.4506990000000 1.0
C      1  0.5328780000000  0.4595230000000  0.5349610000000 1.0
C      1  0.5480450000000  0.5243790000000  0.4575570000000 1.0
C      1  0.4777200000000  0.4635490000000  0.4636230000000 1.0
C      1  0.5384300000000  0.5422300000000  0.4706050000000 1.0
C      1  0.4687560000000  0.4572100000000  0.4732200000000 1.0
C      1  0.4610960000000  0.5441620000000  0.5297050000000 1.0
C      1  0.5437260000000  0.4699130000000  0.5360690000000 1.0
C      1  0.4515540000000  0.5247710000000  0.5423480000000 1.0
C      1  0.4563250000000  0.4784580000000  0.4608360000000 1.0
C      1  0.4624160000000  0.5342460000000  0.5409570000000 1.0
C      1  0.5229590000000  0.4597650000000  0.5452110000000 1.0
C      1  0.5371760000000  0.5333750000000  0.4589980000000 1.0
C      1  0.5591870000000  0.5217830000000  0.4662000000000 1.0
C      1  0.5220450000000  0.4671410000000  0.5575210000000 1.0
C      1  0.4680970000000  0.5575800000000  0.5265630000000 1.0
C      1  0.5571760000000  0.4718030000000  0.5293900000000 1.0
C      1  0.4394110000000  0.5225290000000  0.5347180000000 1.0
C      1  0.4439910000000  0.4782460000000  0.4672580000000 1.0
C      1  0.5269100000000  0.5320280000000  0.4484630000000 1.0
C      1  0.4783820000000  0.4723650000000  0.4508130000000 1.0
C      1  0.4727380000000  0.5316720000000  0.5514390000000 1.0
C      1  0.4733850000000  0.4436680000000  0.4758290000000 1.0
C      1  0.5316160000000  0.5549420000000  0.4724900000000 1.0
C      1  0.5298550000000  0.4479390000000  0.5261450000000 1.0
C      1  0.4403430000000  0.5259000000000  0.4724950000000 1.0
C      1  0.4738840000000  0.4707200000000  0.5588300000000 1.0
C      1  0.5296240000000  0.5552900000000  0.5225830000000 1.0
C      1  0.4467700000000  0.4747280000000  0.5311530000000 1.0
C      1  0.5569720000000  0.5204820000000  0.5296550000000 1.0
C      1  0.5554560000000  0.4714970000000  0.4677690000000 1.0
C      1  0.4745600000000  0.5358050000000  0.4410660000000 1.0
C      1  0.5280890000000  0.4703620000000  0.4442420000000 1.0
C      1  0.5247130000000  0.5290980000000  0.5470710000000 1.0
C      1  0.5355390000000  0.4400480000000  0.4777890000000 1.0
C      1  0.4619840000000  0.5566650000000  0.4766300000000 1.0
C      1  0.4664670000000  0.4421980000000  0.5228010000000 1.0
C      1  0.4348610000000  0.5248250000000  0.4857850000000 1.0
C      1  0.5281930000000  0.4835960000000  0.4371900000000 1.0
C      1  0.4802910000000  0.4384530000000  0.5247080000000 1.0
C      1  0.4417980000000  0.4750200000000  0.5167830000000 1.0
C      1  0.5614100000000  0.5213570000000  0.5157860000000 1.0
C      1  0.5630800000000  0.4712040000000  0.4804530000000 1.0
C      1  0.5242450000000  0.5158840000000  0.5544050000000 1.0
C      1  0.4737710000000  0.4839230000000  0.5643560000000 1.0
C      1  0.4749940000000  0.5214810000000  0.4393350000000 1.0
C      1  0.4739690000000  0.5641400000000  0.4739970000000 1.0
C      1  0.5213100000000  0.4373250000000  0.4773790000000 1.0
C      1  0.5172330000000  0.5637500000000  0.5234850000000 1.0
C      1  0.5621670000000  0.5217820000000  0.4805760000000 1.0
C      1  0.4776740000000  0.4862080000000  0.4445330000000 1.0
C      1  0.5159850000000  0.4417660000000  0.5257070000000 1.0
C      1  0.5646660000000  0.4708730000000  0.5165580000000 1.0
C      1  0.4356760000000  0.5233160000000  0.5207040000000 1.0
C      1  0.4397330000000  0.4762120000000  0.4809290000000 1.0
C      1  0.4731640000000  0.5188210000000  0.5590690000000 1.0
C      1  0.5236630000000  0.4810370000000  0.5610040000000 1.0
C      1  0.5270650000000  0.5198320000000  0.4401690000000 1.0
C      1  0.5188750000000  0.5613680000000  0.4705040000000 1.0
C      1  0.4866030000000  0.4381200000000  0.4765860000000 1.0
C      1  0.4810820000000  0.5652330000000  0.5257530000000 1.0
C      1  0.5661640000000  0.5109420000000  0.4599740000000 1.0
C      1  0.5111560000000  0.4615960000000  0.5649920000000 1.0
C      1  0.4604480000000  0.5634500000000  0.5160360000000 1.0
C      1  0.5636860000000  0.4825400000000  0.5363390000000 1.0
C      1  0.4327070000000  0.5111690000000  0.5404520000000 1.0
C      1  0.4362700000000  0.4889990000000  0.4612510000000 1.0
C      1  0.5145810000000  0.5394640000000  0.4444610000000 1.0
C      1  0.4885070000000  0.4656750000000  0.4429590000000 1.0
C      1  0.4851660000000  0.5383770000000  0.5551240000000 1.0
C      1  0.4647280000000  0.4365000000000  0.4843470000000 1.0
C      1  0.5373730000000  0.5610620000000  0.4840030000000 1.0
C      1  0.5378780000000  0.4404330000000  0.5166500000000 1.0
C      1  0.4347110000000  0.5160030000000  0.4641530000000 1.0
C      1  0.4840270000000  0.4633490000000  0.5652220000000 1.0
C      1  0.5363970000000  0.5607800000000  0.5112840000000 1.0
C      1  0.4376190000000  0.4836420000000  0.5380280000000 1.0
C      1  0.5642480000000  0.5101820000000  0.5364920000000 1.0
C      1  0.5611660000000  0.4829230000000  0.4605060000000 1.0
C      1  0.4871460000000  0.5412380000000  0.4363330000000 1.0
C      1  0.5161830000000  0.4641230000000  0.4391010000000 1.0
C      1  0.5137800000000  0.5368280000000  0.5526710000000 1.0
C      1  0.5407750000000  0.4332950000000  0.4893390000000 1.0
C      1  0.4570300000000  0.5631870000000  0.4885290000000 1.0
C      1  0.4609260000000  0.4351080000000  0.5113540000000 1.0
END
