TITL C240-645373 0.0146087492302331 1000000 -1726.41713022499 0 0 240 (C1) n - 1
REM
REM in /home/chem/mssmkc/work/CARBON/AIRSS/Generating-Clusters/Str-Search/GAP20/LAMMPS-RUNS
REM
REM
REM
REM
REM
REM C240.cell (5e92b074d24d9d98c31f3638bb0a22ac)
REM
REM
REM
REM
REM
CELL 1.54180  100.00000  100.00000  100.00000   90.00000   90.00000   90.00000
LATT -1
SFAC C  
C      1  0.4965290000000  0.5419630000000  0.5484520000000 1.0
C      1  0.5599540000000  0.5066180000000  0.5266830000000 1.0
C      1  0.5100860000000  0.4664860000000  0.4511510000000 1.0
C      1  0.5103240000000  0.5347760000000  0.4525180000000 1.0
C      1  0.4927240000000  0.4773570000000  0.4399550000000 1.0
C      1  0.4381780000000  0.4956430000000  0.4746100000000 1.0
C      1  0.5323860000000  0.5557530000000  0.4882590000000 1.0
C      1  0.5052230000000  0.4775540000000  0.5593110000000 1.0
C      1  0.4441890000000  0.4884640000000  0.4639690000000 1.0
C      1  0.5126760000000  0.4676650000000  0.5516440000000 1.0
C      1  0.5373820000000  0.4415000000000  0.4848960000000 1.0
C      1  0.4998020000000  0.5431840000000  0.4573230000000 1.0
C      1  0.4559780000000  0.5040890000000  0.5386380000000 1.0
C      1  0.4747070000000  0.5636230000000  0.5048990000000 1.0
C      1  0.4981250000000  0.4585400000000  0.4529640000000 1.0
C      1  0.5495810000000  0.4957930000000  0.5446920000000 1.0
C      1  0.5333860000000  0.4323600000000  0.5063320000000 1.0
C      1  0.4910410000000  0.4750410000000  0.5583130000000 1.0
C      1  0.5611300000000  0.4917870000000  0.4786910000000 1.0
C      1  0.4400980000000  0.5082540000000  0.5220290000000 1.0
C      1  0.4651000000000  0.5548010000000  0.5113070000000 1.0
C      1  0.5548090000000  0.4866520000000  0.5358910000000 1.0
C      1  0.5518550000000  0.4846900000000  0.4696440000000 1.0
C      1  0.4614030000000  0.5550350000000  0.4887910000000 1.0
C      1  0.4874500000000  0.5374930000000  0.4518710000000 1.0
C      1  0.4877990000000  0.4646780000000  0.4444530000000 1.0
C      1  0.4617440000000  0.4504410000000  0.5095620000000 1.0
C      1  0.5104160000000  0.5269760000000  0.5579770000000 1.0
C      1  0.4402360000000  0.5096100000000  0.4732070000000 1.0
C      1  0.5627550000000  0.4926280000000  0.5259440000000 1.0
C      1  0.4904590000000  0.5255550000000  0.4440640000000 1.0
C      1  0.5022620000000  0.4589170000000  0.5470120000000 1.0
C      1  0.4504460000000  0.4980780000000  0.4551460000000 1.0
C      1  0.5482090000000  0.4451290000000  0.4940910000000 1.0
C      1  0.5105340000000  0.5385410000000  0.5500380000000 1.0
C      1  0.5514450000000  0.5091640000000  0.5384500000000 1.0
C      1  0.4725700000000  0.5636850000000  0.4911450000000 1.0
C      1  0.5457540000000  0.4941890000000  0.4608150000000 1.0
C      1  0.4561790000000  0.5496600000000  0.5010550000000 1.0
C      1  0.4966270000000  0.5229340000000  0.5611710000000 1.0
C      1  0.5492850000000  0.5073180000000  0.4654160000000 1.0
C      1  0.5066540000000  0.4778910000000  0.4427490000000 1.0
C      1  0.4423560000000  0.4944480000000  0.5218660000000 1.0
C      1  0.4883550000000  0.5329170000000  0.5557900000000 1.0
C      1  0.4886630000000  0.4644190000000  0.5494380000000 1.0
C      1  0.4515080000000  0.4917490000000  0.5324620000000 1.0
C      1  0.5288130000000  0.4325160000000  0.4924610000000 1.0
C      1  0.5428740000000  0.5501400000000  0.4967820000000 1.0
C      1  0.5047390000000  0.5253140000000  0.4434230000000 1.0
C      1  0.4571150000000  0.4547510000000  0.4966890000000 1.0
C      1  0.5565250000000  0.5057150000000  0.4778680000000 1.0
C      1  0.4654760000000  0.4471570000000  0.4869940000000 1.0
C      1  0.5389160000000  0.5516820000000  0.5105380000000 1.0
C      1  0.5264730000000  0.5589250000000  0.5099830000000 1.0
C      1  0.4468910000000  0.5110070000000  0.4600920000000 1.0
C      1  0.4482120000000  0.5146910000000  0.5317820000000 1.0
C      1  0.5447420000000  0.4403910000000  0.5074270000000 1.0
C      1  0.4717250000000  0.4402100000000  0.5081040000000 1.0
C      1  0.4757500000000  0.4407730000000  0.4941250000000 1.0
C      1  0.5224440000000  0.5619920000000  0.4964770000000 1.0
C      1  0.4757620000000  0.5403870000000  0.4577830000000 1.0
C      1  0.4708340000000  0.4491840000000  0.4732950000000 1.0
C      1  0.4771860000000  0.4652830000000  0.5411750000000 1.0
C      1  0.5479020000000  0.5276070000000  0.4853480000000 1.0
C      1  0.4714940000000  0.5318400000000  0.5381670000000 1.0
C      1  0.4720510000000  0.4866320000000  0.4482900000000 1.0
C      1  0.5297140000000  0.4773410000000  0.4642810000000 1.0
C      1  0.5201800000000  0.4577610000000  0.5310760000000 1.0
C      1  0.5451880000000  0.4762510000000  0.5302040000000 1.0
C      1  0.4699580000000  0.5114220000000  0.4516820000000 1.0
C      1  0.4758250000000  0.5272910000000  0.5515180000000 1.0
C      1  0.5521400000000  0.5393070000000  0.4944720000000 1.0
C      1  0.4544760000000  0.4700980000000  0.5217160000000 1.0
C      1  0.4593450000000  0.5366050000000  0.5304430000000 1.0
C      1  0.5216440000000  0.4652580000000  0.4593690000000 1.0
C      1  0.5479450000000  0.5328600000000  0.5268770000000 1.0
C      1  0.5421320000000  0.4510330000000  0.5165530000000 1.0
C      1  0.4751460000000  0.4574540000000  0.5289800000000 1.0
C      1  0.5418760000000  0.5190350000000  0.4625200000000 1.0
C      1  0.5262650000000  0.5508370000000  0.4762540000000 1.0
C      1  0.5409550000000  0.4652890000000  0.4831610000000 1.0
C      1  0.5255060000000  0.5428670000000  0.5276240000000 1.0
C      1  0.5207470000000  0.5291220000000  0.4613210000000 1.0
C      1  0.5077220000000  0.4430710000000  0.4838670000000 1.0
C      1  0.5301170000000  0.5196930000000  0.4544010000000 1.0
C      1  0.5590790000000  0.5356960000000  0.5053570000000 1.0
C      1  0.4372710000000  0.4946720000000  0.4985450000000 1.0
C      1  0.4497750000000  0.4671940000000  0.4964120000000 1.0
C      1  0.5229360000000  0.5386040000000  0.5416680000000 1.0
C      1  0.4494020000000  0.4771310000000  0.4844030000000 1.0
C      1  0.5369640000000  0.4739730000000  0.5436050000000 1.0
C      1  0.5115540000000  0.5136410000000  0.4401740000000 1.0
C      1  0.4574070000000  0.5197060000000  0.4559040000000 1.0
C      1  0.4960560000000  0.5664800000000  0.4931740000000 1.0
C      1  0.4437420000000  0.5160940000000  0.4866300000000 1.0
C      1  0.5576990000000  0.5288600000000  0.5170010000000 1.0
C      1  0.4686970000000  0.5450250000000  0.5219780000000 1.0
C      1  0.4754950000000  0.5461310000000  0.4706710000000 1.0
C      1  0.4998670000000  0.5521480000000  0.4685380000000 1.0
C      1  0.4841020000000  0.4887000000000  0.4396940000000 1.0
C      1  0.4707790000000  0.4785710000000  0.5400870000000 1.0
C      1  0.4463000000000  0.5312030000000  0.4879800000000 1.0
C      1  0.5290980000000  0.4966060000000  0.5496420000000 1.0
C      1  0.5635050000000  0.4887870000000  0.5019790000000 1.0
C      1  0.5310400000000  0.5275560000000  0.5456270000000 1.0
C      1  0.5095840000000  0.4471690000000  0.4705270000000 1.0
C      1  0.5039850000000  0.5018300000000  0.4379160000000 1.0
C      1  0.4742910000000  0.4634560000000  0.4436560000000 1.0
C      1  0.4590890000000  0.4691730000000  0.4614160000000 1.0
C      1  0.5292240000000  0.4486270000000  0.5231450000000 1.0
C      1  0.5221410000000  0.4539670000000  0.4680350000000 1.0
C      1  0.4968760000000  0.4496180000000  0.4642720000000 1.0
C      1  0.4440680000000  0.5289850000000  0.5122520000000 1.0
C      1  0.5149610000000  0.4355190000000  0.4930020000000 1.0
C      1  0.5552860000000  0.4720740000000  0.5187690000000 1.0
C      1  0.5687080000000  0.4876870000000  0.4895530000000 1.0
C      1  0.4720820000000  0.4886830000000  0.5512630000000 1.0
C      1  0.4478900000000  0.5373510000000  0.5009100000000 1.0
C      1  0.5067330000000  0.4513810000000  0.5361180000000 1.0
C      1  0.5126820000000  0.4906720000000  0.4407980000000 1.0
C      1  0.4850750000000  0.4455300000000  0.4726630000000 1.0
C      1  0.5244870000000  0.5104200000000  0.4454920000000 1.0
C      1  0.5635250000000  0.4832360000000  0.5152270000000 1.0
C      1  0.4886920000000  0.5106110000000  0.5609080000000 1.0
C      1  0.4880210000000  0.4426600000000  0.4863320000000 1.0
C      1  0.4892120000000  0.5642930000000  0.5057790000000 1.0
C      1  0.5051870000000  0.5523300000000  0.5184910000000 1.0
C      1  0.4907690000000  0.5469300000000  0.5367910000000 1.0
C      1  0.4659560000000  0.4726340000000  0.4489500000000 1.0
C      1  0.4935370000000  0.5522440000000  0.5113620000000 1.0
C      1  0.5233070000000  0.4378490000000  0.5149000000000 1.0
C      1  0.4895990000000  0.5017620000000  0.4386350000000 1.0
C      1  0.5111380000000  0.5524820000000  0.4789460000000 1.0
C      1  0.4852240000000  0.5643480000000  0.4839060000000 1.0
C      1  0.5479070000000  0.4635730000000  0.5093080000000 1.0
C      1  0.4634550000000  0.4981810000000  0.4495390000000 1.0
C      1  0.4409790000000  0.4868540000000  0.5101290000000 1.0
C      1  0.5249930000000  0.4660760000000  0.5436420000000 1.0
C      1  0.4583530000000  0.5266050000000  0.4678700000000 1.0
C      1  0.5334410000000  0.4529160000000  0.4772060000000 1.0
C      1  0.4962740000000  0.4471940000000  0.5279220000000 1.0
C      1  0.5140290000000  0.5095110000000  0.5480810000000 1.0
C      1  0.5390420000000  0.4870480000000  0.5503750000000 1.0
C      1  0.4493240000000  0.4762460000000  0.4686210000000 1.0
C      1  0.4531320000000  0.5366110000000  0.4763180000000 1.0
C      1  0.5427980000000  0.4741230000000  0.4714130000000 1.0
C      1  0.4380320000000  0.5161450000000  0.5102180000000 1.0
C      1  0.5065250000000  0.4915070000000  0.5618750000000 1.0
C      1  0.4768500000000  0.4351690000000  0.5199050000000 1.0
C      1  0.4618340000000  0.5477100000000  0.4770950000000 1.0
C      1  0.4471860000000  0.4739170000000  0.5094650000000 1.0
C      1  0.5587660000000  0.5145660000000  0.5150870000000 1.0
C      1  0.4772210000000  0.5453160000000  0.5342550000000 1.0
C      1  0.4492780000000  0.5284410000000  0.5263360000000 1.0
C      1  0.5338900000000  0.4890130000000  0.4550460000000 1.0
C      1  0.4996340000000  0.5426420000000  0.5265240000000 1.0
C      1  0.4929830000000  0.4973180000000  0.5624630000000 1.0
C      1  0.4695530000000  0.5026890000000  0.5457730000000 1.0
C      1  0.5422420000000  0.5297520000000  0.4717830000000 1.0
C      1  0.4867800000000  0.5563840000000  0.4726030000000 1.0
C      1  0.5094870000000  0.5627590000000  0.4896140000000 1.0
C      1  0.5116580000000  0.4393560000000  0.5064710000000 1.0
C      1  0.5171560000000  0.4987640000000  0.5568190000000 1.0
C      1  0.4368690000000  0.5091860000000  0.4981240000000 1.0
C      1  0.4824900000000  0.5137310000000  0.4427800000000 1.0
C      1  0.5420060000000  0.5219060000000  0.5366230000000 1.0
C      1  0.5550290000000  0.5150180000000  0.4885720000000 1.0
C      1  0.4833550000000  0.4870070000000  0.5593110000000 1.0
C      1  0.5503820000000  0.4589220000000  0.4941410000000 1.0
C      1  0.5253340000000  0.4957710000000  0.4459680000000 1.0
C      1  0.4579100000000  0.4794110000000  0.5324140000000 1.0
C      1  0.4396980000000  0.4884000000000  0.4864350000000 1.0
C      1  0.5221300000000  0.5201080000000  0.5538240000000 1.0
C      1  0.4668120000000  0.4623600000000  0.4711370000000 1.0
C      1  0.5291780000000  0.5365540000000  0.4720640000000 1.0
C      1  0.4619240000000  0.4582230000000  0.5214140000000 1.0
C      1  0.4822120000000  0.4440350000000  0.5285570000000 1.0
C      1  0.5185650000000  0.5538670000000  0.5201960000000 1.0
C      1  0.5394120000000  0.5432180000000  0.5225670000000 1.0
C      1  0.4761150000000  0.5134100000000  0.5543900000000 1.0
C      1  0.4992280000000  0.5288230000000  0.5077420000000 1.0
C      1  0.5345700000000  0.5253570000000  0.4933480000000 1.0
C      1  0.5330640000000  0.4753400000000  0.4929100000000 1.0
C      1  0.5234190000000  0.5308490000000  0.4863770000000 1.0
C      1  0.4788850000000  0.5104820000000  0.4654370000000 1.0
C      1  0.4774220000000  0.4831340000000  0.5045840000000 1.0
C      1  0.5118930000000  0.5190650000000  0.4711500000000 1.0
C      1  0.5273190000000  0.5017190000000  0.5352470000000 1.0
C      1  0.4878120000000  0.4733120000000  0.4808350000000 1.0
C      1  0.5333230000000  0.4790610000000  0.5202560000000 1.0
C      1  0.5199260000000  0.4834810000000  0.4760590000000 1.0
C      1  0.5030630000000  0.5307360000000  0.4935940000000 1.0
C      1  0.5005660000000  0.5151110000000  0.5278720000000 1.0
C      1  0.5047910000000  0.5282400000000  0.5210940000000 1.0
C      1  0.4984180000000  0.4520160000000  0.4912260000000 1.0
C      1  0.5088730000000  0.5055630000000  0.5345950000000 1.0
C      1  0.4946470000000  0.4555110000000  0.5161450000000 1.0
C      1  0.4872140000000  0.5123040000000  0.5296930000000 1.0
C      1  0.5378570000000  0.4743780000000  0.5075020000000 1.0
C      1  0.4588860000000  0.5115290000000  0.4876830000000 1.0
C      1  0.4773460000000  0.5224110000000  0.5275910000000 1.0
C      1  0.5143800000000  0.4698030000000  0.5206790000000 1.0
C      1  0.5197120000000  0.4774450000000  0.4886300000000 1.0
C      1  0.4798130000000  0.5199420000000  0.4760440000000 1.0
C      1  0.4659980000000  0.5178270000000  0.4778260000000 1.0
C      1  0.4731680000000  0.4713330000000  0.4816540000000 1.0
C      1  0.4811120000000  0.4866600000000  0.5293560000000 1.0
C      1  0.5161350000000  0.4947010000000  0.5291850000000 1.0
C      1  0.4702680000000  0.5096780000000  0.5082740000000 1.0
C      1  0.5394520000000  0.4865090000000  0.4991310000000 1.0
C      1  0.4802400000000  0.4863630000000  0.4622770000000 1.0
C      1  0.5035510000000  0.4520270000000  0.5055460000000 1.0
C      1  0.4854390000000  0.4982460000000  0.4672110000000 1.0
C      1  0.5493080000000  0.4956100000000  0.5016590000000 1.0
C      1  0.5282310000000  0.5183070000000  0.5163400000000 1.0
C      1  0.5194590000000  0.5291560000000  0.5198470000000 1.0
C      1  0.5130900000000  0.5407920000000  0.4900980000000 1.0
C      1  0.4990290000000  0.4976770000000  0.4688750000000 1.0
C      1  0.4647910000000  0.5034700000000  0.4977780000000 1.0
C      1  0.4806880000000  0.5001460000000  0.5335650000000 1.0
C      1  0.5116020000000  0.5221280000000  0.4845880000000 1.0
C      1  0.5095430000000  0.5062330000000  0.4681720000000 1.0
C      1  0.4647850000000  0.4814620000000  0.4859790000000 1.0
C      1  0.4715870000000  0.5211290000000  0.5147100000000 1.0
C      1  0.4817860000000  0.4790010000000  0.5165500000000 1.0
C      1  0.4842180000000  0.4646950000000  0.5186660000000 1.0
C      1  0.4974100000000  0.4669390000000  0.4886520000000 1.0
C      1  0.5499680000000  0.5103620000000  0.5029130000000 1.0
C      1  0.5108510000000  0.4933720000000  0.4739360000000 1.0
C      1  0.4692370000000  0.4900660000000  0.4962490000000 1.0
C      1  0.5361220000000  0.5179530000000  0.5047000000000 1.0
C      1  0.4880380000000  0.4766700000000  0.4676740000000 1.0
C      1  0.5333700000000  0.5126650000000  0.5286300000000 1.0
C      1  0.4875380000000  0.5383540000000  0.5058840000000 1.0
C      1  0.4827580000000  0.5330670000000  0.4795110000000 1.0
C      1  0.4757690000000  0.5345280000000  0.5136040000000 1.0
C      1  0.5197500000000  0.4829550000000  0.5229820000000 1.0
C      1  0.5098760000000  0.4653180000000  0.5079010000000 1.0
C      1  0.5087560000000  0.4725220000000  0.4954360000000 1.0
C      1  0.4891540000000  0.5358110000000  0.4911870000000 1.0
END
