TITL C-102689-8077-56 0.0201288575462482 1000000 -1727.34901863847 0 0 240 (Th) n - 1
REM
REM in /home/chem/mssmkc/work/GAP20/Larger-Clusters/Only-C240-new-series
REM
REM
REM
REM
REM
REM ./C.cell (0485df7495ed2a90f93db84a705cd676)
REM
REM compiler GCC version 8.3.0
REM options -cpp -mtune=generic -march=x86-64 -g -O0
REM seed -1282322666 2066424726 -415097438 -1351280659 214714259 -1462356104 1774348668 1306944230 -476683618 -1587285414 1187458919 73905558 941910550 166497116 -460508952 990317821 1508404635 547381962 -1354539310 1340127209 16481650 -1238292799 1993310228 1816559004 -1604154300 1349103899 985812081 -1339185622 -1096284349 -1984476949 -1679654501 1927275286 -65213531
REM
CELL 1.54180  100.00000  100.00000  100.00000   90.00000   90.00000   90.00000
LATT -1
SFAC C  
C      1  0.5231100000000  0.4646970000000  0.5546240000000 1.0
C      1  0.4646970000000  0.5546230000000  0.5231100000000 1.0
C      1  0.5546240000000  0.5231100000000  0.4646970000000 1.0
C      1  0.5231100000000  0.5353030000000  0.4453760000000 1.0
C      1  0.4768910000000  0.4646970000000  0.4453760000000 1.0
C      1  0.4768890000000  0.5353030000000  0.5546230000000 1.0
C      1  0.4646970000000  0.4453760000000  0.4768900000000 1.0
C      1  0.5353030000000  0.5546240000000  0.4768900000000 1.0
C      1  0.5353030000000  0.4453770000000  0.5231100000000 1.0
C      1  0.5546240000000  0.4768900000000  0.5353030000000 1.0
C      1  0.4453760000000  0.5231100000000  0.5353030000000 1.0
C      1  0.4453770000000  0.4768900000000  0.4646970000000 1.0
C      1  0.4768900000000  0.4646970000000  0.5546240000000 1.0
C      1  0.5353030000000  0.5546240000000  0.5231100000000 1.0
C      1  0.4453760000000  0.5231100000000  0.4646970000000 1.0
C      1  0.4768900000000  0.5353030000000  0.4453760000000 1.0
C      1  0.5231110000000  0.4646970000000  0.4453770000000 1.0
C      1  0.5231090000000  0.5353030000000  0.5546240000000 1.0
C      1  0.5353030000000  0.4453770000000  0.4768900000000 1.0
C      1  0.4646970000000  0.5546230000000  0.4768900000000 1.0
C      1  0.4646970000000  0.4453760000000  0.5231100000000 1.0
C      1  0.4453760000000  0.4768900000000  0.5353030000000 1.0
C      1  0.5546230000000  0.5231100000000  0.5353030000000 1.0
C      1  0.5546240000000  0.4768900000000  0.4646970000000 1.0
C      1  0.4926110000000  0.4928200000000  0.4281660000000 1.0
C      1  0.4928210000000  0.4281660000000  0.4926100000000 1.0
C      1  0.4281660000000  0.4926100000000  0.4928200000000 1.0
C      1  0.4926100000000  0.5071800000000  0.5718340000000 1.0
C      1  0.5073890000000  0.4928210000000  0.5718340000000 1.0
C      1  0.5073900000000  0.5071790000000  0.4281660000000 1.0
C      1  0.4928200000000  0.5718340000000  0.5073900000000 1.0
C      1  0.5071800000000  0.4281660000000  0.5073900000000 1.0
C      1  0.5071790000000  0.5718340000000  0.4926100000000 1.0
C      1  0.4281660000000  0.5073900000000  0.5071790000000 1.0
C      1  0.5718340000000  0.4926100000000  0.5071800000000 1.0
C      1  0.5718340000000  0.5073900000000  0.4928210000000 1.0
C      1  0.5073900000000  0.4928200000000  0.4281660000000 1.0
C      1  0.5071800000000  0.4281660000000  0.4926100000000 1.0
C      1  0.5718340000000  0.4926100000000  0.4928210000000 1.0
C      1  0.5073890000000  0.5071800000000  0.5718340000000 1.0
C      1  0.4926100000000  0.4928210000000  0.5718340000000 1.0
C      1  0.4926110000000  0.5071790000000  0.4281660000000 1.0
C      1  0.5071790000000  0.5718340000000  0.5073900000000 1.0
C      1  0.4928210000000  0.4281660000000  0.5073900000000 1.0
C      1  0.4928200000000  0.5718340000000  0.4926100000000 1.0
C      1  0.5718340000000  0.5073900000000  0.5071800000000 1.0
C      1  0.4281660000000  0.4926100000000  0.5071790000000 1.0
C      1  0.4281660000000  0.5073900000000  0.4928200000000 1.0
C      1  0.4715890000000  0.5654920000000  0.5169430000000 1.0
C      1  0.5654920000000  0.5169440000000  0.4715900000000 1.0
C      1  0.5169430000000  0.4715890000000  0.5654920000000 1.0
C      1  0.4715900000000  0.4345080000000  0.4830570000000 1.0
C      1  0.5284110000000  0.5654920000000  0.4830570000000 1.0
C      1  0.5284110000000  0.4345080000000  0.5169440000000 1.0
C      1  0.5654920000000  0.4830570000000  0.5284110000000 1.0
C      1  0.4345080000000  0.5169430000000  0.5284100000000 1.0
C      1  0.4345080000000  0.4830560000000  0.4715890000000 1.0
C      1  0.5169440000000  0.5284110000000  0.4345080000000 1.0
C      1  0.4830570000000  0.4715890000000  0.4345080000000 1.0
C      1  0.4830560000000  0.5284110000000  0.5654920000000 1.0
C      1  0.5284100000000  0.5654920000000  0.5169430000000 1.0
C      1  0.4345080000000  0.5169430000000  0.4715890000000 1.0
C      1  0.4830560000000  0.4715890000000  0.5654920000000 1.0
C      1  0.5284110000000  0.4345080000000  0.4830570000000 1.0
C      1  0.4715890000000  0.5654920000000  0.4830560000000 1.0
C      1  0.4715890000000  0.4345080000000  0.5169430000000 1.0
C      1  0.4345080000000  0.4830560000000  0.5284100000000 1.0
C      1  0.5654920000000  0.5169440000000  0.5284110000000 1.0
C      1  0.5654920000000  0.4830570000000  0.4715900000000 1.0
C      1  0.4830570000000  0.5284110000000  0.4345080000000 1.0
C      1  0.5169440000000  0.4715890000000  0.4345080000000 1.0
C      1  0.5169430000000  0.5284110000000  0.5654920000000 1.0
C      1  0.4381700000000  0.5070050000000  0.5492810000000 1.0
C      1  0.5070050000000  0.5492810000000  0.4381700000000 1.0
C      1  0.5492820000000  0.4381700000000  0.5070060000000 1.0
C      1  0.4381700000000  0.4929940000000  0.4507180000000 1.0
C      1  0.5618300000000  0.5070060000000  0.4507190000000 1.0
C      1  0.5618300000000  0.4929950000000  0.5492820000000 1.0
C      1  0.5070050000000  0.4507190000000  0.5618300000000 1.0
C      1  0.4929940000000  0.5492810000000  0.5618300000000 1.0
C      1  0.4929950000000  0.4507180000000  0.4381700000000 1.0
C      1  0.5492810000000  0.5618300000000  0.4929950000000 1.0
C      1  0.4507190000000  0.4381700000000  0.4929940000000 1.0
C      1  0.4507180000000  0.5618300000000  0.5070050000000 1.0
C      1  0.5618300000000  0.5070060000000  0.5492820000000 1.0
C      1  0.4929950000000  0.5492810000000  0.4381700000000 1.0
C      1  0.4507190000000  0.4381700000000  0.5070050000000 1.0
C      1  0.5618300000000  0.4929950000000  0.4507190000000 1.0
C      1  0.4381700000000  0.5070050000000  0.4507180000000 1.0
C      1  0.4381700000000  0.4929940000000  0.5492810000000 1.0
C      1  0.4929950000000  0.4507190000000  0.5618300000000 1.0
C      1  0.5070050000000  0.5492820000000  0.5618300000000 1.0
C      1  0.5070060000000  0.4507190000000  0.4381700000000 1.0
C      1  0.4507180000000  0.5618300000000  0.4929940000000 1.0
C      1  0.5492820000000  0.4381700000000  0.4929950000000 1.0
C      1  0.5492810000000  0.5618300000000  0.5070060000000 1.0
C      1  0.5664930000000  0.5182190000000  0.4856240000000 1.0
C      1  0.5182190000000  0.4856240000000  0.5664930000000 1.0
C      1  0.4856230000000  0.5664930000000  0.5182190000000 1.0
C      1  0.5664930000000  0.4817810000000  0.5143770000000 1.0
C      1  0.4335070000000  0.5182190000000  0.5143760000000 1.0
C      1  0.4335080000000  0.4817810000000  0.4856240000000 1.0
C      1  0.5182200000000  0.5143760000000  0.4335080000000 1.0
C      1  0.4817810000000  0.4856240000000  0.4335070000000 1.0
C      1  0.4817800000000  0.5143760000000  0.5664920000000 1.0
C      1  0.4856240000000  0.4335070000000  0.4817810000000 1.0
C      1  0.5143760000000  0.5664930000000  0.4817810000000 1.0
C      1  0.5143760000000  0.4335080000000  0.5182190000000 1.0
C      1  0.4335070000000  0.5182190000000  0.4856230000000 1.0
C      1  0.4817800000000  0.4856240000000  0.5664920000000 1.0
C      1  0.5143760000000  0.5664930000000  0.5182190000000 1.0
C      1  0.4335070000000  0.4817810000000  0.5143760000000 1.0
C      1  0.5664920000000  0.5182190000000  0.5143760000000 1.0
C      1  0.5664930000000  0.4817810000000  0.4856240000000 1.0
C      1  0.4817810000000  0.5143760000000  0.4335070000000 1.0
C      1  0.5182200000000  0.4856240000000  0.4335080000000 1.0
C      1  0.5182190000000  0.5143760000000  0.5664930000000 1.0
C      1  0.5143770000000  0.4335070000000  0.4817810000000 1.0
C      1  0.4856240000000  0.5664920000000  0.4817810000000 1.0
C      1  0.4856240000000  0.4335070000000  0.5182190000000 1.0
C      1  0.5157430000000  0.4529420000000  0.5512140000000 1.0
C      1  0.4529420000000  0.5512140000000  0.5157420000000 1.0
C      1  0.5512140000000  0.5157430000000  0.4529420000000 1.0
C      1  0.5157430000000  0.5470580000000  0.4487860000000 1.0
C      1  0.4842580000000  0.4529420000000  0.4487860000000 1.0
C      1  0.4842570000000  0.5470580000000  0.5512140000000 1.0
C      1  0.4529420000000  0.4487860000000  0.4842570000000 1.0
C      1  0.5470580000000  0.5512140000000  0.4842580000000 1.0
C      1  0.5470580000000  0.4487860000000  0.5157430000000 1.0
C      1  0.5512140000000  0.4842580000000  0.5470580000000 1.0
C      1  0.4487860000000  0.5157430000000  0.5470580000000 1.0
C      1  0.4487870000000  0.4842570000000  0.4529420000000 1.0
C      1  0.4842570000000  0.4529420000000  0.5512140000000 1.0
C      1  0.5470580000000  0.5512140000000  0.5157430000000 1.0
C      1  0.4487860000000  0.5157420000000  0.4529420000000 1.0
C      1  0.4842570000000  0.5470580000000  0.4487860000000 1.0
C      1  0.5157430000000  0.4529420000000  0.4487860000000 1.0
C      1  0.5157420000000  0.5470580000000  0.5512140000000 1.0
C      1  0.5470580000000  0.4487860000000  0.4842580000000 1.0
C      1  0.4529420000000  0.5512140000000  0.4842570000000 1.0
C      1  0.4529420000000  0.4487860000000  0.5157420000000 1.0
C      1  0.4487860000000  0.4842570000000  0.5470580000000 1.0
C      1  0.5512130000000  0.5157430000000  0.5470580000000 1.0
C      1  0.5512140000000  0.4842570000000  0.4529420000000 1.0
C      1  0.5371780000000  0.4293750000000  0.4928980000000 1.0
C      1  0.4293740000000  0.4928970000000  0.5371770000000 1.0
C      1  0.4928970000000  0.5371770000000  0.4293740000000 1.0
C      1  0.5371770000000  0.5706260000000  0.5071030000000 1.0
C      1  0.4628230000000  0.4293740000000  0.5071030000000 1.0
C      1  0.4628220000000  0.5706250000000  0.4928970000000 1.0
C      1  0.4293750000000  0.5071020000000  0.4628220000000 1.0
C      1  0.5706260000000  0.4928970000000  0.4628230000000 1.0
C      1  0.5706250000000  0.5071030000000  0.5371780000000 1.0
C      1  0.4928970000000  0.4628230000000  0.5706260000000 1.0
C      1  0.5071020000000  0.5371770000000  0.5706260000000 1.0
C      1  0.5071040000000  0.4628230000000  0.4293750000000 1.0
C      1  0.4628230000000  0.4293740000000  0.4928970000000 1.0
C      1  0.5706250000000  0.4928980000000  0.5371780000000 1.0
C      1  0.5071030000000  0.5371770000000  0.4293740000000 1.0
C      1  0.4628220000000  0.5706250000000  0.5071020000000 1.0
C      1  0.5371780000000  0.4293750000000  0.5071030000000 1.0
C      1  0.5371770000000  0.5706260000000  0.4928970000000 1.0
C      1  0.5706260000000  0.5071030000000  0.4628230000000 1.0
C      1  0.4293750000000  0.4928970000000  0.4628220000000 1.0
C      1  0.4293740000000  0.5071030000000  0.5371770000000 1.0
C      1  0.5071030000000  0.4628230000000  0.5706260000000 1.0
C      1  0.4928960000000  0.5371770000000  0.5706250000000 1.0
C      1  0.4928980000000  0.4628230000000  0.4293740000000 1.0
C      1  0.4705310000000  0.4926810000000  0.4399020000000 1.0
C      1  0.4926820000000  0.4399020000000  0.4705310000000 1.0
C      1  0.4399020000000  0.4705310000000  0.4926810000000 1.0
C      1  0.4705300000000  0.5073180000000  0.5600980000000 1.0
C      1  0.5294690000000  0.4926820000000  0.5600980000000 1.0
C      1  0.5294690000000  0.5073180000000  0.4399020000000 1.0
C      1  0.4926810000000  0.5600980000000  0.5294690000000 1.0
C      1  0.5073180000000  0.4399020000000  0.5294690000000 1.0
C      1  0.5073180000000  0.5600980000000  0.4705310000000 1.0
C      1  0.4399020000000  0.5294690000000  0.5073180000000 1.0
C      1  0.5600980000000  0.4705310000000  0.5073190000000 1.0
C      1  0.5600980000000  0.5294690000000  0.4926820000000 1.0
C      1  0.5294700000000  0.4926820000000  0.4399020000000 1.0
C      1  0.5073190000000  0.4399020000000  0.4705310000000 1.0
C      1  0.5600980000000  0.4705310000000  0.4926820000000 1.0
C      1  0.5294690000000  0.5073190000000  0.5600980000000 1.0
C      1  0.4705310000000  0.4926820000000  0.5600980000000 1.0
C      1  0.4705310000000  0.5073180000000  0.4399020000000 1.0
C      1  0.5073180000000  0.5600980000000  0.5294690000000 1.0
C      1  0.4926820000000  0.4399020000000  0.5294690000000 1.0
C      1  0.4926820000000  0.5600980000000  0.4705310000000 1.0
C      1  0.5600980000000  0.5294690000000  0.5073190000000 1.0
C      1  0.4399020000000  0.4705310000000  0.5073180000000 1.0
C      1  0.4399020000000  0.5294690000000  0.4926810000000 1.0
C      1  0.4669980000000  0.5289390000000  0.5481990000000 1.0
C      1  0.5289390000000  0.5481990000000  0.4669990000000 1.0
C      1  0.5481990000000  0.4669990000000  0.5289390000000 1.0
C      1  0.4669990000000  0.4710610000000  0.4518010000000 1.0
C      1  0.5330020000000  0.5289390000000  0.4518010000000 1.0
C      1  0.5330010000000  0.4710610000000  0.5481990000000 1.0
C      1  0.5289390000000  0.4518010000000  0.5330020000000 1.0
C      1  0.4710610000000  0.5481990000000  0.5330010000000 1.0
C      1  0.4710620000000  0.4518010000000  0.4669980000000 1.0
C      1  0.5481990000000  0.5330020000000  0.4710620000000 1.0
C      1  0.4518010000000  0.4669980000000  0.4710610000000 1.0
C      1  0.4518010000000  0.5330010000000  0.5289380000000 1.0
C      1  0.5330010000000  0.5289390000000  0.5481990000000 1.0
C      1  0.4710610000000  0.5481990000000  0.4669980000000 1.0
C      1  0.4518010000000  0.4669980000000  0.5289380000000 1.0
C      1  0.5330020000000  0.4710610000000  0.4518010000000 1.0
C      1  0.4669990000000  0.5289390000000  0.4518010000000 1.0
C      1  0.4669980000000  0.4710610000000  0.5481990000000 1.0
C      1  0.4710610000000  0.4518010000000  0.5330010000000 1.0
C      1  0.5289380000000  0.5481990000000  0.5330020000000 1.0
C      1  0.5289390000000  0.4518010000000  0.4669990000000 1.0
C      1  0.4518010000000  0.5330010000000  0.4710610000000 1.0
C      1  0.5481990000000  0.4669990000000  0.4710620000000 1.0
C      1  0.5481990000000  0.5330020000000  0.5289390000000 1.0
C      1  0.5523040000000  0.4617810000000  0.4834630000000 1.0
C      1  0.4617810000000  0.4834620000000  0.5523030000000 1.0
C      1  0.4834620000000  0.5523030000000  0.4617810000000 1.0
C      1  0.5523030000000  0.5382190000000  0.5165380000000 1.0
C      1  0.4476970000000  0.4617810000000  0.5165380000000 1.0
C      1  0.4476960000000  0.5382190000000  0.4834620000000 1.0
C      1  0.4617810000000  0.5165380000000  0.4476960000000 1.0
C      1  0.5382190000000  0.4834620000000  0.4476970000000 1.0
C      1  0.5382180000000  0.5165380000000  0.5523040000000 1.0
C      1  0.4834620000000  0.4476960000000  0.5382190000000 1.0
C      1  0.5165370000000  0.5523040000000  0.5382190000000 1.0
C      1  0.5165380000000  0.4476970000000  0.4617810000000 1.0
C      1  0.4476970000000  0.4617810000000  0.4834620000000 1.0
C      1  0.5382190000000  0.4834620000000  0.5523040000000 1.0
C      1  0.5165380000000  0.5523040000000  0.4617810000000 1.0
C      1  0.4476960000000  0.5382190000000  0.5165370000000 1.0
C      1  0.5523040000000  0.4617810000000  0.5165380000000 1.0
C      1  0.5523030000000  0.5382190000000  0.4834620000000 1.0
C      1  0.5382190000000  0.5165380000000  0.4476970000000 1.0
C      1  0.4617820000000  0.4834620000000  0.4476960000000 1.0
C      1  0.4617810000000  0.5165380000000  0.5523030000000 1.0
C      1  0.5165380000000  0.4476970000000  0.5382190000000 1.0
C      1  0.4834620000000  0.5523030000000  0.5382190000000 1.0
C      1  0.4834630000000  0.4476960000000  0.4617810000000 1.0
END
