TITL C-102689-8077-121 -0.021408086364745 1000000 -1648.41850929707 0 0 240 (S4) n - 1
REM
REM in /home/chem/mssmkc/work/GAP20/Larger-Clusters/Only-C240-new-series
REM
REM
REM
REM
REM
REM ./C.cell (0485df7495ed2a90f93db84a705cd676)
REM
REM compiler GCC version 8.3.0
REM options -cpp -mtune=generic -march=x86-64 -g -O0
REM seed 483972037 1369424026 1296159899 -1717541403 1369046039 685836846 -1137413471 -1532732390 -2097264491 296208853 -466952155 582358121 -637242510 1154882585 -1320034151 -721898138 234616217 1118581917 -1644337268 -2097936452 -1795580028 42942585 1695610210 -1678359812 -1510591007 -362258165 1233679284 -154334978 -1286562959 -527350988 2129333272 510433246 1206575437
REM
CELL 1.54180  100.00000  100.00000  100.00000   90.00000   90.00000   90.00000
LATT -1
SFAC C  
C      1  0.4925560000000  0.5369000000000  0.5275810000000 1.0
C      1  0.5266600000000  0.4910980000000  0.5363570000000 1.0
C      1  0.5365520000000  0.5268470000000  0.4911030000000 1.0
C      1  0.5089610000000  0.4635890000000  0.5267230000000 1.0
C      1  0.5089680000000  0.5364080000000  0.4732750000000 1.0
C      1  0.4925390000000  0.4631030000000  0.4724200000000 1.0
C      1  0.4723830000000  0.5075840000000  0.5369610000000 1.0
C      1  0.4723750000000  0.4924250000000  0.4630430000000 1.0
C      1  0.5266570000000  0.5088940000000  0.4636390000000 1.0
C      1  0.4632170000000  0.4725620000000  0.4924660000000 1.0
C      1  0.4632270000000  0.5274490000000  0.5075400000000 1.0
C      1  0.5365450000000  0.4731410000000  0.5088910000000 1.0
C      1  0.5367790000000  0.4924580000000  0.5274410000000 1.0
C      1  0.4910420000000  0.5267260000000  0.5364100000000 1.0
C      1  0.5276260000000  0.5369550000000  0.4924180000000 1.0
C      1  0.4634550000000  0.5089000000000  0.5268560000000 1.0
C      1  0.5367770000000  0.5075310000000  0.4725530000000 1.0
C      1  0.4634480000000  0.4911120000000  0.4731500000000 1.0
C      1  0.5074510000000  0.4724180000000  0.5368980000000 1.0
C      1  0.4910280000000  0.4732770000000  0.4635910000000 1.0
C      1  0.5074540000000  0.5275790000000  0.4631010000000 1.0
C      1  0.4733350000000  0.4636450000000  0.4911040000000 1.0
C      1  0.5276160000000  0.4630370000000  0.5075770000000 1.0
C      1  0.4733480000000  0.5363630000000  0.5089000000000 1.0
C      1  0.4587470000000  0.4854030000000  0.4954550000000 1.0
C      1  0.4955720000000  0.4586860000000  0.4852670000000 1.0
C      1  0.4851980000000  0.4955130000000  0.4586350000000 1.0
C      1  0.5411410000000  0.5143730000000  0.4949610000000 1.0
C      1  0.5411370000000  0.4856140000000  0.5050330000000 1.0
C      1  0.4587520000000  0.5146100000000  0.5045520000000 1.0
C      1  0.5051640000000  0.5410670000000  0.4857480000000 1.0
C      1  0.5051530000000  0.4589310000000  0.5142510000000 1.0
C      1  0.4955880000000  0.5413160000000  0.5147340000000 1.0
C      1  0.5141770000000  0.5050950000000  0.4589850000000 1.0
C      1  0.5141820000000  0.4949010000000  0.5410130000000 1.0
C      1  0.4852060000000  0.5044920000000  0.5413670000000 1.0
C      1  0.4858130000000  0.4589880000000  0.4949040000000 1.0
C      1  0.4588590000000  0.4949710000000  0.4856240000000 1.0
C      1  0.4948360000000  0.4857490000000  0.4589330000000 1.0
C      1  0.5148040000000  0.5413630000000  0.4955090000000 1.0
C      1  0.4858270000000  0.5410160000000  0.5050980000000 1.0
C      1  0.5147920000000  0.4586320000000  0.5044890000000 1.0
C      1  0.5412500000000  0.5045420000000  0.4853930000000 1.0
C      1  0.4588630000000  0.5050430000000  0.5143830000000 1.0
C      1  0.5412510000000  0.4954450000000  0.5146000000000 1.0
C      1  0.5044190000000  0.5147330000000  0.4586850000000 1.0
C      1  0.4948470000000  0.5142530000000  0.5410680000000 1.0
C      1  0.5044210000000  0.4852660000000  0.5413150000000 1.0
C      1  0.5055230000000  0.5286450000000  0.4301410000000 1.0
C      1  0.4301290000000  0.5054550000000  0.5285530000000 1.0
C      1  0.5286550000000  0.4301060000000  0.5056010000000 1.0
C      1  0.4946200000000  0.4715000000000  0.4302750000000 1.0
C      1  0.4946400000000  0.5285020000000  0.5697260000000 1.0
C      1  0.5055260000000  0.4713530000000  0.5698580000000 1.0
C      1  0.5697370000000  0.4945610000000  0.5286050000000 1.0
C      1  0.5697340000000  0.5054170000000  0.4713840000000 1.0
C      1  0.4301220000000  0.4945670000000  0.4714580000000 1.0
C      1  0.4715260000000  0.5697170000000  0.5052730000000 1.0
C      1  0.4715030000000  0.4302920000000  0.4947320000000 1.0
C      1  0.5286760000000  0.5698850000000  0.4943940000000 1.0
C      1  0.5284800000000  0.5052660000000  0.4302850000000 1.0
C      1  0.5053610000000  0.4302730000000  0.5285010000000 1.0
C      1  0.4302690000000  0.5286210000000  0.5054340000000 1.0
C      1  0.4713280000000  0.4944010000000  0.4301130000000 1.0
C      1  0.5284900000000  0.4947250000000  0.5697100000000 1.0
C      1  0.4713410000000  0.5056080000000  0.5698920000000 1.0
C      1  0.4944890000000  0.5698590000000  0.5286470000000 1.0
C      1  0.5053790000000  0.5697250000000  0.4714990000000 1.0
C      1  0.4944620000000  0.4301420000000  0.4713540000000 1.0
C      1  0.5698700000000  0.4714410000000  0.5054380000000 1.0
C      1  0.4302590000000  0.4714010000000  0.4945780000000 1.0
C      1  0.5698780000000  0.5285360000000  0.4945510000000 1.0
C      1  0.5100630000000  0.4707940000000  0.4487540000000 1.0
C      1  0.4485220000000  0.5100760000000  0.4706380000000 1.0
C      1  0.4708640000000  0.4488080000000  0.5101370000000 1.0
C      1  0.4895650000000  0.5294040000000  0.4480590000000 1.0
C      1  0.4895650000000  0.4705990000000  0.5519430000000 1.0
C      1  0.5100810000000  0.5292030000000  0.5512450000000 1.0
C      1  0.5517180000000  0.4895430000000  0.4707590000000 1.0
C      1  0.5517260000000  0.5104410000000  0.5292320000000 1.0
C      1  0.4485240000000  0.4899410000000  0.5293700000000 1.0
C      1  0.5294860000000  0.5519790000000  0.5103690000000 1.0
C      1  0.5294680000000  0.4480120000000  0.4896260000000 1.0
C      1  0.4708790000000  0.5512010000000  0.4898680000000 1.0
C      1  0.4705200000000  0.5103760000000  0.4480190000000 1.0
C      1  0.5104240000000  0.4480570000000  0.4705960000000 1.0
C      1  0.4482740000000  0.4707720000000  0.5104530000000 1.0
C      1  0.5291230000000  0.4898610000000  0.4488010000000 1.0
C      1  0.4705260000000  0.4896330000000  0.5519860000000 1.0
C      1  0.5291340000000  0.5101300000000  0.5511940000000 1.0
C      1  0.4899340000000  0.5512470000000  0.4707960000000 1.0
C      1  0.5104460000000  0.5519400000000  0.5294020000000 1.0
C      1  0.4899220000000  0.4487560000000  0.5292050000000 1.0
C      1  0.5514830000000  0.5293580000000  0.5100630000000 1.0
C      1  0.4482820000000  0.5292450000000  0.4895550000000 1.0
C      1  0.5514720000000  0.4706260000000  0.4899280000000 1.0
C      1  0.5154530000000  0.4947000000000  0.5661160000000 1.0
C      1  0.5662190000000  0.5155070000000  0.4946580000000 1.0
C      1  0.4947560000000  0.5662780000000  0.5155560000000 1.0
C      1  0.4844250000000  0.5052840000000  0.5663120000000 1.0
C      1  0.4844120000000  0.4947210000000  0.4336910000000 1.0
C      1  0.5154440000000  0.5052950000000  0.4338810000000 1.0
C      1  0.4337750000000  0.4844950000000  0.4947590000000 1.0
C      1  0.4337810000000  0.5155260000000  0.5052520000000 1.0
C      1  0.5662150000000  0.4844720000000  0.5053310000000 1.0
C      1  0.5053210000000  0.4338540000000  0.5154690000000 1.0
C      1  0.5053400000000  0.5661440000000  0.4845300000000 1.0
C      1  0.4947320000000  0.4337240000000  0.4844450000000 1.0
C      1  0.4946770000000  0.5154700000000  0.5661460000000 1.0
C      1  0.5155910000000  0.5663080000000  0.4947180000000 1.0
C      1  0.5662230000000  0.4947430000000  0.5155100000000 1.0
C      1  0.5052590000000  0.4844430000000  0.5662770000000 1.0
C      1  0.4946610000000  0.4845310000000  0.4338550000000 1.0
C      1  0.5052530000000  0.5155550000000  0.4337220000000 1.0
C      1  0.4845400000000  0.4338850000000  0.4947040000000 1.0
C      1  0.5155710000000  0.4336870000000  0.5052800000000 1.0
C      1  0.4845620000000  0.5661200000000  0.5052980000000 1.0
C      1  0.4337850000000  0.5053470000000  0.5155230000000 1.0
C      1  0.5662220000000  0.5052360000000  0.4844790000000 1.0
C      1  0.4337800000000  0.4946740000000  0.4844870000000 1.0
C      1  0.5357300000000  0.4981420000000  0.5582160000000 1.0
C      1  0.5584570000000  0.5358860000000  0.4979790000000 1.0
C      1  0.4981630000000  0.5586180000000  0.5360040000000 1.0
C      1  0.4639490000000  0.5019360000000  0.5586750000000 1.0
C      1  0.4639390000000  0.4980750000000  0.4413310000000 1.0
C      1  0.5357210000000  0.5018470000000  0.4417780000000 1.0
C      1  0.4415440000000  0.4641150000000  0.4982480000000 1.0
C      1  0.4415560000000  0.5359030000000  0.5017620000000 1.0
C      1  0.5584460000000  0.4640950000000  0.5020120000000 1.0
C      1  0.5019280000000  0.4417300000000  0.5357790000000 1.0
C      1  0.5019410000000  0.5582690000000  0.4642210000000 1.0
C      1  0.4981380000000  0.4413830000000  0.4639970000000 1.0
C      1  0.4980760000000  0.5357800000000  0.5582700000000 1.0
C      1  0.5360650000000  0.5586660000000  0.4980670000000 1.0
C      1  0.5584530000000  0.4982340000000  0.5358890000000 1.0
C      1  0.5018490000000  0.4639960000000  0.5586170000000 1.0
C      1  0.4980550000000  0.4642210000000  0.4417300000000 1.0
C      1  0.5018500000000  0.5360030000000  0.4413820000000 1.0
C      1  0.4642650000000  0.4417860000000  0.4981500000000 1.0
C      1  0.5360470000000  0.4413220000000  0.5019280000000 1.0
C      1  0.4642840000000  0.5582250000000  0.5018550000000 1.0
C      1  0.4415520000000  0.5020260000000  0.5359000000000 1.0
C      1  0.5584470000000  0.5017480000000  0.4641010000000 1.0
C      1  0.4415450000000  0.4979930000000  0.4641100000000 1.0
C      1  0.4624250000000  0.5479790000000  0.5275720000000 1.0
C      1  0.5275170000000  0.4624730000000  0.5479330000000 1.0
C      1  0.5479050000000  0.5274720000000  0.4624360000000 1.0
C      1  0.5375970000000  0.4520570000000  0.5275900000000 1.0
C      1  0.5376070000000  0.5479310000000  0.4724040000000 1.0
C      1  0.4624060000000  0.4520330000000  0.4724340000000 1.0
C      1  0.4723680000000  0.5376590000000  0.5479750000000 1.0
C      1  0.4723480000000  0.4623500000000  0.4520300000000 1.0
C      1  0.5275210000000  0.5375180000000  0.4520620000000 1.0
C      1  0.4519830000000  0.4723320000000  0.4623900000000 1.0
C      1  0.4519980000000  0.5276830000000  0.5376180000000 1.0
C      1  0.5479030000000  0.4725120000000  0.5375570000000 1.0
C      1  0.5480050000000  0.4623780000000  0.5276710000000 1.0
C      1  0.4624060000000  0.5275990000000  0.5479400000000 1.0
C      1  0.5276460000000  0.5479680000000  0.4623430000000 1.0
C      1  0.4521040000000  0.5375680000000  0.5274840000000 1.0
C      1  0.5480130000000  0.5376070000000  0.4723210000000 1.0
C      1  0.4520880000000  0.4624470000000  0.4725240000000 1.0
C      1  0.5375840000000  0.4724250000000  0.5479700000000 1.0
C      1  0.4623900000000  0.4724130000000  0.4520660000000 1.0
C      1  0.5375850000000  0.5275630000000  0.4520240000000 1.0
C      1  0.4724710000000  0.4520690000000  0.4624800000000 1.0
C      1  0.5276370000000  0.4520230000000  0.5376530000000 1.0
C      1  0.4724920000000  0.5479400000000  0.5375250000000 1.0
C      1  0.4519110000000  0.5374110000000  0.5119240000000 1.0
C      1  0.5123300000000  0.4515900000000  0.5374190000000 1.0
C      1  0.5373160000000  0.5122500000000  0.4516570000000 1.0
C      1  0.5484900000000  0.4625220000000  0.5123510000000 1.0
C      1  0.5485000000000  0.5374630000000  0.4876410000000 1.0
C      1  0.4518970000000  0.4626040000000  0.4880840000000 1.0
C      1  0.4880600000000  0.5481880000000  0.5374630000000 1.0
C      1  0.4880390000000  0.4518160000000  0.4625390000000 1.0
C      1  0.5123390000000  0.5484060000000  0.4625790000000 1.0
C      1  0.4624410000000  0.4879750000000  0.4517490000000 1.0
C      1  0.4624530000000  0.5120370000000  0.5482570000000 1.0
C      1  0.5373200000000  0.4877380000000  0.5483370000000 1.0
C      1  0.5375460000000  0.4517400000000  0.5120280000000 1.0
C      1  0.4515100000000  0.5123620000000  0.5374750000000 1.0
C      1  0.5119520000000  0.5374600000000  0.4518130000000 1.0
C      1  0.4626910000000  0.5483460000000  0.5122590000000 1.0
C      1  0.5375600000000  0.5482480000000  0.4879660000000 1.0
C      1  0.4626730000000  0.4516660000000  0.4877470000000 1.0
C      1  0.5480970000000  0.4880720000000  0.5373990000000 1.0
C      1  0.4515000000000  0.4876530000000  0.4625330000000 1.0
C      1  0.5480950000000  0.5119130000000  0.4625930000000 1.0
C      1  0.4876560000000  0.4625820000000  0.4515930000000 1.0
C      1  0.5119480000000  0.4625360000000  0.5481850000000 1.0
C      1  0.4876750000000  0.5374220000000  0.5484090000000 1.0
C      1  0.4951180000000  0.5152180000000  0.4468440000000 1.0
C      1  0.4471700000000  0.4953800000000  0.5151990000000 1.0
C      1  0.5152640000000  0.4468150000000  0.4951600000000 1.0
C      1  0.5046020000000  0.4849590000000  0.4473900000000 1.0
C      1  0.5046160000000  0.5150390000000  0.5526100000000 1.0
C      1  0.4951220000000  0.4847830000000  0.5531570000000 1.0
C      1  0.5529590000000  0.5048490000000  0.5150590000000 1.0
C      1  0.5529550000000  0.4951340000000  0.4849320000000 1.0
C      1  0.4471680000000  0.5046370000000  0.4848090000000 1.0
C      1  0.4850250000000  0.5525840000000  0.4953530000000 1.0
C      1  0.4850090000000  0.4474200000000  0.5046490000000 1.0
C      1  0.5152820000000  0.5531800000000  0.5048380000000 1.0
C      1  0.5149780000000  0.4953500000000  0.4474170000000 1.0
C      1  0.4953840000000  0.4473910000000  0.5150400000000 1.0
C      1  0.4470450000000  0.5150720000000  0.4951470000000 1.0
C      1  0.4847230000000  0.5048410000000  0.4468190000000 1.0
C      1  0.5149880000000  0.5046460000000  0.5525810000000 1.0
C      1  0.4847300000000  0.4951640000000  0.5531840000000 1.0
C      1  0.5048890000000  0.5531560000000  0.5152170000000 1.0
C      1  0.4953980000000  0.5526110000000  0.4849600000000 1.0
C      1  0.5048700000000  0.4468420000000  0.4847820000000 1.0
C      1  0.5528280000000  0.4847970000000  0.4953670000000 1.0
C      1  0.4470410000000  0.4849450000000  0.5048620000000 1.0
C      1  0.5528340000000  0.5151860000000  0.5046240000000 1.0
C      1  0.4572720000000  0.4787590000000  0.5321790000000 1.0
C      1  0.5321530000000  0.4569880000000  0.4786110000000 1.0
C      1  0.4785620000000  0.5320610000000  0.4570600000000 1.0
C      1  0.5427430000000  0.5214250000000  0.5318960000000 1.0
C      1  0.5427310000000  0.4785610000000  0.4680970000000 1.0
C      1  0.4572730000000  0.5212540000000  0.4678280000000 1.0
C      1  0.4680920000000  0.5424490000000  0.4787120000000 1.0
C      1  0.4680820000000  0.4575610000000  0.5212930000000 1.0
C      1  0.5321710000000  0.5430020000000  0.5213830000000 1.0
C      1  0.5212230000000  0.4679810000000  0.4574890000000 1.0
C      1  0.5212400000000  0.5320120000000  0.5425080000000 1.0
C      1  0.4785590000000  0.4679460000000  0.5429440000000 1.0
C      1  0.4787640000000  0.4574940000000  0.5320170000000 1.0
C      1  0.4572660000000  0.5319070000000  0.4785720000000 1.0
C      1  0.5319060000000  0.4787050000000  0.4575530000000 1.0
C      1  0.5214490000000  0.5429390000000  0.5320560000000 1.0
C      1  0.4787720000000  0.5425130000000  0.4679860000000 1.0
C      1  0.5214300000000  0.4570540000000  0.4679400000000 1.0
C      1  0.5427210000000  0.4678180000000  0.4787490000000 1.0
C      1  0.4572600000000  0.4681070000000  0.5214350000000 1.0
C      1  0.5427340000000  0.5321690000000  0.5212440000000 1.0
C      1  0.4678380000000  0.5213910000000  0.4569960000000 1.0
C      1  0.5319190000000  0.5212850000000  0.5424420000000 1.0
C      1  0.4678380000000  0.4786190000000  0.5430090000000 1.0
END
