TITL C-102689-8077-31 -0.00830229565457777 1000000 -1800.36415083855 0 0 240 (Th) n - 1
REM
REM in /home/chem/mssmkc/work/GAP20/Larger-Clusters/Only-C240-new-series
REM
REM
REM
REM
REM
REM ./C.cell (0485df7495ed2a90f93db84a705cd676)
REM
REM compiler GCC version 8.3.0
REM options -cpp -mtune=generic -march=x86-64 -g -O0
REM seed 1559648498 -886088146 -507084506 -1322464423 905237795 1288953799 1719888963 -414863308 1738871551 1707380059 1611938539 -144692709 -818742678 1651116369 214736426 2024538656 1096502925 636029361 51521875 499689994 -89837050 -1859067496 801678250 252558660 262427398 748318688 -1381146549 1338400758 1246199718 -1675779001 -99186826 818146947 1418560838
REM
CELL 1.54180  100.00000  100.00000  100.00000   90.00000   90.00000   90.00000
LATT -1
SFAC C  
C      1  0.4423990000000  0.5343490000000  0.5174880000000 1.0
C      1  0.5343490000000  0.5174880000000  0.4423990000000 1.0
C      1  0.5174850000000  0.4423960000000  0.5343460000000 1.0
C      1  0.5576000000000  0.4656500000000  0.5174900000000 1.0
C      1  0.4423960000000  0.4656580000000  0.4825080000000 1.0
C      1  0.5576050000000  0.5343430000000  0.4825130000000 1.0
C      1  0.4656540000000  0.4825140000000  0.4423960000000 1.0
C      1  0.5343430000000  0.4825080000000  0.5576030000000 1.0
C      1  0.4656530000000  0.5174900000000  0.5576020000000 1.0
C      1  0.4825130000000  0.5576030000000  0.5343470000000 1.0
C      1  0.5174940000000  0.5576020000000  0.4656560000000 1.0
C      1  0.4825080000000  0.4423990000000  0.4656520000000 1.0
C      1  0.4424000000000  0.5343500000000  0.4825100000000 1.0
C      1  0.5343460000000  0.5174860000000  0.5576040000000 1.0
C      1  0.5174870000000  0.4423970000000  0.4656530000000 1.0
C      1  0.5576010000000  0.4656510000000  0.4825120000000 1.0
C      1  0.4423950000000  0.4656570000000  0.5174870000000 1.0
C      1  0.5576040000000  0.5343420000000  0.5174920000000 1.0
C      1  0.4656510000000  0.4825120000000  0.5576010000000 1.0
C      1  0.5343470000000  0.4825100000000  0.4423980000000 1.0
C      1  0.4656570000000  0.5174920000000  0.4423970000000 1.0
C      1  0.4825150000000  0.5576040000000  0.4656540000000 1.0
C      1  0.5174920000000  0.5576010000000  0.5343480000000 1.0
C      1  0.4825060000000  0.4423980000000  0.5343440000000 1.0
C      1  0.5068300000000  0.4238670000000  0.5181710000000 1.0
C      1  0.4238690000000  0.5181770000000  0.5068340000000 1.0
C      1  0.5181750000000  0.5068360000000  0.4238690000000 1.0
C      1  0.4931690000000  0.5761320000000  0.5181740000000 1.0
C      1  0.5068410000000  0.5761320000000  0.4818290000000 1.0
C      1  0.4931600000000  0.4238690000000  0.4818260000000 1.0
C      1  0.5761310000000  0.4818230000000  0.5068370000000 1.0
C      1  0.4238670000000  0.4818320000000  0.4931620000000 1.0
C      1  0.5761330000000  0.5181680000000  0.4931670000000 1.0
C      1  0.4818290000000  0.4931670000000  0.4238670000000 1.0
C      1  0.5181700000000  0.4931620000000  0.5761320000000 1.0
C      1  0.4818260000000  0.5068350000000  0.5761310000000 1.0
C      1  0.5068310000000  0.4238680000000  0.4818260000000 1.0
C      1  0.4238690000000  0.5181770000000  0.4931630000000 1.0
C      1  0.5181710000000  0.5068330000000  0.5761330000000 1.0
C      1  0.4931700000000  0.5761330000000  0.4818290000000 1.0
C      1  0.5068400000000  0.5761310000000  0.5181740000000 1.0
C      1  0.4931590000000  0.4238680000000  0.5181710000000 1.0
C      1  0.5761310000000  0.4818230000000  0.4931660000000 1.0
C      1  0.4238670000000  0.4818320000000  0.5068330000000 1.0
C      1  0.5761330000000  0.5181680000000  0.5068380000000 1.0
C      1  0.4818250000000  0.4931640000000  0.5761310000000 1.0
C      1  0.5181740000000  0.4931650000000  0.4238690000000 1.0
C      1  0.4818300000000  0.5068380000000  0.4238680000000 1.0
C      1  0.5359590000000  0.5294740000000  0.5493040000000 1.0
C      1  0.5294790000000  0.5492990000000  0.5359610000000 1.0
C      1  0.5493030000000  0.5359550000000  0.5294800000000 1.0
C      1  0.4640380000000  0.4705240000000  0.5493000000000 1.0
C      1  0.5359590000000  0.4705210000000  0.4506990000000 1.0
C      1  0.4640440000000  0.5294810000000  0.4506980000000 1.0
C      1  0.4705180000000  0.4506990000000  0.5359570000000 1.0
C      1  0.5294760000000  0.4506970000000  0.4640410000000 1.0
C      1  0.4705270000000  0.5493040000000  0.4640410000000 1.0
C      1  0.4506950000000  0.4640430000000  0.5294750000000 1.0
C      1  0.5493010000000  0.4640390000000  0.4705230000000 1.0
C      1  0.4507010000000  0.5359630000000  0.4705220000000 1.0
C      1  0.5359620000000  0.5294760000000  0.4507000000000 1.0
C      1  0.5294820000000  0.5493010000000  0.4640430000000 1.0
C      1  0.5493050000000  0.5359570000000  0.4705250000000 1.0
C      1  0.4640410000000  0.4705260000000  0.4506960000000 1.0
C      1  0.5359560000000  0.4705190000000  0.5493020000000 1.0
C      1  0.4640410000000  0.5294790000000  0.5493010000000 1.0
C      1  0.4705210000000  0.4507010000000  0.4640390000000 1.0
C      1  0.5294730000000  0.4506960000000  0.5359590000000 1.0
C      1  0.4705240000000  0.5493030000000  0.5359590000000 1.0
C      1  0.4506970000000  0.4640450000000  0.4705200000000 1.0
C      1  0.5492990000000  0.4640370000000  0.5294780000000 1.0
C      1  0.4506990000000  0.5359610000000  0.5294770000000 1.0
C      1  0.5273090000000  0.5404240000000  0.4529470000000 1.0
C      1  0.5404210000000  0.4529430000000  0.5273050000000 1.0
C      1  0.4529460000000  0.5273070000000  0.5404240000000 1.0
C      1  0.4726940000000  0.4595780000000  0.4529440000000 1.0
C      1  0.5273010000000  0.4595720000000  0.5470540000000 1.0
C      1  0.4726960000000  0.5404260000000  0.5470540000000 1.0
C      1  0.4595770000000  0.5470560000000  0.5273050000000 1.0
C      1  0.5404290000000  0.5470520000000  0.4726970000000 1.0
C      1  0.4595730000000  0.4529490000000  0.4726930000000 1.0
C      1  0.5470510000000  0.4726910000000  0.5404260000000 1.0
C      1  0.4529450000000  0.4726990000000  0.4595730000000 1.0
C      1  0.5470570000000  0.5273030000000  0.4595770000000 1.0
C      1  0.5273060000000  0.5404220000000  0.5470560000000 1.0
C      1  0.5404230000000  0.4529440000000  0.4726950000000 1.0
C      1  0.4529490000000  0.5273090000000  0.4595740000000 1.0
C      1  0.4726910000000  0.4595760000000  0.5470530000000 1.0
C      1  0.5273040000000  0.4595740000000  0.4529460000000 1.0
C      1  0.4726990000000  0.5404280000000  0.4529460000000 1.0
C      1  0.4595790000000  0.5470570000000  0.4726950000000 1.0
C      1  0.5404270000000  0.5470510000000  0.5273070000000 1.0
C      1  0.4595710000000  0.4529480000000  0.5273030000000 1.0
C      1  0.5470540000000  0.4726930000000  0.4595760000000 1.0
C      1  0.4529430000000  0.4726970000000  0.5404230000000 1.0
C      1  0.5470550000000  0.5273010000000  0.5404270000000 1.0
C      1  0.5427640000000  0.4481070000000  0.4861540000000 1.0
C      1  0.4481070000000  0.4861560000000  0.5427650000000 1.0
C      1  0.4861580000000  0.5427690000000  0.4481100000000 1.0
C      1  0.4572360000000  0.5518940000000  0.4861540000000 1.0
C      1  0.5427700000000  0.5518880000000  0.5138490000000 1.0
C      1  0.4572290000000  0.4481120000000  0.5138440000000 1.0
C      1  0.5518900000000  0.5138420000000  0.5427690000000 1.0
C      1  0.4481110000000  0.5138500000000  0.4572320000000 1.0
C      1  0.5518910000000  0.4861510000000  0.4572340000000 1.0
C      1  0.5138450000000  0.4572330000000  0.4481090000000 1.0
C      1  0.4861500000000  0.4572330000000  0.5518890000000 1.0
C      1  0.5138470000000  0.5427650000000  0.5518920000000 1.0
C      1  0.5427640000000  0.4481060000000  0.5138460000000 1.0
C      1  0.4481100000000  0.4861580000000  0.4572310000000 1.0
C      1  0.4861550000000  0.5427670000000  0.5518910000000 1.0
C      1  0.4572360000000  0.5518930000000  0.5138460000000 1.0
C      1  0.5427710000000  0.5518880000000  0.4861560000000 1.0
C      1  0.4572300000000  0.4481120000000  0.4861510000000 1.0
C      1  0.5518930000000  0.5138440000000  0.4572350000000 1.0
C      1  0.4481090000000  0.5138490000000  0.5427660000000 1.0
C      1  0.5518890000000  0.4861500000000  0.5427680000000 1.0
C      1  0.5138420000000  0.4572310000000  0.5518900000000 1.0
C      1  0.4861530000000  0.4572350000000  0.4481080000000 1.0
C      1  0.5138500000000  0.5427670000000  0.4481110000000 1.0
C      1  0.5168950000000  0.4324990000000  0.5247220000000 1.0
C      1  0.4325010000000  0.5247260000000  0.5168990000000 1.0
C      1  0.5247260000000  0.5169000000000  0.4325010000000 1.0
C      1  0.4831030000000  0.5675000000000  0.5247230000000 1.0
C      1  0.5169050000000  0.5674990000000  0.4752790000000 1.0
C      1  0.4830970000000  0.4325020000000  0.4752760000000 1.0
C      1  0.5674980000000  0.4752730000000  0.5169020000000 1.0
C      1  0.4324990000000  0.4752820000000  0.4830970000000 1.0
C      1  0.5675020000000  0.5247190000000  0.4831030000000 1.0
C      1  0.4752790000000  0.4831030000000  0.4324990000000 1.0
C      1  0.5247190000000  0.4830970000000  0.5675000000000 1.0
C      1  0.4752770000000  0.5169000000000  0.5674990000000 1.0
C      1  0.5168970000000  0.4325000000000  0.4752770000000 1.0
C      1  0.4325020000000  0.5247270000000  0.4830980000000 1.0
C      1  0.5247210000000  0.5168970000000  0.5675010000000 1.0
C      1  0.4831050000000  0.5675010000000  0.4752780000000 1.0
C      1  0.5169030000000  0.5674980000000  0.5247240000000 1.0
C      1  0.4830950000000  0.4325010000000  0.5247210000000 1.0
C      1  0.5674990000000  0.4752740000000  0.4831010000000 1.0
C      1  0.4324980000000  0.4752810000000  0.5168970000000 1.0
C      1  0.5675010000000  0.5247180000000  0.5169030000000 1.0
C      1  0.4752740000000  0.4831000000000  0.5674990000000 1.0
C      1  0.5247230000000  0.4831000000000  0.4325010000000 1.0
C      1  0.4752810000000  0.5169030000000  0.4325000000000 1.0
C      1  0.5071440000000  0.4477290000000  0.4566060000000 1.0
C      1  0.4477260000000  0.4566100000000  0.5071430000000 1.0
C      1  0.4566090000000  0.5071490000000  0.4477280000000 1.0
C      1  0.4928590000000  0.5522730000000  0.4566080000000 1.0
C      1  0.5071480000000  0.5522700000000  0.5433950000000 1.0
C      1  0.4928500000000  0.4477280000000  0.5433920000000 1.0
C      1  0.5522740000000  0.5433900000000  0.5071480000000 1.0
C      1  0.4477320000000  0.5433970000000  0.4928540000000 1.0
C      1  0.5522690000000  0.4566040000000  0.4928550000000 1.0
C      1  0.5433940000000  0.4928530000000  0.4477300000000 1.0
C      1  0.4566050000000  0.4928560000000  0.5522700000000 1.0
C      1  0.5433920000000  0.5071420000000  0.5522730000000 1.0
C      1  0.5071410000000  0.4477270000000  0.5433920000000 1.0
C      1  0.4477260000000  0.4566100000000  0.4928520000000 1.0
C      1  0.4566060000000  0.5071470000000  0.5522700000000 1.0
C      1  0.4928560000000  0.5522710000000  0.5433940000000 1.0
C      1  0.5071500000000  0.5522720000000  0.4566080000000 1.0
C      1  0.4928520000000  0.4477300000000  0.4566050000000 1.0
C      1  0.5522740000000  0.5433900000000  0.4928570000000 1.0
C      1  0.4477310000000  0.5433960000000  0.5071450000000 1.0
C      1  0.5522680000000  0.4566030000000  0.5071460000000 1.0
C      1  0.5433910000000  0.4928510000000  0.5522720000000 1.0
C      1  0.4566080000000  0.4928580000000  0.4477270000000 1.0
C      1  0.5433950000000  0.5071440000000  0.4477300000000 1.0
C      1  0.4837800000000  0.4218580000000  0.5069050000000 1.0
C      1  0.4218580000000  0.5069120000000  0.4837820000000 1.0
C      1  0.5069090000000  0.4837860000000  0.4218570000000 1.0
C      1  0.5162200000000  0.5781420000000  0.5069090000000 1.0
C      1  0.4837900000000  0.5781440000000  0.4930940000000 1.0
C      1  0.5162110000000  0.4218560000000  0.4930920000000 1.0
C      1  0.5781430000000  0.4930880000000  0.4837870000000 1.0
C      1  0.4218560000000  0.4930970000000  0.5162130000000 1.0
C      1  0.5781430000000  0.5069020000000  0.5162180000000 1.0
C      1  0.4930960000000  0.5162180000000  0.4218570000000 1.0
C      1  0.5069060000000  0.5162130000000  0.5781440000000 1.0
C      1  0.4930890000000  0.4837830000000  0.5781430000000 1.0
C      1  0.4837800000000  0.4218580000000  0.4930910000000 1.0
C      1  0.4218570000000  0.5069120000000  0.5162130000000 1.0
C      1  0.5069040000000  0.4837820000000  0.5781430000000 1.0
C      1  0.5162200000000  0.5781420000000  0.4930950000000 1.0
C      1  0.4837890000000  0.5781440000000  0.5069080000000 1.0
C      1  0.5162100000000  0.4218560000000  0.5069060000000 1.0
C      1  0.5781420000000  0.4930880000000  0.5162180000000 1.0
C      1  0.4218570000000  0.4930980000000  0.4837820000000 1.0
C      1  0.5781440000000  0.5069030000000  0.4837870000000 1.0
C      1  0.4930910000000  0.5162140000000  0.5781430000000 1.0
C      1  0.5069110000000  0.5162170000000  0.4218570000000 1.0
C      1  0.4930940000000  0.4837870000000  0.4218560000000 1.0
C      1  0.5619160000000  0.5071590000000  0.5355110000000 1.0
C      1  0.5071640000000  0.5355070000000  0.5619180000000 1.0
C      1  0.5355120000000  0.5619140000000  0.5071660000000 1.0
C      1  0.4380820000000  0.4928400000000  0.5355070000000 1.0
C      1  0.5619170000000  0.4928340000000  0.4644930000000 1.0
C      1  0.4380850000000  0.5071680000000  0.4644900000000 1.0
C      1  0.4928330000000  0.4644900000000  0.5619160000000 1.0
C      1  0.5071630000000  0.4644920000000  0.4380830000000 1.0
C      1  0.4928410000000  0.5355100000000  0.4380840000000 1.0
C      1  0.4644870000000  0.4380850000000  0.5071610000000 1.0
C      1  0.5355050000000  0.4380810000000  0.4928360000000 1.0
C      1  0.4644950000000  0.5619190000000  0.4928370000000 1.0
C      1  0.5619180000000  0.5071600000000  0.4644930000000 1.0
C      1  0.5071670000000  0.5355100000000  0.4380840000000 1.0
C      1  0.5355130000000  0.5619150000000  0.4928390000000 1.0
C      1  0.4380840000000  0.4928410000000  0.4644890000000 1.0
C      1  0.5619150000000  0.4928320000000  0.5355100000000 1.0
C      1  0.4380830000000  0.5071660000000  0.5355070000000 1.0
C      1  0.4928360000000  0.4644930000000  0.4380820000000 1.0
C      1  0.5071590000000  0.4644900000000  0.5619160000000 1.0
C      1  0.4928370000000  0.5355080000000  0.5619170000000 1.0
C      1  0.4644880000000  0.4380860000000  0.4928340000000 1.0
C      1  0.5355050000000  0.4380810000000  0.5071630000000 1.0
C      1  0.4644950000000  0.5619190000000  0.5071640000000 1.0
C      1  0.4741330000000  0.4302880000000  0.4864570000000 1.0
C      1  0.4302860000000  0.4864640000000  0.4741340000000 1.0
C      1  0.4864600000000  0.4741390000000  0.4302850000000 1.0
C      1  0.5258680000000  0.5697130000000  0.4864620000000 1.0
C      1  0.4741400000000  0.5697150000000  0.5135410000000 1.0
C      1  0.5258590000000  0.4302840000000  0.5135400000000 1.0
C      1  0.5697160000000  0.5135370000000  0.4741390000000 1.0
C      1  0.4302860000000  0.5135440000000  0.5258620000000 1.0
C      1  0.5697130000000  0.4864550000000  0.5258650000000 1.0
C      1  0.5135440000000  0.5258640000000  0.4302870000000 1.0
C      1  0.4864590000000  0.5258630000000  0.5697140000000 1.0
C      1  0.5135370000000  0.4741340000000  0.5697140000000 1.0
C      1  0.4741320000000  0.4302870000000  0.5135380000000 1.0
C      1  0.4302840000000  0.4864630000000  0.5258610000000 1.0
C      1  0.4864560000000  0.4741360000000  0.5697130000000 1.0
C      1  0.5258670000000  0.5697120000000  0.5135430000000 1.0
C      1  0.4741410000000  0.5697160000000  0.4864600000000 1.0
C      1  0.5258600000000  0.4302850000000  0.4864590000000 1.0
C      1  0.5697140000000  0.5135360000000  0.5258660000000 1.0
C      1  0.4302870000000  0.5135450000000  0.4741350000000 1.0
C      1  0.5697140000000  0.4864560000000  0.4741380000000 1.0
C      1  0.5135400000000  0.5258610000000  0.5697150000000 1.0
C      1  0.4864630000000  0.5258660000000  0.4302860000000 1.0
C      1  0.5135410000000  0.4741370000000  0.4302860000000 1.0
END
