TITL C-102688-8074-60 0.00870147523572188 1000000 -1813.34118079137 0 0 240 (Oh) n - 1
REM
REM in /home/chem/mssmkc/work/GAP20/Larger-Clusters/Only-C240-new-series
REM
REM
REM
REM
REM
REM ./C.cell (0485df7495ed2a90f93db84a705cd676)
REM
REM compiler GCC version 8.3.0
REM options -cpp -mtune=generic -march=x86-64 -g -O0
REM seed -1186572354 1838958868 1886418555 -1194284700 -664797809 -1548329117 -428440596 312910763 267432327 485623000 1892067082 -1700061062 -34963499 860771677 1043131768 -701049634 -1754104359 1131199760 -383063829 -932617303 1114676404 -617444881 -529858489 -1378074913 -968511880 -1854208773 -1002428250 1641638187 -1608544831 1826741533 -1698389491 1933886626 1379500515
REM
CELL 1.54180  100.00000  100.00000  100.00000   90.00000   90.00000   90.00000
LATT -1
SFAC C  
C      1  0.4836520000000  0.4433360000000  0.4641270000000 1.0
C      1  0.4641340000000  0.4836460000000  0.4433330000000 1.0
C      1  0.4433390000000  0.4641270000000  0.4836420000000 1.0
C      1  0.5163600000000  0.4433340000000  0.5358640000000 1.0
C      1  0.4836390000000  0.5566600000000  0.5358720000000 1.0
C      1  0.5163490000000  0.5566690000000  0.4641360000000 1.0
C      1  0.5358690000000  0.4836450000000  0.5566640000000 1.0
C      1  0.4641300000000  0.5163460000000  0.5566660000000 1.0
C      1  0.5358670000000  0.5163620000000  0.4433370000000 1.0
C      1  0.5566690000000  0.4641370000000  0.5163520000000 1.0
C      1  0.4433310000000  0.5358610000000  0.5163560000000 1.0
C      1  0.5566610000000  0.5358750000000  0.4836490000000 1.0
C      1  0.4641380000000  0.4433330000000  0.4836410000000 1.0
C      1  0.4433370000000  0.4836430000000  0.4641300000000 1.0
C      1  0.4836500000000  0.4641340000000  0.4433320000000 1.0
C      1  0.5358740000000  0.4433380000000  0.5163500000000 1.0
C      1  0.5358620000000  0.5566700000000  0.4836500000000 1.0
C      1  0.4641260000000  0.5566600000000  0.5163580000000 1.0
C      1  0.5566660000000  0.4836490000000  0.5358670000000 1.0
C      1  0.5566640000000  0.5163630000000  0.4641340000000 1.0
C      1  0.4433330000000  0.5163460000000  0.5358690000000 1.0
C      1  0.5163570000000  0.4641290000000  0.5566620000000 1.0
C      1  0.5163510000000  0.5358740000000  0.4433380000000 1.0
C      1  0.4836410000000  0.5358620000000  0.5566670000000 1.0
C      1  0.5477000000000  0.5374880000000  0.4724790000000 1.0
C      1  0.4724700000000  0.5476970000000  0.5374840000000 1.0
C      1  0.5374830000000  0.4724760000000  0.5477010000000 1.0
C      1  0.4522930000000  0.5374740000000  0.5275270000000 1.0
C      1  0.5477070000000  0.4625220000000  0.5275220000000 1.0
C      1  0.4523010000000  0.4625160000000  0.4724720000000 1.0
C      1  0.5275200000000  0.5477090000000  0.4625230000000 1.0
C      1  0.4724810000000  0.4522970000000  0.4625150000000 1.0
C      1  0.5275290000000  0.4522970000000  0.5374770000000 1.0
C      1  0.4625230000000  0.4724750000000  0.4522940000000 1.0
C      1  0.5374780000000  0.5275320000000  0.4522990000000 1.0
C      1  0.4625160000000  0.5275170000000  0.5477050000000 1.0
C      1  0.4724710000000  0.5374740000000  0.5477060000000 1.0
C      1  0.5374760000000  0.5477090000000  0.4724790000000 1.0
C      1  0.5477060000000  0.4724780000000  0.5374790000000 1.0
C      1  0.5275210000000  0.5374870000000  0.4523000000000 1.0
C      1  0.5275280000000  0.4625190000000  0.5477010000000 1.0
C      1  0.4724800000000  0.4625200000000  0.4522940000000 1.0
C      1  0.4625140000000  0.5476970000000  0.5275280000000 1.0
C      1  0.4625250000000  0.4522950000000  0.4724720000000 1.0
C      1  0.5374850000000  0.4522990000000  0.5275210000000 1.0
C      1  0.4523000000000  0.4724730000000  0.4625170000000 1.0
C      1  0.4522940000000  0.5275170000000  0.5374820000000 1.0
C      1  0.5477010000000  0.5275320000000  0.4625220000000 1.0
C      1  0.4435200000000  0.4536240000000  0.5072580000000 1.0
C      1  0.5072690000000  0.4435200000000  0.4536260000000 1.0
C      1  0.4536300000000  0.5072620000000  0.4435150000000 1.0
C      1  0.5564900000000  0.4536370000000  0.4927350000000 1.0
C      1  0.4435100000000  0.5463640000000  0.4927410000000 1.0
C      1  0.5564800000000  0.5463750000000  0.5072660000000 1.0
C      1  0.4927430000000  0.4435110000000  0.5463660000000 1.0
C      1  0.5072560000000  0.5564820000000  0.5463740000000 1.0
C      1  0.4927320000000  0.5564870000000  0.4536340000000 1.0
C      1  0.5463690000000  0.5072630000000  0.5564860000000 1.0
C      1  0.4536300000000  0.4927290000000  0.5564840000000 1.0
C      1  0.5463710000000  0.4927470000000  0.4435150000000 1.0
C      1  0.5072680000000  0.4536350000000  0.4435120000000 1.0
C      1  0.4536360000000  0.4435100000000  0.5072570000000 1.0
C      1  0.4435150000000  0.5072600000000  0.4536300000000 1.0
C      1  0.4927420000000  0.4536250000000  0.5564810000000 1.0
C      1  0.4927340000000  0.5463730000000  0.4435190000000 1.0
C      1  0.5072570000000  0.5463660000000  0.5564880000000 1.0
C      1  0.5463760000000  0.4435210000000  0.4927340000000 1.0
C      1  0.5463640000000  0.5564890000000  0.5072670000000 1.0
C      1  0.4536240000000  0.5564800000000  0.4927420000000 1.0
C      1  0.5564840000000  0.5072650000000  0.5463710000000 1.0
C      1  0.5564860000000  0.4927470000000  0.4536300000000 1.0
C      1  0.4435160000000  0.4927280000000  0.5463690000000 1.0
C      1  0.5275190000000  0.5477030000000  0.5374850000000 1.0
C      1  0.5374770000000  0.5275250000000  0.5477060000000 1.0
C      1  0.5476990000000  0.5374840000000  0.5275280000000 1.0
C      1  0.4724710000000  0.5477030000000  0.4625230000000 1.0
C      1  0.5275300000000  0.4523030000000  0.4625160000000 1.0
C      1  0.4724800000000  0.4522910000000  0.5374770000000 1.0
C      1  0.4625170000000  0.5275240000000  0.4522990000000 1.0
C      1  0.5374840000000  0.4724830000000  0.4522950000000 1.0
C      1  0.4625220000000  0.4724680000000  0.5477010000000 1.0
C      1  0.4522930000000  0.5374780000000  0.4724780000000 1.0
C      1  0.5477070000000  0.4625260000000  0.4724730000000 1.0
C      1  0.4523000000000  0.4625120000000  0.5275210000000 1.0
C      1  0.5374750000000  0.5477050000000  0.5275280000000 1.0
C      1  0.5477000000000  0.5275270000000  0.5374830000000 1.0
C      1  0.5275200000000  0.5374800000000  0.5477060000000 1.0
C      1  0.4625150000000  0.5477010000000  0.4724790000000 1.0
C      1  0.4625240000000  0.4522910000000  0.5275210000000 1.0
C      1  0.5374860000000  0.4523030000000  0.4724720000000 1.0
C      1  0.4522940000000  0.5275220000000  0.4625210000000 1.0
C      1  0.4522990000000  0.4724680000000  0.5374780000000 1.0
C      1  0.5477060000000  0.4724830000000  0.4625180000000 1.0
C      1  0.4724720000000  0.5374810000000  0.4522990000000 1.0
C      1  0.4724790000000  0.4625130000000  0.5477000000000 1.0
C      1  0.5275290000000  0.4625260000000  0.4522940000000 1.0
C      1  0.4792680000000  0.5690300000000  0.5000050000000 1.0
C      1  0.5000020000000  0.4792700000000  0.5690300000000 1.0
C      1  0.5690320000000  0.5000090000000  0.4792750000000 1.0
C      1  0.5207180000000  0.5690340000000  0.5000050000000 1.0
C      1  0.4792820000000  0.4309660000000  0.4999950000000 1.0
C      1  0.5207320000000  0.4309700000000  0.4999950000000 1.0
C      1  0.5000030000000  0.4792800000000  0.4309660000000 1.0
C      1  0.4999980000000  0.5207300000000  0.4309700000000 1.0
C      1  0.4999970000000  0.5207200000000  0.5690340000000 1.0
C      1  0.4309680000000  0.4999910000000  0.5207250000000 1.0
C      1  0.5690320000000  0.5000060000000  0.5207260000000 1.0
C      1  0.4309680000000  0.4999940000000  0.4792740000000 1.0
C      1  0.4999930000000  0.5690340000000  0.4792800000000 1.0
C      1  0.5690340000000  0.4792820000000  0.4999990000000 1.0
C      1  0.4792740000000  0.4999930000000  0.5690320000000 1.0
C      1  0.4999930000000  0.5690300000000  0.5207300000000 1.0
C      1  0.5000070000000  0.4309700000000  0.4792700000000 1.0
C      1  0.5000070000000  0.4309660000000  0.5207200000000 1.0
C      1  0.4309700000000  0.4792680000000  0.4999980000000 1.0
C      1  0.4309660000000  0.5207180000000  0.5000010000000 1.0
C      1  0.5690300000000  0.5207320000000  0.5000020000000 1.0
C      1  0.5207260000000  0.5000070000000  0.4309680000000 1.0
C      1  0.5207250000000  0.4999970000000  0.5690320000000 1.0
C      1  0.4792750000000  0.5000030000000  0.4309680000000 1.0
C      1  0.4763150000000  0.4363190000000  0.4865260000000 1.0
C      1  0.4865340000000  0.4763120000000  0.4363190000000 1.0
C      1  0.4363220000000  0.4865260000000  0.4763070000000 1.0
C      1  0.5236980000000  0.4363220000000  0.5134640000000 1.0
C      1  0.4763020000000  0.5636760000000  0.5134730000000 1.0
C      1  0.5236850000000  0.5636830000000  0.4865360000000 1.0
C      1  0.5134710000000  0.4763050000000  0.5636780000000 1.0
C      1  0.4865280000000  0.5236850000000  0.5636810000000 1.0
C      1  0.5134670000000  0.5236980000000  0.4363220000000 1.0
C      1  0.5636810000000  0.4865360000000  0.5236910000000 1.0
C      1  0.4363190000000  0.5134600000000  0.5236920000000 1.0
C      1  0.5636780000000  0.5134770000000  0.4763100000000 1.0
C      1  0.4865380000000  0.4363210000000  0.4763040000000 1.0
C      1  0.4363230000000  0.4763030000000  0.4865290000000 1.0
C      1  0.4763110000000  0.4865340000000  0.4363190000000 1.0
C      1  0.5134750000000  0.4363200000000  0.5236870000000 1.0
C      1  0.5134620000000  0.5636830000000  0.4763140000000 1.0
C      1  0.4865240000000  0.5636760000000  0.5236960000000 1.0
C      1  0.5636820000000  0.4763140000000  0.5134680000000 1.0
C      1  0.5636770000000  0.5236990000000  0.4865340000000 1.0
C      1  0.4363180000000  0.5236840000000  0.5134700000000 1.0
C      1  0.5236920000000  0.4865290000000  0.5636790000000 1.0
C      1  0.5236910000000  0.5134760000000  0.4363220000000 1.0
C      1  0.4763070000000  0.5134610000000  0.5636800000000 1.0
C      1  0.5072580000000  0.5463750000000  0.4435190000000 1.0
C      1  0.4435140000000  0.5072530000000  0.5463700000000 1.0
C      1  0.5463760000000  0.4435200000000  0.5072580000000 1.0
C      1  0.4927320000000  0.5463650000000  0.5564880000000 1.0
C      1  0.5072660000000  0.4536270000000  0.5564810000000 1.0
C      1  0.4927430000000  0.4536340000000  0.4435120000000 1.0
C      1  0.5564840000000  0.5072720000000  0.4536310000000 1.0
C      1  0.4435160000000  0.4927350000000  0.4536290000000 1.0
C      1  0.5564850000000  0.4927400000000  0.5463700000000 1.0
C      1  0.4536360000000  0.4435110000000  0.4927330000000 1.0
C      1  0.5463640000000  0.5564900000000  0.4927430000000 1.0
C      1  0.4536240000000  0.5564790000000  0.5072660000000 1.0
C      1  0.4435100000000  0.5463630000000  0.5072650000000 1.0
C      1  0.5463700000000  0.5072710000000  0.4435160000000 1.0
C      1  0.5072680000000  0.4435130000000  0.5463660000000 1.0
C      1  0.5564800000000  0.5463760000000  0.4927420000000 1.0
C      1  0.5564900000000  0.4536360000000  0.5072590000000 1.0
C      1  0.4435200000000  0.4536250000000  0.4927340000000 1.0
C      1  0.4536290000000  0.5072530000000  0.5564850000000 1.0
C      1  0.4536310000000  0.4927370000000  0.4435140000000 1.0
C      1  0.5463700000000  0.4927380000000  0.5564850000000 1.0
C      1  0.4927440000000  0.4435180000000  0.4536260000000 1.0
C      1  0.4927310000000  0.5564800000000  0.5463740000000 1.0
C      1  0.5072570000000  0.5564890000000  0.4536340000000 1.0
C      1  0.4898090000000  0.4219640000000  0.4999940000000 1.0
C      1  0.5000020000000  0.4898060000000  0.4219640000000 1.0
C      1  0.4219650000000  0.4999930000000  0.4898000000000 1.0
C      1  0.5102080000000  0.4219660000000  0.4999940000000 1.0
C      1  0.4897920000000  0.5780340000000  0.5000060000000 1.0
C      1  0.5101910000000  0.5780360000000  0.5000060000000 1.0
C      1  0.5000000000000  0.4897950000000  0.5780340000000 1.0
C      1  0.4999980000000  0.5101940000000  0.5780360000000 1.0
C      1  0.5000000000000  0.5102050000000  0.4219660000000 1.0
C      1  0.5780350000000  0.5000070000000  0.5102000000000 1.0
C      1  0.4219650000000  0.4999910000000  0.5101990000000 1.0
C      1  0.5780350000000  0.5000090000000  0.4898010000000 1.0
C      1  0.5000080000000  0.4219660000000  0.4897950000000 1.0
C      1  0.4219660000000  0.4897920000000  0.4999980000000 1.0
C      1  0.4898010000000  0.5000050000000  0.4219650000000 1.0
C      1  0.5000080000000  0.4219640000000  0.5101940000000 1.0
C      1  0.4999920000000  0.5780360000000  0.4898060000000 1.0
C      1  0.4999920000000  0.5780340000000  0.5102050000000 1.0
C      1  0.5780360000000  0.4898090000000  0.5000000000000 1.0
C      1  0.5780340000000  0.5102080000000  0.5000020000000 1.0
C      1  0.4219640000000  0.5101910000000  0.5000000000000 1.0
C      1  0.5101990000000  0.4999950000000  0.5780350000000 1.0
C      1  0.5102000000000  0.5000070000000  0.4219650000000 1.0
C      1  0.4898000000000  0.4999930000000  0.5780350000000 1.0
C      1  0.4433340000000  0.5163510000000  0.4641330000000 1.0
C      1  0.4641380000000  0.4433300000000  0.5163500000000 1.0
C      1  0.5163590000000  0.4641380000000  0.4433330000000 1.0
C      1  0.5566630000000  0.5163570000000  0.5358700000000 1.0
C      1  0.4433360000000  0.4836370000000  0.5358660000000 1.0
C      1  0.5566670000000  0.4836540000000  0.4641310000000 1.0
C      1  0.5358740000000  0.4433400000000  0.4836420000000 1.0
C      1  0.4641260000000  0.5566620000000  0.4836500000000 1.0
C      1  0.5358620000000  0.5566670000000  0.5163590000000 1.0
C      1  0.4836490000000  0.4641260000000  0.5566620000000 1.0
C      1  0.5163500000000  0.5358660000000  0.5566680000000 1.0
C      1  0.4836430000000  0.5358710000000  0.4433380000000 1.0
C      1  0.4641310000000  0.5163550000000  0.4433360000000 1.0
C      1  0.5163610000000  0.4433400000000  0.4641280000000 1.0
C      1  0.4433390000000  0.4641250000000  0.5163510000000 1.0
C      1  0.5358660000000  0.5163540000000  0.5566670000000 1.0
C      1  0.5358700000000  0.4836540000000  0.4433340000000 1.0
C      1  0.4641330000000  0.4836380000000  0.5566630000000 1.0
C      1  0.4836510000000  0.4433310000000  0.5358640000000 1.0
C      1  0.4836400000000  0.5566660000000  0.4641360000000 1.0
C      1  0.5163480000000  0.5566640000000  0.5358730000000 1.0
C      1  0.5566690000000  0.4641390000000  0.4836440000000 1.0
C      1  0.5566610000000  0.5358730000000  0.5163580000000 1.0
C      1  0.4433310000000  0.5358630000000  0.4836480000000 1.0
C      1  0.4763090000000  0.4865240000000  0.5636780000000 1.0
C      1  0.5636820000000  0.4763160000000  0.4865300000000 1.0
C      1  0.4865250000000  0.5636800000000  0.4763130000000 1.0
C      1  0.5236930000000  0.4865390000000  0.4363200000000 1.0
C      1  0.4763080000000  0.5134710000000  0.4363210000000 1.0
C      1  0.5236890000000  0.5134660000000  0.5636810000000 1.0
C      1  0.4363230000000  0.4763010000000  0.5134660000000 1.0
C      1  0.5636770000000  0.5236970000000  0.5134710000000 1.0
C      1  0.4363180000000  0.5236860000000  0.4865320000000 1.0
C      1  0.5134620000000  0.5636790000000  0.5236960000000 1.0
C      1  0.4865380000000  0.4363170000000  0.5236860000000 1.0
C      1  0.5134760000000  0.4363240000000  0.4763040000000 1.0
C      1  0.5636810000000  0.4865400000000  0.4763080000000 1.0
C      1  0.4865330000000  0.4763020000000  0.5636780000000 1.0
C      1  0.4763020000000  0.5636780000000  0.4865360000000 1.0
C      1  0.4363220000000  0.4865230000000  0.5236900000000 1.0
C      1  0.4363190000000  0.5134640000000  0.4763090000000 1.0
C      1  0.5636780000000  0.5134740000000  0.5236930000000 1.0
C      1  0.5134720000000  0.4763150000000  0.4363190000000 1.0
C      1  0.5134660000000  0.5236880000000  0.5636810000000 1.0
C      1  0.4865290000000  0.5236950000000  0.4363220000000 1.0
C      1  0.5236850000000  0.5636810000000  0.5134740000000 1.0
C      1  0.5236980000000  0.4363240000000  0.4865270000000 1.0
C      1  0.4763150000000  0.4363170000000  0.5134640000000 1.0
END
