TITL C-102688-8074-141 53.9531788668877 1000000 -1630.27755257535 0 0 240 (Td) n - 1
REM
REM in /home/chem/mssmkc/work/GAP20/Larger-Clusters/Only-C240-new-series
REM
REM
REM
REM
REM
REM ./C.cell (0485df7495ed2a90f93db84a705cd676)
REM
REM compiler GCC version 8.3.0
REM options -cpp -mtune=generic -march=x86-64 -g -O0
REM seed -553026980 1803171981 -439304360 -1491349455 -1173488869 -1652676339 -1706048687 1199222339 -1679079656 1871301042 991623186 -1714751068 853429440 -1243066745 730480567 -298779022 843609685 1014410870 820641643 159554492 -50133226 -1284934172 121527372 510756523 356773835 1369407767 -876709002 -1799856173 -1373345249 -748508977 -861325582 2147370096 318791634
REM
CELL 1.54180  100.00000  100.00000  100.00000   90.00000   90.00000   90.00000
LATT -1
SFAC C  
C      1  0.5657340000000  0.4999230000000  0.4898400000000 1.0
C      1  0.4898390000000  0.5657330000000  0.4999240000000 1.0
C      1  0.4999220000000  0.4898390000000  0.5657330000000 1.0
C      1  0.5657330000000  0.5000760000000  0.5101620000000 1.0
C      1  0.4342670000000  0.5000770000000  0.4898380000000 1.0
C      1  0.4342660000000  0.4999240000000  0.5101600000000 1.0
C      1  0.4898390000000  0.4342670000000  0.5000760000000 1.0
C      1  0.5101610000000  0.4342670000000  0.4999230000000 1.0
C      1  0.5101610000000  0.5657330000000  0.5000770000000 1.0
C      1  0.4999250000000  0.5101610000000  0.4342670000000 1.0
C      1  0.5000750000000  0.5101610000000  0.5657340000000 1.0
C      1  0.5000780000000  0.4898390000000  0.4342670000000 1.0
C      1  0.5657330000000  0.4898390000000  0.4999250000000 1.0
C      1  0.4898380000000  0.4999230000000  0.5657330000000 1.0
C      1  0.4999240000000  0.5657330000000  0.4898390000000 1.0
C      1  0.5657330000000  0.5101610000000  0.5000780000000 1.0
C      1  0.4342670000000  0.4898390000000  0.5000750000000 1.0
C      1  0.4342670000000  0.5101610000000  0.4999220000000 1.0
C      1  0.4898400000000  0.5000770000000  0.4342660000000 1.0
C      1  0.5101620000000  0.4999240000000  0.4342670000000 1.0
C      1  0.5101600000000  0.5000760000000  0.5657340000000 1.0
C      1  0.4999230000000  0.4342670000000  0.5101610000000 1.0
C      1  0.5000770000000  0.5657330000000  0.5101610000000 1.0
C      1  0.5000770000000  0.4342670000000  0.4898390000000 1.0
C      1  0.5169580000000  0.4482010000000  0.5352340000000 1.0
C      1  0.5352350000000  0.5169590000000  0.4482020000000 1.0
C      1  0.4482010000000  0.5352340000000  0.5169580000000 1.0
C      1  0.5169600000000  0.5517990000000  0.4647660000000 1.0
C      1  0.4830410000000  0.5517990000000  0.5352340000000 1.0
C      1  0.4830420000000  0.4482010000000  0.4647650000000 1.0
C      1  0.5352330000000  0.4830410000000  0.5518000000000 1.0
C      1  0.4647670000000  0.4830420000000  0.4482000000000 1.0
C      1  0.4647650000000  0.5169590000000  0.5517980000000 1.0
C      1  0.4482010000000  0.4647660000000  0.4830400000000 1.0
C      1  0.5517980000000  0.4647660000000  0.5169600000000 1.0
C      1  0.5517990000000  0.5352340000000  0.4830420000000 1.0
C      1  0.5169600000000  0.5352350000000  0.4482020000000 1.0
C      1  0.5352340000000  0.4482010000000  0.5169590000000 1.0
C      1  0.4482000000000  0.5169590000000  0.5352330000000 1.0
C      1  0.5169580000000  0.4647650000000  0.5517990000000 1.0
C      1  0.4830400000000  0.5352340000000  0.5517990000000 1.0
C      1  0.4830420000000  0.4647660000000  0.4482010000000 1.0
C      1  0.5352350000000  0.5517990000000  0.4830420000000 1.0
C      1  0.4647660000000  0.4482010000000  0.4830400000000 1.0
C      1  0.4647660000000  0.5517990000000  0.5169580000000 1.0
C      1  0.4482020000000  0.4830420000000  0.4647650000000 1.0
C      1  0.5518000000000  0.5169590000000  0.4647670000000 1.0
C      1  0.5517980000000  0.4830410000000  0.5352350000000 1.0
C      1  0.4490370000000  0.4695390000000  0.4591980000000 1.0
C      1  0.4592000000000  0.4490360000000  0.4695370000000 1.0
C      1  0.4695390000000  0.4592000000000  0.4490350000000 1.0
C      1  0.4490350000000  0.5304620000000  0.5408000000000 1.0
C      1  0.5509650000000  0.5304620000000  0.4592010000000 1.0
C      1  0.5509630000000  0.4695380000000  0.5408020000000 1.0
C      1  0.4591990000000  0.5509640000000  0.5304610000000 1.0
C      1  0.5408010000000  0.5509640000000  0.4695390000000 1.0
C      1  0.5408000000000  0.4490360000000  0.5304620000000 1.0
C      1  0.4695370000000  0.5408000000000  0.5509640000000 1.0
C      1  0.5304630000000  0.5408010000000  0.4490370000000 1.0
C      1  0.5304610000000  0.4591990000000  0.5509640000000 1.0
C      1  0.4490360000000  0.4592000000000  0.4695370000000 1.0
C      1  0.4592000000000  0.4695390000000  0.4490350000000 1.0
C      1  0.4695390000000  0.4490360000000  0.4591980000000 1.0
C      1  0.4490350000000  0.5408010000000  0.5304610000000 1.0
C      1  0.5509630000000  0.4591990000000  0.5304630000000 1.0
C      1  0.5509650000000  0.5408010000000  0.4695390000000 1.0
C      1  0.4591980000000  0.5304620000000  0.5509630000000 1.0
C      1  0.5407990000000  0.4695380000000  0.5509650000000 1.0
C      1  0.5408020000000  0.5304620000000  0.4490370000000 1.0
C      1  0.4695370000000  0.5509640000000  0.5408000000000 1.0
C      1  0.5304610000000  0.4490360000000  0.5408010000000 1.0
C      1  0.5304630000000  0.5509640000000  0.4592000000000 1.0
C      1  0.5254630000000  0.5511960000000  0.5158430000000 1.0
C      1  0.5158410000000  0.5254620000000  0.5511970000000 1.0
C      1  0.5511960000000  0.5158410000000  0.5254640000000 1.0
C      1  0.5254630000000  0.4488040000000  0.4841580000000 1.0
C      1  0.4745370000000  0.4488040000000  0.5158410000000 1.0
C      1  0.4745380000000  0.5511960000000  0.4841580000000 1.0
C      1  0.5158430000000  0.4745380000000  0.4488040000000 1.0
C      1  0.4841570000000  0.4745370000000  0.5511950000000 1.0
C      1  0.4841590000000  0.5254630000000  0.4488040000000 1.0
C      1  0.5511960000000  0.4841580000000  0.4745380000000 1.0
C      1  0.4488030000000  0.4841580000000  0.5254610000000 1.0
C      1  0.4488050000000  0.5158420000000  0.4745360000000 1.0
C      1  0.5254620000000  0.5158410000000  0.5511970000000 1.0
C      1  0.5158410000000  0.5511960000000  0.5254630000000 1.0
C      1  0.5511960000000  0.5254620000000  0.5158430000000 1.0
C      1  0.5254640000000  0.4841580000000  0.4488040000000 1.0
C      1  0.4745390000000  0.5158420000000  0.4488040000000 1.0
C      1  0.4745360000000  0.4841580000000  0.5511950000000 1.0
C      1  0.5158420000000  0.4488040000000  0.4745370000000 1.0
C      1  0.4841590000000  0.5511960000000  0.4745370000000 1.0
C      1  0.4841570000000  0.4488040000000  0.5254620000000 1.0
C      1  0.5511960000000  0.4745370000000  0.4841590000000 1.0
C      1  0.4488040000000  0.5254630000000  0.4841570000000 1.0
C      1  0.4488040000000  0.4745370000000  0.5158410000000 1.0
C      1  0.5553010000000  0.4795260000000  0.4988540000000 1.0
C      1  0.4988540000000  0.5553010000000  0.4795260000000 1.0
C      1  0.4795250000000  0.4988530000000  0.5553000000000 1.0
C      1  0.5553010000000  0.5204740000000  0.5011480000000 1.0
C      1  0.4446990000000  0.5204740000000  0.4988520000000 1.0
C      1  0.4446990000000  0.4795260000000  0.5011460000000 1.0
C      1  0.4988520000000  0.4446990000000  0.5204730000000 1.0
C      1  0.5011470000000  0.4446990000000  0.4795260000000 1.0
C      1  0.5011470000000  0.5553010000000  0.5204740000000 1.0
C      1  0.4795270000000  0.5011470000000  0.4446990000000 1.0
C      1  0.5204730000000  0.5011460000000  0.5553010000000 1.0
C      1  0.5204750000000  0.4988530000000  0.4447000000000 1.0
C      1  0.5553010000000  0.4988530000000  0.4795270000000 1.0
C      1  0.4988520000000  0.4795260000000  0.5553010000000 1.0
C      1  0.4795260000000  0.5553010000000  0.4988530000000 1.0
C      1  0.5553000000000  0.5011470000000  0.5204750000000 1.0
C      1  0.4446990000000  0.4988530000000  0.5204730000000 1.0
C      1  0.4447000000000  0.5011470000000  0.4795250000000 1.0
C      1  0.4988540000000  0.5204740000000  0.4446990000000 1.0
C      1  0.5011480000000  0.4795260000000  0.4446990000000 1.0
C      1  0.5011460000000  0.5204740000000  0.5553010000000 1.0
C      1  0.4795260000000  0.4446990000000  0.5011460000000 1.0
C      1  0.5204740000000  0.5553010000000  0.5011480000000 1.0
C      1  0.5204740000000  0.4446990000000  0.4988530000000 1.0
C      1  0.4995470000000  0.4896870000000  0.5309860000000 1.0
C      1  0.5309860000000  0.4995470000000  0.4896880000000 1.0
C      1  0.4896880000000  0.5309860000000  0.4995470000000 1.0
C      1  0.4995480000000  0.5103130000000  0.4690140000000 1.0
C      1  0.5004520000000  0.5103120000000  0.5309860000000 1.0
C      1  0.5004530000000  0.4896880000000  0.4690140000000 1.0
C      1  0.5309860000000  0.5004530000000  0.5103130000000 1.0
C      1  0.4690140000000  0.5004530000000  0.4896870000000 1.0
C      1  0.4690140000000  0.4995470000000  0.5103120000000 1.0
C      1  0.4896880000000  0.4690140000000  0.5004520000000 1.0
C      1  0.5103120000000  0.4690140000000  0.4995470000000 1.0
C      1  0.5103120000000  0.5309860000000  0.5004530000000 1.0
C      1  0.4995480000000  0.5309860000000  0.4896880000000 1.0
C      1  0.5309860000000  0.4896880000000  0.4995480000000 1.0
C      1  0.4896870000000  0.4995470000000  0.5309860000000 1.0
C      1  0.4995470000000  0.4690140000000  0.5103120000000 1.0
C      1  0.5004530000000  0.5309860000000  0.5103130000000 1.0
C      1  0.5004530000000  0.4690140000000  0.4896880000000 1.0
C      1  0.5309860000000  0.5103120000000  0.5004530000000 1.0
C      1  0.4690140000000  0.4896880000000  0.5004520000000 1.0
C      1  0.4690140000000  0.5103120000000  0.4995470000000 1.0
C      1  0.4896880000000  0.5004530000000  0.4690140000000 1.0
C      1  0.5103130000000  0.4995480000000  0.4690140000000 1.0
C      1  0.5103120000000  0.5004520000000  0.5309860000000 1.0
C      1  0.5555370000000  0.4650150000000  0.5035530000000 1.0
C      1  0.5035530000000  0.5555370000000  0.4650160000000 1.0
C      1  0.4650140000000  0.5035520000000  0.5555360000000 1.0
C      1  0.5555370000000  0.5349840000000  0.4964490000000 1.0
C      1  0.4444630000000  0.5349850000000  0.5035510000000 1.0
C      1  0.4444630000000  0.4650160000000  0.4964460000000 1.0
C      1  0.5035510000000  0.4444630000000  0.5349840000000 1.0
C      1  0.4964480000000  0.4444630000000  0.4650150000000 1.0
C      1  0.4964470000000  0.5555370000000  0.5349850000000 1.0
C      1  0.4650170000000  0.4964480000000  0.4444620000000 1.0
C      1  0.5349830000000  0.4964470000000  0.5555380000000 1.0
C      1  0.5349860000000  0.5035530000000  0.4444640000000 1.0
C      1  0.5555380000000  0.5035520000000  0.4650170000000 1.0
C      1  0.5035510000000  0.4650150000000  0.5555370000000 1.0
C      1  0.4650160000000  0.5555370000000  0.5035520000000 1.0
C      1  0.5555360000000  0.4964470000000  0.5349860000000 1.0
C      1  0.4444620000000  0.5035520000000  0.5349830000000 1.0
C      1  0.4444640000000  0.4964480000000  0.4650140000000 1.0
C      1  0.5035540000000  0.5349850000000  0.4444630000000 1.0
C      1  0.4964490000000  0.4650160000000  0.4444630000000 1.0
C      1  0.4964470000000  0.5349840000000  0.5555370000000 1.0
C      1  0.4650150000000  0.4444630000000  0.4964470000000 1.0
C      1  0.5349850000000  0.5555370000000  0.4964490000000 1.0
C      1  0.5349840000000  0.4444630000000  0.5035530000000 1.0
C      1  0.4904520000000  0.5486180000000  0.4612590000000 1.0
C      1  0.4612580000000  0.4904510000000  0.5486170000000 1.0
C      1  0.5486170000000  0.4612590000000  0.4904520000000 1.0
C      1  0.4904500000000  0.4513820000000  0.5387410000000 1.0
C      1  0.5095490000000  0.4513830000000  0.4612590000000 1.0
C      1  0.5095480000000  0.5486170000000  0.5387420000000 1.0
C      1  0.4612600000000  0.5095490000000  0.4513820000000 1.0
C      1  0.5387400000000  0.5095480000000  0.5486180000000 1.0
C      1  0.5387420000000  0.4904510000000  0.4513830000000 1.0
C      1  0.5486170000000  0.5387410000000  0.5095500000000 1.0
C      1  0.4513830000000  0.5387420000000  0.4904500000000 1.0
C      1  0.4513820000000  0.4612590000000  0.5095480000000 1.0
C      1  0.4904500000000  0.4612580000000  0.5486170000000 1.0
C      1  0.4612590000000  0.5486180000000  0.4904510000000 1.0
C      1  0.5486180000000  0.4904510000000  0.4612600000000 1.0
C      1  0.4904520000000  0.5387420000000  0.4513830000000 1.0
C      1  0.5095500000000  0.4612590000000  0.4513830000000 1.0
C      1  0.5095480000000  0.5387410000000  0.5486180000000 1.0
C      1  0.4612580000000  0.4513830000000  0.5095480000000 1.0
C      1  0.5387410000000  0.5486170000000  0.5095500000000 1.0
C      1  0.5387410000000  0.4513820000000  0.4904520000000 1.0
C      1  0.5486170000000  0.5095480000000  0.5387420000000 1.0
C      1  0.4513820000000  0.4904510000000  0.5387400000000 1.0
C      1  0.4513830000000  0.5095490000000  0.4612580000000 1.0
C      1  0.5164890000000  0.5383940000000  0.4723760000000 1.0
C      1  0.4723750000000  0.5164880000000  0.5383930000000 1.0
C      1  0.5383930000000  0.4723750000000  0.5164890000000 1.0
C      1  0.5164880000000  0.4616060000000  0.5276250000000 1.0
C      1  0.4835120000000  0.4616070000000  0.4723750000000 1.0
C      1  0.4835110000000  0.5383930000000  0.5276240000000 1.0
C      1  0.4723760000000  0.4835120000000  0.4616060000000 1.0
C      1  0.5276230000000  0.4835110000000  0.5383940000000 1.0
C      1  0.5276250000000  0.5164890000000  0.4616070000000 1.0
C      1  0.5383940000000  0.5276240000000  0.4835120000000 1.0
C      1  0.4616060000000  0.5276240000000  0.5164880000000 1.0
C      1  0.4616070000000  0.4723760000000  0.4835110000000 1.0
C      1  0.5164880000000  0.4723750000000  0.5383940000000 1.0
C      1  0.4723760000000  0.5383930000000  0.5164880000000 1.0
C      1  0.5383940000000  0.5164880000000  0.4723770000000 1.0
C      1  0.5164890000000  0.5276240000000  0.4616070000000 1.0
C      1  0.4835120000000  0.4723760000000  0.4616060000000 1.0
C      1  0.4835110000000  0.5276240000000  0.5383930000000 1.0
C      1  0.4723760000000  0.4616070000000  0.4835110000000 1.0
C      1  0.5276250000000  0.5383930000000  0.4835120000000 1.0
C      1  0.5276240000000  0.4616060000000  0.5164890000000 1.0
C      1  0.5383930000000  0.4835110000000  0.5276250000000 1.0
C      1  0.4616060000000  0.5164880000000  0.5276240000000 1.0
C      1  0.4616070000000  0.4835120000000  0.4723750000000 1.0
C      1  0.5060930000000  0.4581680000000  0.5172450000000 1.0
C      1  0.5172460000000  0.5060930000000  0.4581680000000 1.0
C      1  0.4581680000000  0.5172450000000  0.5060930000000 1.0
C      1  0.5060940000000  0.5418320000000  0.4827550000000 1.0
C      1  0.4939070000000  0.5418320000000  0.5172450000000 1.0
C      1  0.4939070000000  0.4581680000000  0.4827540000000 1.0
C      1  0.5172440000000  0.4939060000000  0.5418320000000 1.0
C      1  0.4827560000000  0.4939070000000  0.4581680000000 1.0
C      1  0.4827540000000  0.5060930000000  0.5418320000000 1.0
C      1  0.4581680000000  0.4827550000000  0.4939060000000 1.0
C      1  0.5418320000000  0.4827550000000  0.5060940000000 1.0
C      1  0.5418320000000  0.5172450000000  0.4939080000000 1.0
C      1  0.5060940000000  0.5172460000000  0.4581680000000 1.0
C      1  0.5172450000000  0.4581680000000  0.5060930000000 1.0
C      1  0.4581680000000  0.5060930000000  0.5172440000000 1.0
C      1  0.5060920000000  0.4827540000000  0.5418320000000 1.0
C      1  0.4939060000000  0.5172450000000  0.5418320000000 1.0
C      1  0.4939080000000  0.4827550000000  0.4581680000000 1.0
C      1  0.5172460000000  0.5418320000000  0.4939070000000 1.0
C      1  0.4827550000000  0.4581680000000  0.4939060000000 1.0
C      1  0.4827550000000  0.5418320000000  0.5060930000000 1.0
C      1  0.4581680000000  0.4939070000000  0.4827540000000 1.0
C      1  0.5418320000000  0.5060930000000  0.4827560000000 1.0
C      1  0.5418320000000  0.4939070000000  0.5172460000000 1.0
END
