TITL C-102689-8077-90 -0.125464239895154 1000000 -1772.09582138975 0 0 240 (C1) n - 1
REM
REM in /home/chem/mssmkc/work/GAP20/Larger-Clusters/Only-C240-new-series
REM
REM
REM
REM
REM
REM ./C.cell (0485df7495ed2a90f93db84a705cd676)
REM
REM compiler GCC version 8.3.0
REM options -cpp -mtune=generic -march=x86-64 -g -O0
REM seed -1582335569 -155349940 1073131963 -2080737404 -2009903740 -1004950302 220725573 -694011908 125637383 -1732011103 373868205 1704581512 -1502038841 1933920029 2074663798 504335692 1192122672 1240270003 802055940 208201770 1378416478 -1063347219 -641037138 -1150279944 -2128856835 -750455214 -1646963017 1079224232 2068365845 -235398420 -1034239817 899588049 1315544599
REM
CELL 1.54180  100.00000  100.00000  100.00000   90.00000   90.00000   90.00000
LATT -1
SFAC C  
C      1  0.4847670000000  0.5602980000000  0.5074470000000 1.0
C      1  0.5605500000000  0.5077120000000  0.4844630000000 1.0
C      1  0.5074850000000  0.4840990000000  0.5599600000000 1.0
C      1  0.5155870000000  0.4392780000000  0.5081350000000 1.0
C      1  0.4842650000000  0.4418630000000  0.4931990000000 1.0
C      1  0.5161100000000  0.5600330000000  0.4924220000000 1.0
C      1  0.4396780000000  0.4921860000000  0.4841670000000 1.0
C      1  0.5583850000000  0.4931690000000  0.5154910000000 1.0
C      1  0.4407020000000  0.5073650000000  0.5152900000000 1.0
C      1  0.4926920000000  0.5154780000000  0.5596470000000 1.0
C      1  0.5073560000000  0.5158060000000  0.4412050000000 1.0
C      1  0.4924860000000  0.4848930000000  0.4405770000000 1.0
C      1  0.4849850000000  0.5604520000000  0.4923890000000 1.0
C      1  0.5600210000000  0.5079790000000  0.5156130000000 1.0
C      1  0.5073980000000  0.4847490000000  0.4403930000000 1.0
C      1  0.5152880000000  0.4402890000000  0.4930540000000 1.0
C      1  0.4844510000000  0.4410640000000  0.5077690000000 1.0
C      1  0.5159120000000  0.5587310000000  0.5072010000000 1.0
C      1  0.4410160000000  0.4924770000000  0.5151810000000 1.0
C      1  0.5598870000000  0.4928050000000  0.4846150000000 1.0
C      1  0.4412370000000  0.5069940000000  0.4843270000000 1.0
C      1  0.4925040000000  0.5159620000000  0.4398360000000 1.0
C      1  0.5075460000000  0.5152180000000  0.5586980000000 1.0
C      1  0.4926180000000  0.4843060000000  0.5590330000000 1.0
C      1  0.5049460000000  0.5256190000000  0.4805200000000 1.0
C      1  0.5346860000000  0.4856880000000  0.5062930000000 1.0
C      1  0.4835700000000  0.5067280000000  0.5276330000000 1.0
C      1  0.4937820000000  0.4648710000000  0.4870010000000 1.0
C      1  0.5083080000000  0.4702350000000  0.5174720000000 1.0
C      1  0.4918370000000  0.5280040000000  0.5162610000000 1.0
C      1  0.4726080000000  0.5147300000000  0.5060090000000 1.0
C      1  0.5387000000000  0.5135100000000  0.4929920000000 1.0
C      1  0.4721450000000  0.4802510000000  0.4942370000000 1.0
C      1  0.5173550000000  0.4921640000000  0.5271320000000 1.0
C      1  0.4848460000000  0.4943660000000  0.4630100000000 1.0
C      1  0.5124240000000  0.5060030000000  0.4643370000000 1.0
C      1  0.5035110000000  0.5365930000000  0.5127400000000 1.0
C      1  0.5269320000000  0.4844300000000  0.4933510000000 1.0
C      1  0.4800550000000  0.5055750000000  0.4715270000000 1.0
C      1  0.4959500000000  0.4624530000000  0.5161090000000 1.0
C      1  0.5060690000000  0.4729100000000  0.4845820000000 1.0
C      1  0.4900280000000  0.5265740000000  0.4823150000000 1.0
C      1  0.4648370000000  0.5122900000000  0.4933050000000 1.0
C      1  0.5319290000000  0.5150610000000  0.5048900000000 1.0
C      1  0.4635140000000  0.4844150000000  0.5057390000000 1.0
C      1  0.5152630000000  0.4936520000000  0.4726950000000 1.0
C      1  0.4866600000000  0.4949100000000  0.5362880000000 1.0
C      1  0.5144100000000  0.5045430000000  0.5357100000000 1.0
C      1  0.5336380000000  0.4726970000000  0.5469410000000 1.0
C      1  0.4733640000000  0.5467480000000  0.5338960000000 1.0
C      1  0.5476240000000  0.5349290000000  0.4730270000000 1.0
C      1  0.4666020000000  0.5268310000000  0.5464060000000 1.0
C      1  0.5341100000000  0.5274320000000  0.4541260000000 1.0
C      1  0.4653990000000  0.4730440000000  0.4527400000000 1.0
C      1  0.5270910000000  0.4523840000000  0.5346300000000 1.0
C      1  0.4726640000000  0.4539980000000  0.4663420000000 1.0
C      1  0.5277950000000  0.5478810000000  0.4663460000000 1.0
C      1  0.4524530000000  0.4660220000000  0.4726150000000 1.0
C      1  0.5461640000000  0.4658970000000  0.5273870000000 1.0
C      1  0.4542610000000  0.5334080000000  0.5265880000000 1.0
C      1  0.5333910000000  0.4736910000000  0.4540770000000 1.0
C      1  0.4735170000000  0.5473370000000  0.4660280000000 1.0
C      1  0.5475710000000  0.5341510000000  0.5272000000000 1.0
C      1  0.4664180000000  0.5275190000000  0.4528500000000 1.0
C      1  0.5342590000000  0.5269080000000  0.5465870000000 1.0
C      1  0.4661120000000  0.4727510000000  0.5465020000000 1.0
C      1  0.5263320000000  0.4542460000000  0.4669110000000 1.0
C      1  0.4727850000000  0.4528050000000  0.5338390000000 1.0
C      1  0.5273550000000  0.5465470000000  0.5334930000000 1.0
C      1  0.4527780000000  0.4656480000000  0.5270620000000 1.0
C      1  0.5460410000000  0.4668910000000  0.4735940000000 1.0
C      1  0.4543370000000  0.5339390000000  0.4728380000000 1.0
C      1  0.5256620000000  0.4615240000000  0.5454540000000 1.0
C      1  0.4625450000000  0.5449260000000  0.5256900000000 1.0
C      1  0.5459760000000  0.5266910000000  0.4620830000000 1.0
C      1  0.4745760000000  0.5379660000000  0.5450070000000 1.0
C      1  0.5264280000000  0.5387600000000  0.4553870000000 1.0
C      1  0.4734210000000  0.4619990000000  0.4544980000000 1.0
C      1  0.5382020000000  0.4540340000000  0.5266800000000 1.0
C      1  0.4614550000000  0.4551270000000  0.4742160000000 1.0
C      1  0.5392640000000  0.5465870000000  0.4739630000000 1.0
C      1  0.4540250000000  0.4739900000000  0.4613970000000 1.0
C      1  0.5448890000000  0.4739580000000  0.5383930000000 1.0
C      1  0.4554150000000  0.5255670000000  0.5377530000000 1.0
C      1  0.5252440000000  0.4627770000000  0.4556480000000 1.0
C      1  0.4622540000000  0.5457830000000  0.4736790000000 1.0
C      1  0.5459270000000  0.5260680000000  0.5382900000000 1.0
C      1  0.4745690000000  0.5385250000000  0.4548040000000 1.0
C      1  0.5264390000000  0.5381040000000  0.5450620000000 1.0
C      1  0.4738170000000  0.4614220000000  0.5452400000000 1.0
C      1  0.5374280000000  0.4556600000000  0.4747210000000 1.0
C      1  0.4614120000000  0.4542760000000  0.5260430000000 1.0
C      1  0.5387700000000  0.5453610000000  0.5259030000000 1.0
C      1  0.4544570000000  0.4736270000000  0.5381660000000 1.0
C      1  0.5447900000000  0.4747370000000  0.4624600000000 1.0
C      1  0.4553660000000  0.5261190000000  0.4616150000000 1.0
C      1  0.5074410000000  0.5502880000000  0.4572750000000 1.0
C      1  0.5486510000000  0.4574750000000  0.5072510000000 1.0
C      1  0.4577430000000  0.5064880000000  0.5490950000000 1.0
C      1  0.4927550000000  0.4511750000000  0.4575550000000 1.0
C      1  0.5064940000000  0.4498720000000  0.5430580000000 1.0
C      1  0.4936830000000  0.5494200000000  0.5424750000000 1.0
C      1  0.4517370000000  0.5421830000000  0.5064070000000 1.0
C      1  0.5508490000000  0.5438720000000  0.4932530000000 1.0
C      1  0.4496230000000  0.4571140000000  0.4931860000000 1.0
C      1  0.5425090000000  0.4931810000000  0.5495440000000 1.0
C      1  0.4569430000000  0.4934160000000  0.4502210000000 1.0
C      1  0.5428130000000  0.5073320000000  0.4512070000000 1.0
C      1  0.5072210000000  0.5493390000000  0.5425390000000 1.0
C      1  0.5485450000000  0.4580550000000  0.4938050000000 1.0
C      1  0.4574710000000  0.5070220000000  0.4501790000000 1.0
C      1  0.4928630000000  0.4495460000000  0.5434230000000 1.0
C      1  0.5062320000000  0.4513320000000  0.4580860000000 1.0
C      1  0.4939580000000  0.5494510000000  0.4576950000000 1.0
C      1  0.4516550000000  0.5425130000000  0.4929700000000 1.0
C      1  0.5507960000000  0.5435530000000  0.5068870000000 1.0
C      1  0.4496790000000  0.4567430000000  0.5068450000000 1.0
C      1  0.5424240000000  0.4938140000000  0.4511350000000 1.0
C      1  0.4573520000000  0.4929510000000  0.5491900000000 1.0
C      1  0.5430820000000  0.5067710000000  0.5496490000000 1.0
C      1  0.5507840000000  0.4871080000000  0.4604600000000 1.0
C      1  0.4861840000000  0.4594590000000  0.5514680000000 1.0
C      1  0.4604110000000  0.5515800000000  0.4862180000000 1.0
C      1  0.4495060000000  0.5135820000000  0.4599720000000 1.0
C      1  0.5518840000000  0.5135660000000  0.5403970000000 1.0
C      1  0.4486390000000  0.4862060000000  0.5399280000000 1.0
C      1  0.5139670000000  0.5399580000000  0.5510680000000 1.0
C      1  0.4872860000000  0.5399630000000  0.4495110000000 1.0
C      1  0.5128060000000  0.4608300000000  0.4498400000000 1.0
C      1  0.5391900000000  0.4498420000000  0.4871570000000 1.0
C      1  0.4594740000000  0.4484290000000  0.5135350000000 1.0
C      1  0.5407430000000  0.5514910000000  0.5135120000000 1.0
C      1  0.5505370000000  0.4866080000000  0.5398450000000 1.0
C      1  0.4860290000000  0.4602820000000  0.4486720000000 1.0
C      1  0.4609240000000  0.5505600000000  0.5131040000000 1.0
C      1  0.4495990000000  0.5130500000000  0.5394970000000 1.0
C      1  0.5519230000000  0.5141130000000  0.4601560000000 1.0
C      1  0.4484250000000  0.4866610000000  0.4596310000000 1.0
C      1  0.5140010000000  0.5403360000000  0.4494170000000 1.0
C      1  0.4871510000000  0.5397460000000  0.5506250000000 1.0
C      1  0.5130230000000  0.4597880000000  0.5509790000000 1.0
C      1  0.5399920000000  0.4482930000000  0.5140400000000 1.0
C      1  0.4597410000000  0.4493240000000  0.4867780000000 1.0
C      1  0.5412010000000  0.5524510000000  0.4865700000000 1.0
C      1  0.5073330000000  0.4440250000000  0.4819230000000 1.0
C      1  0.4466550000000  0.4815730000000  0.5064930000000 1.0
C      1  0.4809050000000  0.5081620000000  0.4421870000000 1.0
C      1  0.4932410000000  0.5581720000000  0.4809010000000 1.0
C      1  0.5068410000000  0.5528930000000  0.5176890000000 1.0
C      1  0.4935050000000  0.4462860000000  0.5187140000000 1.0
C      1  0.5577520000000  0.5195010000000  0.5077210000000 1.0
C      1  0.4487490000000  0.5170830000000  0.4927760000000 1.0
C      1  0.5561010000000  0.4817120000000  0.4926730000000 1.0
C      1  0.5187120000000  0.4926220000000  0.4437210000000 1.0
C      1  0.4821680000000  0.4931740000000  0.5528370000000 1.0
C      1  0.5181790000000  0.5063820000000  0.5528560000000 1.0
C      1  0.5079170000000  0.4416820000000  0.5196700000000 1.0
C      1  0.4420860000000  0.4806690000000  0.4920070000000 1.0
C      1  0.4811620000000  0.5077330000000  0.5570830000000 1.0
C      1  0.4923440000000  0.5575670000000  0.5189910000000 1.0
C      1  0.5079420000000  0.5585060000000  0.4807770000000 1.0
C      1  0.4928090000000  0.4486810000000  0.4828690000000 1.0
C      1  0.5542640000000  0.5185580000000  0.4928100000000 1.0
C      1  0.4443150000000  0.5185180000000  0.5073780000000 1.0
C      1  0.5511640000000  0.4827810000000  0.5071240000000 1.0
C      1  0.5190240000000  0.4918990000000  0.5573560000000 1.0
C      1  0.4817150000000  0.4935520000000  0.4465590000000 1.0
C      1  0.5174780000000  0.5071170000000  0.4482280000000 1.0
C      1  0.5142660000000  0.4460360000000  0.5317930000000 1.0
C      1  0.4484330000000  0.5305280000000  0.5137450000000 1.0
C      1  0.5309580000000  0.5145260000000  0.4486010000000 1.0
C      1  0.4860950000000  0.5530270000000  0.5310440000000 1.0
C      1  0.5148940000000  0.5543590000000  0.4686890000000 1.0
C      1  0.4855120000000  0.4484000000000  0.4693070000000 1.0
C      1  0.5514470000000  0.4691440000000  0.5145330000000 1.0
C      1  0.4459290000000  0.4685510000000  0.4854560000000 1.0
C      1  0.5536220000000  0.5321070000000  0.4858230000000 1.0
C      1  0.4683410000000  0.4859470000000  0.4468830000000 1.0
C      1  0.5310350000000  0.4855300000000  0.5531480000000 1.0
C      1  0.4692370000000  0.5140410000000  0.5525910000000 1.0
C      1  0.5136060000000  0.4481410000000  0.4698110000000 1.0
C      1  0.4490250000000  0.5307240000000  0.4856920000000 1.0
C      1  0.5313780000000  0.5140280000000  0.5524990000000 1.0
C      1  0.4864980000000  0.5533260000000  0.4690040000000 1.0
C      1  0.5144060000000  0.5522150000000  0.5307120000000 1.0
C      1  0.4855530000000  0.4463580000000  0.5317220000000 1.0
C      1  0.5520190000000  0.4696500000000  0.4863790000000 1.0
C      1  0.4466030000000  0.4683350000000  0.5142240000000 1.0
C      1  0.5541000000000  0.5317280000000  0.5142990000000 1.0
C      1  0.4689740000000  0.4856260000000  0.5523310000000 1.0
C      1  0.5307590000000  0.4863980000000  0.4479030000000 1.0
C      1  0.4689130000000  0.5146940000000  0.4463770000000 1.0
C      1  0.5076380000000  0.5303490000000  0.4420270000000 1.0
C      1  0.5302960000000  0.4407120000000  0.5076260000000 1.0
C      1  0.4415910000000  0.5068560000000  0.5300400000000 1.0
C      1  0.4923310000000  0.4702470000000  0.4411860000000 1.0
C      1  0.5068150000000  0.4693690000000  0.5587900000000 1.0
C      1  0.4933460000000  0.5302200000000  0.5585010000000 1.0
C      1  0.4701200000000  0.5586750000000  0.5068330000000 1.0
C      1  0.5309610000000  0.5594860000000  0.4928900000000 1.0
C      1  0.4696580000000  0.4418580000000  0.4931540000000 1.0
C      1  0.5581880000000  0.4929920000000  0.5300960000000 1.0
C      1  0.4408760000000  0.4928770000000  0.4694100000000 1.0
C      1  0.5597590000000  0.5076880000000  0.4698290000000 1.0
C      1  0.5077080000000  0.5298480000000  0.5582840000000 1.0
C      1  0.5299470000000  0.4416910000000  0.4933490000000 1.0
C      1  0.4419430000000  0.5071950000000  0.4697660000000 1.0
C      1  0.4924400000000  0.4696920000000  0.5585550000000 1.0
C      1  0.5067200000000  0.4700560000000  0.4415710000000 1.0
C      1  0.4932880000000  0.5306940000000  0.4411830000000 1.0
C      1  0.4702580000000  0.5590720000000  0.4924930000000 1.0
C      1  0.5305940000000  0.5586860000000  0.5073200000000 1.0
C      1  0.4696850000000  0.4410620000000  0.5075930000000 1.0
C      1  0.5589360000000  0.4932390000000  0.4698580000000 1.0
C      1  0.4413820000000  0.4924580000000  0.5298160000000 1.0
C      1  0.5592590000000  0.5073140000000  0.5304420000000 1.0
C      1  0.4828420000000  0.4705860000000  0.4963100000000 1.0
C      1  0.4708110000000  0.4894260000000  0.4846130000000 1.0
C      1  0.4927080000000  0.4847780000000  0.4685180000000 1.0
C      1  0.5141800000000  0.5293730000000  0.4900130000000 1.0
C      1  0.4812780000000  0.5262580000000  0.5060310000000 1.0
C      1  0.5174900000000  0.4691350000000  0.5071910000000 1.0
C      1  0.5332880000000  0.5056890000000  0.4833150000000 1.0
C      1  0.4735650000000  0.5051950000000  0.5171320000000 1.0
C      1  0.5279840000000  0.4939420000000  0.5174070000000 1.0
C      1  0.5037150000000  0.5164270000000  0.4692280000000 1.0
C      1  0.4936500000000  0.5173310000000  0.5263010000000 1.0
C      1  0.5070230000000  0.4819990000000  0.5263900000000 1.0
C      1  0.4862330000000  0.4688190000000  0.5092280000000 1.0
C      1  0.4682530000000  0.4927030000000  0.5152600000000 1.0
C      1  0.4946870000000  0.4851820000000  0.5314340000000 1.0
C      1  0.5101610000000  0.5329750000000  0.5017960000000 1.0
C      1  0.4826630000000  0.5310400000000  0.4928850000000 1.0
C      1  0.5172500000000  0.4738420000000  0.4940060000000 1.0
C      1  0.5298090000000  0.5075350000000  0.5149830000000 1.0
C      1  0.4707690000000  0.5029880000000  0.4824380000000 1.0
C      1  0.5261440000000  0.4940620000000  0.4824060000000 1.0
C      1  0.5062140000000  0.5141990000000  0.5310170000000 1.0
C      1  0.4888410000000  0.5165920000000  0.4716180000000 1.0
C      1  0.5051170000000  0.4831100000000  0.4742080000000 1.0
END
