TITL C-102688-8074-163 0.00129189500618564 1000000 -1813.34118066958 0 0 240 (Oh) n - 1
REM
REM in /home/chem/mssmkc/work/GAP20/Larger-Clusters/Only-C240-new-series
REM
REM
REM
REM
REM
REM ./C.cell (0485df7495ed2a90f93db84a705cd676)
REM
REM compiler GCC version 8.3.0
REM options -cpp -mtune=generic -march=x86-64 -g -O0
REM seed -183242443 -1388474480 -1631166070 141906056 -631776760 174848375 2004158995 1982570299 -2133940574 -301165238 -2113124848 -1437618286 1427399839 251370189 2121771360 1798261839 -491219556 900831679 1842837584 1122053332 1477179765 1602837611 600864733 1393287599 560027161 666837332 802448219 695632564 -2058612426 -674140884 2075320292 1521542447 2073913151
REM
CELL 1.54180  100.00000  100.00000  100.00000   90.00000   90.00000   90.00000
LATT -1
SFAC C  
C      1  0.4836540000000  0.5358690000000  0.4433330000000 1.0
C      1  0.4433310000000  0.4836630000000  0.5358700000000 1.0
C      1  0.5358530000000  0.4433250000000  0.4836490000000 1.0
C      1  0.5163640000000  0.5358680000000  0.5566620000000 1.0
C      1  0.4836370000000  0.4641400000000  0.5566680000000 1.0
C      1  0.5163440000000  0.4641240000000  0.4433370000000 1.0
C      1  0.5566600000000  0.4836290000000  0.4641320000000 1.0
C      1  0.4433390000000  0.5163660000000  0.4641320000000 1.0
C      1  0.5566700000000  0.5163420000000  0.5358660000000 1.0
C      1  0.4641180000000  0.4433450000000  0.5163580000000 1.0
C      1  0.5358830000000  0.5566570000000  0.5163500000000 1.0
C      1  0.4641460000000  0.5566730000000  0.4836420000000 1.0
C      1  0.4433440000000  0.5358820000000  0.4836440000000 1.0
C      1  0.5358630000000  0.4836330000000  0.4433360000000 1.0
C      1  0.4836320000000  0.4433420000000  0.5358720000000 1.0
C      1  0.5566740000000  0.5358550000000  0.5163510000000 1.0
C      1  0.5566550000000  0.4641160000000  0.4836470000000 1.0
C      1  0.4433260000000  0.4641480000000  0.5163570000000 1.0
C      1  0.4641280000000  0.4836590000000  0.5566660000000 1.0
C      1  0.4641350000000  0.5163600000000  0.4433340000000 1.0
C      1  0.5358730000000  0.5163490000000  0.5566630000000 1.0
C      1  0.5163390000000  0.4433280000000  0.4641350000000 1.0
C      1  0.5163690000000  0.5566630000000  0.5358640000000 1.0
C      1  0.4836600000000  0.5566670000000  0.4641280000000 1.0
C      1  0.4999800000000  0.4219660000000  0.5102050000000 1.0
C      1  0.5101990000000  0.4999920000000  0.4219650000000 1.0
C      1  0.4219680000000  0.5102200000000  0.5000000000000 1.0
C      1  0.4999800000000  0.4219640000000  0.4898060000000 1.0
C      1  0.5000200000000  0.5780340000000  0.4897950000000 1.0
C      1  0.5000200000000  0.5780360000000  0.5101940000000 1.0
C      1  0.4898010000000  0.5000080000000  0.5780350000000 1.0
C      1  0.5102010000000  0.5000030000000  0.5780350000000 1.0
C      1  0.4897990000000  0.4999970000000  0.4219650000000 1.0
C      1  0.5780380000000  0.5101790000000  0.4999980000000 1.0
C      1  0.4219620000000  0.4898210000000  0.5000020000000 1.0
C      1  0.5780320000000  0.4897800000000  0.5000000000000 1.0
C      1  0.5101790000000  0.4219620000000  0.5000050000000 1.0
C      1  0.4219650000000  0.5000210000000  0.5102010000000 1.0
C      1  0.5000020000000  0.5101940000000  0.4219640000000 1.0
C      1  0.4897800000000  0.4219680000000  0.5000050000000 1.0
C      1  0.4898210000000  0.5780380000000  0.4999950000000 1.0
C      1  0.5102200000000  0.5780320000000  0.4999950000000 1.0
C      1  0.5780350000000  0.4999790000000  0.4897990000000 1.0
C      1  0.5780350000000  0.4999810000000  0.5101990000000 1.0
C      1  0.4219650000000  0.5000190000000  0.4898010000000 1.0
C      1  0.5000040000000  0.5102050000000  0.5780340000000 1.0
C      1  0.4999960000000  0.4897950000000  0.4219660000000 1.0
C      1  0.4999980000000  0.4898060000000  0.5780360000000 1.0
C      1  0.4999960000000  0.4792790000000  0.5690330000000 1.0
C      1  0.5690320000000  0.4999810000000  0.4792740000000 1.0
C      1  0.4792930000000  0.5690370000000  0.4999960000000 1.0
C      1  0.4999940000000  0.4792700000000  0.4309690000000 1.0
C      1  0.5000040000000  0.5207210000000  0.4309670000000 1.0
C      1  0.5000060000000  0.5207300000000  0.5690310000000 1.0
C      1  0.4309680000000  0.5000190000000  0.5207260000000 1.0
C      1  0.5690320000000  0.4999840000000  0.5207240000000 1.0
C      1  0.4309680000000  0.5000160000000  0.4792760000000 1.0
C      1  0.5207430000000  0.5690270000000  0.4999950000000 1.0
C      1  0.4792570000000  0.4309730000000  0.5000050000000 1.0
C      1  0.5207070000000  0.4309630000000  0.5000040000000 1.0
C      1  0.5690270000000  0.4792570000000  0.5000000000000 1.0
C      1  0.4792760000000  0.5000100000000  0.5690320000000 1.0
C      1  0.5000170000000  0.5690310000000  0.4792700000000 1.0
C      1  0.4309630000000  0.4792930000000  0.5000020000000 1.0
C      1  0.4309730000000  0.5207430000000  0.5000000000000 1.0
C      1  0.5690370000000  0.5207070000000  0.4999980000000 1.0
C      1  0.5207240000000  0.4999900000000  0.4309680000000 1.0
C      1  0.5207260000000  0.4999990000000  0.5690320000000 1.0
C      1  0.4792740000000  0.5000010000000  0.4309680000000 1.0
C      1  0.5000180000000  0.5690330000000  0.5207210000000 1.0
C      1  0.4999820000000  0.4309670000000  0.4792790000000 1.0
C      1  0.4999830000000  0.4309690000000  0.5207300000000 1.0
C      1  0.5072470000000  0.4435100000000  0.4536340000000 1.0
C      1  0.4536310000000  0.5072700000000  0.4435150000000 1.0
C      1  0.4435030000000  0.4536450000000  0.5072660000000 1.0
C      1  0.4927240000000  0.4435200000000  0.5463740000000 1.0
C      1  0.5072770000000  0.5564860000000  0.5463660000000 1.0
C      1  0.4927520000000  0.5564840000000  0.4536260000000 1.0
C      1  0.5463720000000  0.5072540000000  0.5564840000000 1.0
C      1  0.4536290000000  0.4927540000000  0.5564860000000 1.0
C      1  0.5463670000000  0.4927220000000  0.4435150000000 1.0
C      1  0.5564730000000  0.4536150000000  0.4927400000000 1.0
C      1  0.4435270000000  0.5463840000000  0.4927360000000 1.0
C      1  0.5564970000000  0.5463560000000  0.5072580000000 1.0
C      1  0.4536160000000  0.4435280000000  0.5072660000000 1.0
C      1  0.4435170000000  0.5072740000000  0.4536300000000 1.0
C      1  0.5072490000000  0.4536250000000  0.4435180000000 1.0
C      1  0.5463550000000  0.4435030000000  0.4927410000000 1.0
C      1  0.5463840000000  0.5564730000000  0.5072580000000 1.0
C      1  0.4536450000000  0.5564960000000  0.4927350000000 1.0
C      1  0.5564870000000  0.5072510000000  0.5463690000000 1.0
C      1  0.5564820000000  0.4927200000000  0.4536300000000 1.0
C      1  0.4435140000000  0.4927550000000  0.5463710000000 1.0
C      1  0.4927270000000  0.4536360000000  0.5564880000000 1.0
C      1  0.4927490000000  0.5463680000000  0.4435120000000 1.0
C      1  0.5072750000000  0.5463720000000  0.5564820000000 1.0
C      1  0.4763130000000  0.5134790000000  0.5636790000000 1.0
C      1  0.5636740000000  0.4762930000000  0.5134700000000 1.0
C      1  0.5134850000000  0.5636740000000  0.4763040000000 1.0
C      1  0.5236940000000  0.5134580000000  0.4363190000000 1.0
C      1  0.4763040000000  0.4865330000000  0.4363220000000 1.0
C      1  0.5236890000000  0.4865290000000  0.5636800000000 1.0
C      1  0.4363140000000  0.4763240000000  0.4865340000000 1.0
C      1  0.5636850000000  0.5236740000000  0.4865290000000 1.0
C      1  0.4363270000000  0.5237090000000  0.5134680000000 1.0
C      1  0.4865480000000  0.5636850000000  0.5236870000000 1.0
C      1  0.5134530000000  0.4363190000000  0.5236950000000 1.0
C      1  0.4865150000000  0.4363220000000  0.4763130000000 1.0
C      1  0.5636830000000  0.5134510000000  0.4763070000000 1.0
C      1  0.5134640000000  0.4763090000000  0.5636810000000 1.0
C      1  0.4763250000000  0.5636860000000  0.5134650000000 1.0
C      1  0.4363240000000  0.5134870000000  0.5236910000000 1.0
C      1  0.4363170000000  0.4865460000000  0.4763100000000 1.0
C      1  0.5636760000000  0.4865160000000  0.5236910000000 1.0
C      1  0.4865240000000  0.4763080000000  0.4363220000000 1.0
C      1  0.4865380000000  0.5236990000000  0.5636780000000 1.0
C      1  0.5134740000000  0.5236840000000  0.4363190000000 1.0
C      1  0.5237080000000  0.5636720000000  0.4865270000000 1.0
C      1  0.5236750000000  0.4363150000000  0.5134730000000 1.0
C      1  0.4762920000000  0.4363260000000  0.4865360000000 1.0
C      1  0.4724640000000  0.4523060000000  0.5374840000000 1.0
C      1  0.5374730000000  0.4724630000000  0.4522980000000 1.0
C      1  0.4523060000000  0.5374910000000  0.4724740000000 1.0
C      1  0.5275120000000  0.4522870000000  0.4625220000000 1.0
C      1  0.4724870000000  0.5477080000000  0.4625160000000 1.0
C      1  0.5275370000000  0.5476990000000  0.5374770000000 1.0
C      1  0.4625130000000  0.4724880000000  0.5477060000000 1.0
C      1  0.5374880000000  0.5275180000000  0.5477010000000 1.0
C      1  0.4625260000000  0.5275310000000  0.4522950000000 1.0
C      1  0.5477130000000  0.5374700000000  0.5275210000000 1.0
C      1  0.4522880000000  0.4625330000000  0.5275280000000 1.0
C      1  0.5476930000000  0.4625050000000  0.4724770000000 1.0
C      1  0.5374680000000  0.4522850000000  0.4724780000000 1.0
C      1  0.4522900000000  0.4724900000000  0.5374830000000 1.0
C      1  0.4724840000000  0.5374850000000  0.4522950000000 1.0
C      1  0.4625070000000  0.4523080000000  0.5275280000000 1.0
C      1  0.4625310000000  0.5477110000000  0.4724730000000 1.0
C      1  0.5374930000000  0.5476950000000  0.5275210000000 1.0
C      1  0.5476960000000  0.4724610000000  0.4625200000000 1.0
C      1  0.5477110000000  0.5275150000000  0.5374780000000 1.0
C      1  0.4523030000000  0.5275340000000  0.4625180000000 1.0
C      1  0.5275350000000  0.5374770000000  0.5477000000000 1.0
C      1  0.5275140000000  0.4625090000000  0.4522990000000 1.0
C      1  0.4724660000000  0.4625290000000  0.5477060000000 1.0
C      1  0.5564730000000  0.4536160000000  0.5072640000000 1.0
C      1  0.5072760000000  0.5564800000000  0.4536260000000 1.0
C      1  0.4536330000000  0.5072780000000  0.5564850000000 1.0
C      1  0.4435030000000  0.4536440000000  0.4927420000000 1.0
C      1  0.5564970000000  0.5463550000000  0.4927340000000 1.0
C      1  0.4435270000000  0.5463850000000  0.5072600000000 1.0
C      1  0.4927530000000  0.5564900000000  0.5463660000000 1.0
C      1  0.5072480000000  0.4435160000000  0.5463740000000 1.0
C      1  0.4927230000000  0.4435140000000  0.4536340000000 1.0
C      1  0.5463710000000  0.5072460000000  0.4435140000000 1.0
C      1  0.4536280000000  0.4927460000000  0.4435160000000 1.0
C      1  0.5463690000000  0.4927300000000  0.5564850000000 1.0
C      1  0.5072510000000  0.4536320000000  0.5564880000000 1.0
C      1  0.4536450000000  0.5564970000000  0.5072590000000 1.0
C      1  0.5564860000000  0.5072450000000  0.4536290000000 1.0
C      1  0.4927250000000  0.4536280000000  0.4435180000000 1.0
C      1  0.4927510000000  0.5463750000000  0.5564820000000 1.0
C      1  0.5072730000000  0.5463640000000  0.4435120000000 1.0
C      1  0.5463840000000  0.5564720000000  0.4927340000000 1.0
C      1  0.5463550000000  0.4435040000000  0.5072650000000 1.0
C      1  0.4536160000000  0.4435270000000  0.4927420000000 1.0
C      1  0.4435180000000  0.5072800000000  0.5463700000000 1.0
C      1  0.4435130000000  0.4927490000000  0.4536310000000 1.0
C      1  0.5564830000000  0.4927260000000  0.5463700000000 1.0
C      1  0.5134620000000  0.4763010000000  0.4363220000000 1.0
C      1  0.4363240000000  0.5134840000000  0.4763090000000 1.0
C      1  0.4762920000000  0.4363280000000  0.5134730000000 1.0
C      1  0.4865260000000  0.4763160000000  0.5636810000000 1.0
C      1  0.5134760000000  0.5236920000000  0.5636780000000 1.0
C      1  0.4865360000000  0.5236910000000  0.4363190000000 1.0
C      1  0.5636830000000  0.5134540000000  0.5236900000000 1.0
C      1  0.4363170000000  0.4865490000000  0.5236930000000 1.0
C      1  0.5636760000000  0.4865130000000  0.4763090000000 1.0
C      1  0.5236750000000  0.4363140000000  0.4865350000000 1.0
C      1  0.4763250000000  0.5636850000000  0.4865270000000 1.0
C      1  0.5237080000000  0.5636740000000  0.5134640000000 1.0
C      1  0.4363150000000  0.4763260000000  0.5134710000000 1.0
C      1  0.4763110000000  0.5134710000000  0.4363200000000 1.0
C      1  0.5134520000000  0.4363150000000  0.4763130000000 1.0
C      1  0.5636730000000  0.4762910000000  0.4865320000000 1.0
C      1  0.5636860000000  0.5236760000000  0.5134660000000 1.0
C      1  0.4363260000000  0.5237070000000  0.4865300000000 1.0
C      1  0.5236960000000  0.5134670000000  0.5636780000000 1.0
C      1  0.5236870000000  0.4865210000000  0.4363210000000 1.0
C      1  0.4763060000000  0.4865420000000  0.5636810000000 1.0
C      1  0.4865150000000  0.4363260000000  0.5236960000000 1.0
C      1  0.4865470000000  0.5636810000000  0.4763050000000 1.0
C      1  0.5134850000000  0.5636780000000  0.5236870000000 1.0
C      1  0.5566690000000  0.5163370000000  0.4641300000000 1.0
C      1  0.4641470000000  0.5566750000000  0.5163510000000 1.0
C      1  0.5163460000000  0.4641310000000  0.5566670000000 1.0
C      1  0.4433400000000  0.5163710000000  0.5358680000000 1.0
C      1  0.5566610000000  0.4836340000000  0.5358680000000 1.0
C      1  0.4433300000000  0.4836580000000  0.4641340000000 1.0
C      1  0.5358820000000  0.5566550000000  0.4836420000000 1.0
C      1  0.4641170000000  0.4433430000000  0.4836500000000 1.0
C      1  0.5358540000000  0.4433270000000  0.5163580000000 1.0
C      1  0.4836360000000  0.4641320000000  0.4433380000000 1.0
C      1  0.5163630000000  0.5358600000000  0.4433320000000 1.0
C      1  0.4836560000000  0.5358760000000  0.5566630000000 1.0
C      1  0.4641370000000  0.5163670000000  0.5566640000000 1.0
C      1  0.5163680000000  0.5566580000000  0.4641280000000 1.0
C      1  0.5566560000000  0.4641180000000  0.5163560000000 1.0
C      1  0.5358720000000  0.5163410000000  0.4433340000000 1.0
C      1  0.5358650000000  0.4836400000000  0.5566660000000 1.0
C      1  0.4641270000000  0.4836510000000  0.4433370000000 1.0
C      1  0.4836610000000  0.5566720000000  0.5358650000000 1.0
C      1  0.4836310000000  0.4433370000000  0.4641360000000 1.0
C      1  0.5163400000000  0.4433330000000  0.5358720000000 1.0
C      1  0.4433260000000  0.4641450000000  0.4836490000000 1.0
C      1  0.4433450000000  0.5358840000000  0.5163530000000 1.0
C      1  0.5566740000000  0.5358520000000  0.4836430000000 1.0
C      1  0.4523040000000  0.5275390000000  0.5374800000000 1.0
C      1  0.5374690000000  0.4522890000000  0.5275270000000 1.0
C      1  0.5275340000000  0.5374710000000  0.4522940000000 1.0
C      1  0.5477100000000  0.5275100000000  0.4625170000000 1.0
C      1  0.4522890000000  0.4724850000000  0.4625220000000 1.0
C      1  0.5476970000000  0.4724660000000  0.5374820000000 1.0
C      1  0.4625070000000  0.4523050000000  0.4724790000000 1.0
C      1  0.5374930000000  0.5476920000000  0.4724720000000 1.0
C      1  0.4625320000000  0.5477150000000  0.5275220000000 1.0
C      1  0.4724860000000  0.5374910000000  0.5477010000000 1.0
C      1  0.5275160000000  0.4625150000000  0.5477050000000 1.0
C      1  0.4724650000000  0.4625230000000  0.4523000000000 1.0
C      1  0.5374870000000  0.5275120000000  0.4522940000000 1.0
C      1  0.5275130000000  0.4522920000000  0.5374840000000 1.0
C      1  0.4523070000000  0.5374950000000  0.5275230000000 1.0
C      1  0.4625270000000  0.5275370000000  0.5477020000000 1.0
C      1  0.4625120000000  0.4724820000000  0.4522990000000 1.0
C      1  0.5374740000000  0.4724690000000  0.5477050000000 1.0
C      1  0.4724630000000  0.4523010000000  0.4625230000000 1.0
C      1  0.4724880000000  0.5477130000000  0.5374780000000 1.0
C      1  0.5275360000000  0.5476940000000  0.4625160000000 1.0
C      1  0.5477120000000  0.5374670000000  0.4724720000000 1.0
C      1  0.5476940000000  0.4625090000000  0.5275260000000 1.0
C      1  0.4522870000000  0.4625300000000  0.4724790000000 1.0
END
