TITL C-102688-8074-37 -0.0298263368286169 1000000 -1704.71820953228 0 0 240 (Th) n - 1
REM
REM in /home/chem/mssmkc/work/GAP20/Larger-Clusters/Only-C240-new-series
REM
REM
REM
REM
REM
REM ./C.cell (0485df7495ed2a90f93db84a705cd676)
REM
REM compiler GCC version 8.3.0
REM options -cpp -mtune=generic -march=x86-64 -g -O0
REM seed -1862035564 617769010 -1603790359 971303398 -591482602 686258886 -803019155 -2062949566 -660575973 1207610255 1367090803 59086219 -311178715 1015829896 -517584932 -1003369945 -349110239 1829943642 1517393806 1150904927 -1952040533 599269483 -448872304 -1484933000 1501021542 -1505070641 282099274 197999939 2112700921 383008371 -571092651 -121052578 880651755
REM
CELL 1.54180  100.00000  100.00000  100.00000   90.00000   90.00000   90.00000
LATT -1
SFAC C  
C      1  0.4730300000000  0.5324880000000  0.5212750000000 1.0
C      1  0.5212770000000  0.4730230000000  0.5324810000000 1.0
C      1  0.5324790000000  0.5212660000000  0.4730110000000 1.0
C      1  0.5269830000000  0.4675130000000  0.5212610000000 1.0
C      1  0.5269720000000  0.5324850000000  0.4787220000000 1.0
C      1  0.4730150000000  0.4675140000000  0.4787420000000 1.0
C      1  0.4787430000000  0.5269800000000  0.5324920000000 1.0
C      1  0.4787210000000  0.4730220000000  0.4675210000000 1.0
C      1  0.5212590000000  0.5269750000000  0.4675060000000 1.0
C      1  0.4675040000000  0.4787320000000  0.4730330000000 1.0
C      1  0.4675230000000  0.5212700000000  0.5269870000000 1.0
C      1  0.5324940000000  0.4787320000000  0.5269680000000 1.0
C      1  0.4730170000000  0.5324870000000  0.4787390000000 1.0
C      1  0.5212570000000  0.4730200000000  0.4675080000000 1.0
C      1  0.5324960000000  0.5212680000000  0.5269670000000 1.0
C      1  0.5269700000000  0.4675120000000  0.4787250000000 1.0
C      1  0.5269850000000  0.5324860000000  0.5212580000000 1.0
C      1  0.4730280000000  0.4675150000000  0.5212780000000 1.0
C      1  0.4787230000000  0.5269770000000  0.4675190000000 1.0
C      1  0.4787410000000  0.4730250000000  0.5324940000000 1.0
C      1  0.5212790000000  0.5269780000000  0.5324790000000 1.0
C      1  0.4675210000000  0.4787340000000  0.5269890000000 1.0
C      1  0.4675060000000  0.5212680000000  0.4730320000000 1.0
C      1  0.5324770000000  0.4787300000000  0.4730130000000 1.0
C      1  0.5627290000000  0.5163760000000  0.4727090000000 1.0
C      1  0.4727370000000  0.5627390000000  0.5163860000000 1.0
C      1  0.5163990000000  0.4727310000000  0.5627330000000 1.0
C      1  0.4372530000000  0.4836210000000  0.4727490000000 1.0
C      1  0.4372720000000  0.5163830000000  0.5272900000000 1.0
C      1  0.5627450000000  0.4836190000000  0.5272520000000 1.0
C      1  0.5272740000000  0.4372620000000  0.5163740000000 1.0
C      1  0.5272680000000  0.5627360000000  0.4836090000000 1.0
C      1  0.4727220000000  0.4372630000000  0.4836310000000 1.0
C      1  0.4836410000000  0.5272740000000  0.5627410000000 1.0
C      1  0.4835990000000  0.4727270000000  0.4372690000000 1.0
C      1  0.5163610000000  0.5272680000000  0.4372560000000 1.0
C      1  0.5627470000000  0.5163790000000  0.5272510000000 1.0
C      1  0.4727260000000  0.5627380000000  0.4836260000000 1.0
C      1  0.5163590000000  0.4727260000000  0.4372590000000 1.0
C      1  0.4372710000000  0.4836240000000  0.5272910000000 1.0
C      1  0.4372550000000  0.5163810000000  0.4727480000000 1.0
C      1  0.5627280000000  0.4836170000000  0.4727100000000 1.0
C      1  0.5272630000000  0.4372610000000  0.4836140000000 1.0
C      1  0.5272780000000  0.5627370000000  0.5163690000000 1.0
C      1  0.4727320000000  0.4372640000000  0.5163910000000 1.0
C      1  0.4836010000000  0.5272690000000  0.4372670000000 1.0
C      1  0.4836390000000  0.4727320000000  0.5627440000000 1.0
C      1  0.5164010000000  0.5272730000000  0.5627310000000 1.0
C      1  0.4451010000000  0.4636140000000  0.4847110000000 1.0
C      1  0.4846790000000  0.4451060000000  0.4636190000000 1.0
C      1  0.4635940000000  0.4846910000000  0.4451190000000 1.0
C      1  0.5548900000000  0.5363850000000  0.4846730000000 1.0
C      1  0.5548960000000  0.4636110000000  0.5152920000000 1.0
C      1  0.4451130000000  0.5363910000000  0.5153240000000 1.0
C      1  0.5152990000000  0.5548910000000  0.4636050000000 1.0
C      1  0.5153170000000  0.4451080000000  0.5363850000000 1.0
C      1  0.4847060000000  0.5548950000000  0.5363900000000 1.0
C      1  0.5363710000000  0.5153040000000  0.4450950000000 1.0
C      1  0.5364040000000  0.4846930000000  0.5548820000000 1.0
C      1  0.4636300000000  0.5153110000000  0.5549040000000 1.0
C      1  0.4451100000000  0.4636150000000  0.5153270000000 1.0
C      1  0.4847010000000  0.4451090000000  0.5363950000000 1.0
C      1  0.4636290000000  0.4846960000000  0.5549050000000 1.0
C      1  0.5548990000000  0.5363860000000  0.5152890000000 1.0
C      1  0.5548870000000  0.4636090000000  0.4846760000000 1.0
C      1  0.4451040000000  0.5363890000000  0.4847080000000 1.0
C      1  0.5153210000000  0.5548940000000  0.5363810000000 1.0
C      1  0.5152940000000  0.4451050000000  0.4636100000000 1.0
C      1  0.4846830000000  0.5548920000000  0.4636150000000 1.0
C      1  0.5364060000000  0.5153090000000  0.5548810000000 1.0
C      1  0.5363700000000  0.4846890000000  0.4450960000000 1.0
C      1  0.4635960000000  0.5153070000000  0.4451180000000 1.0
C      1  0.4535020000000  0.4854020000000  0.5449220000000 1.0
C      1  0.5449010000000  0.4534860000000  0.4853860000000 1.0
C      1  0.4853860000000  0.5449060000000  0.4534920000000 1.0
C      1  0.5465260000000  0.5146020000000  0.5448920000000 1.0
C      1  0.5464970000000  0.4853950000000  0.4550790000000 1.0
C      1  0.4534750000000  0.5146020000000  0.4551070000000 1.0
C      1  0.4550900000000  0.5465120000000  0.4854110000000 1.0
C      1  0.4550960000000  0.4534910000000  0.5146180000000 1.0
C      1  0.5449140000000  0.5465100000000  0.5145860000000 1.0
C      1  0.5145850000000  0.4550900000000  0.4534860000000 1.0
C      1  0.5146180000000  0.5449090000000  0.5465050000000 1.0
C      1  0.4854110000000  0.4550950000000  0.5465180000000 1.0
C      1  0.4534740000000  0.4853980000000  0.4551080000000 1.0
C      1  0.5449100000000  0.4534880000000  0.5145890000000 1.0
C      1  0.4854150000000  0.5449100000000  0.5465140000000 1.0
C      1  0.5464980000000  0.5145980000000  0.4550780000000 1.0
C      1  0.5465250000000  0.4853980000000  0.5448930000000 1.0
C      1  0.4535030000000  0.5146050000000  0.5449210000000 1.0
C      1  0.4550990000000  0.5465140000000  0.5146140000000 1.0
C      1  0.4550860000000  0.4534900000000  0.4854140000000 1.0
C      1  0.5449040000000  0.5465090000000  0.4853820000000 1.0
C      1  0.5146140000000  0.4550940000000  0.5465080000000 1.0
C      1  0.5145890000000  0.5449050000000  0.4534820000000 1.0
C      1  0.4853820000000  0.4550910000000  0.4534950000000 1.0
C      1  0.5273420000000  0.4448730000000  0.5282160000000 1.0
C      1  0.5282060000000  0.5273320000000  0.4448630000000 1.0
C      1  0.4448830000000  0.5282250000000  0.5273520000000 1.0
C      1  0.4726760000000  0.5551290000000  0.5282290000000 1.0
C      1  0.4726540000000  0.4448730000000  0.4717890000000 1.0
C      1  0.5273290000000  0.5551250000000  0.4717670000000 1.0
C      1  0.4717590000000  0.4726640000000  0.4448830000000 1.0
C      1  0.4717960000000  0.5273390000000  0.5551350000000 1.0
C      1  0.5282380000000  0.4726660000000  0.5551190000000 1.0
C      1  0.5551340000000  0.4717770000000  0.5273190000000 1.0
C      1  0.5551200000000  0.5282190000000  0.4726460000000 1.0
C      1  0.4448630000000  0.4717790000000  0.4726830000000 1.0
C      1  0.5273240000000  0.4448710000000  0.4717710000000 1.0
C      1  0.5282410000000  0.5273360000000  0.5551170000000 1.0
C      1  0.4448660000000  0.5282230000000  0.4726810000000 1.0
C      1  0.4726580000000  0.5551270000000  0.4717840000000 1.0
C      1  0.4726710000000  0.4448750000000  0.5282330000000 1.0
C      1  0.5273460000000  0.5551270000000  0.5282110000000 1.0
C      1  0.4717940000000  0.4726680000000  0.5551370000000 1.0
C      1  0.4717620000000  0.5273340000000  0.4448810000000 1.0
C      1  0.5282040000000  0.4726610000000  0.4448650000000 1.0
C      1  0.5551170000000  0.4717750000000  0.4726480000000 1.0
C      1  0.5551370000000  0.5282210000000  0.5273170000000 1.0
C      1  0.4448800000000  0.4717810000000  0.5273540000000 1.0
C      1  0.4555130000000  0.4751300000000  0.5354090000000 1.0
C      1  0.5353840000000  0.4555010000000  0.4751180000000 1.0
C      1  0.4751150000000  0.5353930000000  0.4555090000000 1.0
C      1  0.5445090000000  0.5248730000000  0.5353790000000 1.0
C      1  0.5444850000000  0.4751240000000  0.4645930000000 1.0
C      1  0.4554930000000  0.5248730000000  0.4646190000000 1.0
C      1  0.4646000000000  0.5444970000000  0.4751360000000 1.0
C      1  0.4646120000000  0.4555050000000  0.5248860000000 1.0
C      1  0.5354030000000  0.5444970000000  0.5248600000000 1.0
C      1  0.5248580000000  0.4646030000000  0.4554970000000 1.0
C      1  0.5248880000000  0.5353950000000  0.5444880000000 1.0
C      1  0.4751400000000  0.4646090000000  0.5445060000000 1.0
C      1  0.4554910000000  0.4751270000000  0.4646210000000 1.0
C      1  0.5354000000000  0.4555030000000  0.5248640000000 1.0
C      1  0.4751420000000  0.5353970000000  0.5445030000000 1.0
C      1  0.5444870000000  0.5248700000000  0.4645910000000 1.0
C      1  0.5445070000000  0.4751270000000  0.5353810000000 1.0
C      1  0.4555150000000  0.5248760000000  0.5354070000000 1.0
C      1  0.4646160000000  0.5444990000000  0.5248820000000 1.0
C      1  0.4645970000000  0.4555030000000  0.4751400000000 1.0
C      1  0.5353880000000  0.5444950000000  0.4751140000000 1.0
C      1  0.5248850000000  0.4646070000000  0.5444910000000 1.0
C      1  0.5248600000000  0.5353910000000  0.4554940000000 1.0
C      1  0.4751120000000  0.4646050000000  0.4555120000000 1.0
C      1  0.4853810000000  0.4306760000000  0.4830320000000 1.0
C      1  0.4830030000000  0.4853870000000  0.4306820000000 1.0
C      1  0.4306710000000  0.4830270000000  0.4854120000000 1.0
C      1  0.5146080000000  0.5693220000000  0.4830180000000 1.0
C      1  0.5146130000000  0.4306770000000  0.5169730000000 1.0
C      1  0.4853970000000  0.5693250000000  0.5169770000000 1.0
C      1  0.5169540000000  0.5146070000000  0.4306710000000 1.0
C      1  0.5169960000000  0.4853910000000  0.5693190000000 1.0
C      1  0.4830470000000  0.5146140000000  0.5693280000000 1.0
C      1  0.5693200000000  0.5169720000000  0.4853670000000 1.0
C      1  0.5693270000000  0.4830230000000  0.5145900000000 1.0
C      1  0.4306820000000  0.5169780000000  0.5146320000000 1.0
C      1  0.4853920000000  0.4306780000000  0.5169820000000 1.0
C      1  0.4830460000000  0.4853930000000  0.5693290000000 1.0
C      1  0.4306800000000  0.4830280000000  0.5146330000000 1.0
C      1  0.5146190000000  0.5693240000000  0.5169680000000 1.0
C      1  0.5146030000000  0.4306750000000  0.4830230000000 1.0
C      1  0.4853870000000  0.5693230000000  0.4830270000000 1.0
C      1  0.5169970000000  0.5146130000000  0.5693180000000 1.0
C      1  0.5169530000000  0.4853860000000  0.4306720000000 1.0
C      1  0.4830040000000  0.5146090000000  0.4306810000000 1.0
C      1  0.5693290000000  0.5169730000000  0.5145880000000 1.0
C      1  0.5693180000000  0.4830220000000  0.4853680000000 1.0
C      1  0.4306730000000  0.5169770000000  0.4854100000000 1.0
C      1  0.5069710000000  0.5374320000000  0.4427950000000 1.0
C      1  0.4428110000000  0.5069920000000  0.5374520000000 1.0
C      1  0.5374340000000  0.4427980000000  0.5069780000000 1.0
C      1  0.4929930000000  0.4625640000000  0.4428030000000 1.0
C      1  0.4930320000000  0.5374370000000  0.5572020000000 1.0
C      1  0.5070040000000  0.4625680000000  0.5572000000000 1.0
C      1  0.5572130000000  0.4930110000000  0.5374160000000 1.0
C      1  0.5571900000000  0.5069840000000  0.4625480000000 1.0
C      1  0.4427870000000  0.4930130000000  0.4625840000000 1.0
C      1  0.4625700000000  0.5572030000000  0.5069970000000 1.0
C      1  0.4625610000000  0.4428000000000  0.4930260000000 1.0
C      1  0.5374340000000  0.5571990000000  0.4929980000000 1.0
C      1  0.5070070000000  0.5374360000000  0.5571970000000 1.0
C      1  0.4427870000000  0.5069890000000  0.4625840000000 1.0
C      1  0.5374300000000  0.4427970000000  0.4930030000000 1.0
C      1  0.4930290000000  0.4625680000000  0.5572050000000 1.0
C      1  0.4929960000000  0.5374320000000  0.4428000000000 1.0
C      1  0.5069680000000  0.4625630000000  0.4427980000000 1.0
C      1  0.5571890000000  0.4930080000000  0.4625480000000 1.0
C      1  0.5572130000000  0.5069870000000  0.5374160000000 1.0
C      1  0.4428100000000  0.4930160000000  0.5374520000000 1.0
C      1  0.4625660000000  0.5572020000000  0.4930220000000 1.0
C      1  0.4625660000000  0.4428010000000  0.5070020000000 1.0
C      1  0.5374390000000  0.5572000000000  0.5069740000000 1.0
C      1  0.5758630000000  0.4927230000000  0.5072870000000 1.0
C      1  0.5073110000000  0.5758610000000  0.4927200000000 1.0
C      1  0.4927500000000  0.5073140000000  0.5758630000000 1.0
C      1  0.4241410000000  0.5072780000000  0.5073340000000 1.0
C      1  0.4241360000000  0.4927280000000  0.4927140000000 1.0
C      1  0.5758590000000  0.5072710000000  0.4926660000000 1.0
C      1  0.4926850000000  0.4241390000000  0.4927310000000 1.0
C      1  0.4926950000000  0.5758620000000  0.5072740000000 1.0
C      1  0.5073100000000  0.4241390000000  0.5072750000000 1.0
C      1  0.5072980000000  0.4926920000000  0.5758590000000 1.0
C      1  0.5072510000000  0.5073070000000  0.4241360000000 1.0
C      1  0.4927020000000  0.4926870000000  0.4241410000000 1.0
C      1  0.5758590000000  0.4927220000000  0.4926660000000 1.0
C      1  0.5073150000000  0.5758610000000  0.5072690000000 1.0
C      1  0.4927020000000  0.5073080000000  0.4241410000000 1.0
C      1  0.4241370000000  0.5072770000000  0.4927130000000 1.0
C      1  0.4241410000000  0.4927290000000  0.5073340000000 1.0
C      1  0.5758640000000  0.5072720000000  0.5072860000000 1.0
C      1  0.4926890000000  0.4241390000000  0.5072800000000 1.0
C      1  0.4926900000000  0.5758610000000  0.4927250000000 1.0
C      1  0.5073050000000  0.4241380000000  0.4927260000000 1.0
C      1  0.5072500000000  0.4926860000000  0.4241370000000 1.0
C      1  0.5072980000000  0.5073130000000  0.5758590000000 1.0
C      1  0.4927490000000  0.4926930000000  0.5758640000000 1.0
C      1  0.4711790000000  0.4930600000000  0.5641800000000 1.0
C      1  0.5641680000000  0.4711560000000  0.4930370000000 1.0
C      1  0.4930500000000  0.5641700000000  0.4711590000000 1.0
C      1  0.5288610000000  0.5069450000000  0.5641620000000 1.0
C      1  0.5288200000000  0.4930530000000  0.4358200000000 1.0
C      1  0.4711390000000  0.5069420000000  0.4358380000000 1.0
C      1  0.4358280000000  0.5288430000000  0.4930750000000 1.0
C      1  0.4358300000000  0.4711620000000  0.5069650000000 1.0
C      1  0.5641740000000  0.5288390000000  0.5069220000000 1.0
C      1  0.5069320000000  0.4358270000000  0.4711600000000 1.0
C      1  0.5069550000000  0.5641720000000  0.5288360000000 1.0
C      1  0.4930630000000  0.4358300000000  0.5288460000000 1.0
C      1  0.4711390000000  0.4930550000000  0.4358380000000 1.0
C      1  0.5641720000000  0.4711570000000  0.5069250000000 1.0
C      1  0.4930680000000  0.5641730000000  0.5288400000000 1.0
C      1  0.5288210000000  0.5069400000000  0.4358200000000 1.0
C      1  0.5288610000000  0.4930580000000  0.5641620000000 1.0
C      1  0.4711800000000  0.5069470000000  0.5641800000000 1.0
C      1  0.4358320000000  0.5288440000000  0.5069630000000 1.0
C      1  0.4358260000000  0.4711610000000  0.4930780000000 1.0
C      1  0.5641700000000  0.5288380000000  0.4930350000000 1.0
C      1  0.5069500000000  0.4358300000000  0.5288410000000 1.0
C      1  0.5069370000000  0.5641700000000  0.4711540000000 1.0
C      1  0.4930450000000  0.4358280000000  0.4711640000000 1.0
END
