TITL C-102689-8077-73 -78.3790908513576 1000000 -1726.37379880668 0 0 240 (Th) n - 1
REM
REM in /home/chem/mssmkc/work/GAP20/Larger-Clusters/Only-C240-new-series
REM
REM
REM
REM
REM
REM ./C.cell (0485df7495ed2a90f93db84a705cd676)
REM
REM compiler GCC version 8.3.0
REM options -cpp -mtune=generic -march=x86-64 -g -O0
REM seed 132032372 -110161839 -1236225251 98042039 1558170847 -1700487244 -608036341 288119038 612971812 -372361524 -316499237 1709271227 903547432 1257382389 -991303100 932263270 -2014248102 1376777517 1928135110 -1437877883 -1388776784 1227028359 -1602149555 -188986431 1618456564 -988551212 -1697501513 1789650937 392893662 -1442138721 784308954 -1098618616 -1718622147
REM
CELL 1.54180  100.00000  100.00000  100.00000   90.00000   90.00000   90.00000
LATT -1
SFAC C  
C      1  0.4546450000000  0.4865250000000  0.4507770000000 1.0
C      1  0.4507780000000  0.4546510000000  0.4865060000000 1.0
C      1  0.4865130000000  0.4507890000000  0.4546380000000 1.0
C      1  0.5453560000000  0.4865040000000  0.5492160000000 1.0
C      1  0.4546510000000  0.5134720000000  0.5492290000000 1.0
C      1  0.5453480000000  0.5135000000000  0.4507780000000 1.0
C      1  0.5492250000000  0.4546480000000  0.5134710000000 1.0
C      1  0.4507780000000  0.5453460000000  0.5135000000000 1.0
C      1  0.5492190000000  0.5453560000000  0.4865220000000 1.0
C      1  0.5134910000000  0.4507680000000  0.5453380000000 1.0
C      1  0.4865150000000  0.5492100000000  0.5453650000000 1.0
C      1  0.5134810000000  0.5492340000000  0.4546600000000 1.0
C      1  0.4546450000000  0.5134970000000  0.4507840000000 1.0
C      1  0.4507760000000  0.5453530000000  0.4865290000000 1.0
C      1  0.4865090000000  0.5492330000000  0.4546610000000 1.0
C      1  0.5453550000000  0.5134750000000  0.5492230000000 1.0
C      1  0.4546520000000  0.4865000000000  0.5492220000000 1.0
C      1  0.5453490000000  0.4865280000000  0.4507710000000 1.0
C      1  0.5492210000000  0.5453490000000  0.5134940000000 1.0
C      1  0.4507800000000  0.4546440000000  0.5134780000000 1.0
C      1  0.5492230000000  0.4546540000000  0.4864990000000 1.0
C      1  0.5134870000000  0.5492110000000  0.5453630000000 1.0
C      1  0.4865190000000  0.4507670000000  0.5453390000000 1.0
C      1  0.5134850000000  0.4507900000000  0.4546360000000 1.0
C      1  0.4587460000000  0.4735940000000  0.5450740000000 1.0
C      1  0.5450780000000  0.4587510000000  0.4735930000000 1.0
C      1  0.4736020000000  0.5450870000000  0.4587550000000 1.0
C      1  0.5412560000000  0.4736190000000  0.4549130000000 1.0
C      1  0.4587380000000  0.5264030000000  0.4549310000000 1.0
C      1  0.5412600000000  0.5263840000000  0.5450820000000 1.0
C      1  0.4549250000000  0.4587340000000  0.5263860000000 1.0
C      1  0.5450780000000  0.5412530000000  0.5264010000000 1.0
C      1  0.4549190000000  0.5412620000000  0.4736200000000 1.0
C      1  0.5263940000000  0.5450680000000  0.5412680000000 1.0
C      1  0.4736110000000  0.4549120000000  0.5412480000000 1.0
C      1  0.5263920000000  0.4549340000000  0.4587290000000 1.0
C      1  0.4587440000000  0.5263810000000  0.5450870000000 1.0
C      1  0.5450740000000  0.5412660000000  0.4736140000000 1.0
C      1  0.4736050000000  0.4549320000000  0.4587330000000 1.0
C      1  0.5412540000000  0.5264060000000  0.4549260000000 1.0
C      1  0.4587400000000  0.4736170000000  0.4549180000000 1.0
C      1  0.5412620000000  0.4735970000000  0.5450690000000 1.0
C      1  0.4549230000000  0.5412490000000  0.5264070000000 1.0
C      1  0.5450810000000  0.4587380000000  0.5263800000000 1.0
C      1  0.4549220000000  0.4587480000000  0.4735990000000 1.0
C      1  0.5263980000000  0.4549130000000  0.5412450000000 1.0
C      1  0.4736080000000  0.5450660000000  0.5412710000000 1.0
C      1  0.5263890000000  0.5450880000000  0.4587510000000 1.0
C      1  0.4702150000000  0.5572270000000  0.5181940000000 1.0
C      1  0.5181830000000  0.4702020000000  0.5572240000000 1.0
C      1  0.5572300000000  0.5181870000000  0.4702160000000 1.0
C      1  0.5297810000000  0.5572380000000  0.4818340000000 1.0
C      1  0.4702160000000  0.4427710000000  0.4818100000000 1.0
C      1  0.5297890000000  0.4427640000000  0.5181620000000 1.0
C      1  0.4818190000000  0.4702290000000  0.4427610000000 1.0
C      1  0.5181730000000  0.5297990000000  0.4427730000000 1.0
C      1  0.4818250000000  0.5297690000000  0.5572410000000 1.0
C      1  0.4427690000000  0.5181680000000  0.5297930000000 1.0
C      1  0.5572360000000  0.4818170000000  0.5297770000000 1.0
C      1  0.4427650000000  0.4818280000000  0.4702140000000 1.0
C      1  0.4702180000000  0.4427620000000  0.5181660000000 1.0
C      1  0.5181810000000  0.5297710000000  0.5572390000000 1.0
C      1  0.5572320000000  0.4818320000000  0.4702060000000 1.0
C      1  0.5297860000000  0.4427730000000  0.4818060000000 1.0
C      1  0.4702120000000  0.5572360000000  0.4818380000000 1.0
C      1  0.5297830000000  0.5572290000000  0.5181900000000 1.0
C      1  0.4818170000000  0.5297980000000  0.4427760000000 1.0
C      1  0.5181750000000  0.4702310000000  0.4427590000000 1.0
C      1  0.4818270000000  0.4702010000000  0.5572260000000 1.0
C      1  0.4427690000000  0.4818130000000  0.5297840000000 1.0
C      1  0.5572340000000  0.5181720000000  0.5297860000000 1.0
C      1  0.4427640000000  0.5181830000000  0.4702230000000 1.0
C      1  0.5071800000000  0.4609650000000  0.5538320000000 1.0
C      1  0.5538410000000  0.5071860000000  0.4609760000000 1.0
C      1  0.4609770000000  0.5538390000000  0.5071900000000 1.0
C      1  0.4928230000000  0.4609910000000  0.4461480000000 1.0
C      1  0.5071690000000  0.5390350000000  0.4461660000000 1.0
C      1  0.4928280000000  0.5390080000000  0.5538530000000 1.0
C      1  0.4461590000000  0.5071630000000  0.5390280000000 1.0
C      1  0.5538460000000  0.4928180000000  0.5390170000000 1.0
C      1  0.4461540000000  0.4928330000000  0.4609790000000 1.0
C      1  0.5390190000000  0.5538460000000  0.4928360000000 1.0
C      1  0.4609790000000  0.4461580000000  0.4928150000000 1.0
C      1  0.5390250000000  0.4461570000000  0.5071580000000 1.0
C      1  0.5071770000000  0.5390090000000  0.5538530000000 1.0
C      1  0.5538410000000  0.4928370000000  0.4609720000000 1.0
C      1  0.4609800000000  0.4461540000000  0.5071640000000 1.0
C      1  0.4928210000000  0.5390350000000  0.4461670000000 1.0
C      1  0.5071720000000  0.4609920000000  0.4461470000000 1.0
C      1  0.4928310000000  0.4609650000000  0.5538330000000 1.0
C      1  0.4461590000000  0.4928140000000  0.5390240000000 1.0
C      1  0.5538460000000  0.5071670000000  0.5390210000000 1.0
C      1  0.4461540000000  0.5071820000000  0.4609830000000 1.0
C      1  0.5390240000000  0.4461600000000  0.4928100000000 1.0
C      1  0.4609760000000  0.5538430000000  0.4928410000000 1.0
C      1  0.5390200000000  0.5538420000000  0.5071850000000 1.0
C      1  0.5295870000000  0.4666450000000  0.5487360000000 1.0
C      1  0.5487430000000  0.5295930000000  0.4666600000000 1.0
C      1  0.4666560000000  0.5487370000000  0.5295970000000 1.0
C      1  0.4704150000000  0.4666670000000  0.4512480000000 1.0
C      1  0.5295780000000  0.5333570000000  0.4512600000000 1.0
C      1  0.4704190000000  0.5333310000000  0.5487570000000 1.0
C      1  0.4512550000000  0.5295730000000  0.5333550000000 1.0
C      1  0.5487500000000  0.4704110000000  0.5333340000000 1.0
C      1  0.4512520000000  0.4704240000000  0.4666510000000 1.0
C      1  0.5333400000000  0.5487540000000  0.4704270000000 1.0
C      1  0.4666550000000  0.4512600000000  0.4704080000000 1.0
C      1  0.5333480000000  0.4512480000000  0.5295680000000 1.0
C      1  0.5295850000000  0.5333330000000  0.5487530000000 1.0
C      1  0.5487450000000  0.4704270000000  0.4666450000000 1.0
C      1  0.4666590000000  0.4512460000000  0.5295730000000 1.0
C      1  0.4704130000000  0.5333550000000  0.4512640000000 1.0
C      1  0.5295810000000  0.4666690000000  0.4512440000000 1.0
C      1  0.4704220000000  0.4666430000000  0.5487400000000 1.0
C      1  0.4512570000000  0.4704070000000  0.5333400000000 1.0
C      1  0.5487470000000  0.5295760000000  0.5333490000000 1.0
C      1  0.4512510000000  0.5295890000000  0.4666660000000 1.0
C      1  0.5333440000000  0.4512630000000  0.4704030000000 1.0
C      1  0.4666520000000  0.5487520000000  0.4704310000000 1.0
C      1  0.5333440000000  0.5487400000000  0.5295930000000 1.0
C      1  0.4246450000000  0.4931010000000  0.4807120000000 1.0
C      1  0.4807110000000  0.4246480000000  0.4930810000000 1.0
C      1  0.4930940000000  0.4807290000000  0.4246430000000 1.0
C      1  0.5753560000000  0.4930960000000  0.5192840000000 1.0
C      1  0.4246470000000  0.5068950000000  0.5192970000000 1.0
C      1  0.5753520000000  0.5069090000000  0.4807060000000 1.0
C      1  0.5192950000000  0.4246450000000  0.5068820000000 1.0
C      1  0.4807090000000  0.5753500000000  0.5069220000000 1.0
C      1  0.5192860000000  0.5753550000000  0.4931160000000 1.0
C      1  0.5069070000000  0.4806920000000  0.5753480000000 1.0
C      1  0.4931030000000  0.5192700000000  0.5753580000000 1.0
C      1  0.5068960000000  0.5193080000000  0.4246510000000 1.0
C      1  0.4246450000000  0.5069040000000  0.4807160000000 1.0
C      1  0.4807080000000  0.5753540000000  0.4931180000000 1.0
C      1  0.4930930000000  0.5193080000000  0.4246520000000 1.0
C      1  0.5753550000000  0.5069000000000  0.5192870000000 1.0
C      1  0.4246480000000  0.4930910000000  0.5192940000000 1.0
C      1  0.5753530000000  0.4931060000000  0.4807020000000 1.0
C      1  0.5192870000000  0.5753520000000  0.5069190000000 1.0
C      1  0.4807120000000  0.4246440000000  0.5068840000000 1.0
C      1  0.5192940000000  0.4246490000000  0.4930780000000 1.0
C      1  0.5069060000000  0.5192710000000  0.5753580000000 1.0
C      1  0.4931040000000  0.4806910000000  0.5753490000000 1.0
C      1  0.5068970000000  0.4807290000000  0.4246420000000 1.0
C      1  0.4669240000000  0.4176810000000  0.5065540000000 1.0
C      1  0.5065680000000  0.4669430000000  0.4176750000000 1.0
C      1  0.4176810000000  0.5065780000000  0.4669280000000 1.0
C      1  0.5330820000000  0.4176860000000  0.4934050000000 1.0
C      1  0.4669190000000  0.5823170000000  0.4934510000000 1.0
C      1  0.5330750000000  0.5823160000000  0.5065900000000 1.0
C      1  0.4934350000000  0.4669020000000  0.5823090000000 1.0
C      1  0.5065760000000  0.5330570000000  0.5823250000000 1.0
C      1  0.4934210000000  0.5330970000000  0.4176920000000 1.0
C      1  0.5823190000000  0.5065670000000  0.5330750000000 1.0
C      1  0.4176850000000  0.4934170000000  0.5330820000000 1.0
C      1  0.5823150000000  0.4934390000000  0.4669140000000 1.0
C      1  0.4669200000000  0.5823130000000  0.5065950000000 1.0
C      1  0.5065650000000  0.5330980000000  0.4176910000000 1.0
C      1  0.4176810000000  0.4934340000000  0.4669250000000 1.0
C      1  0.5330740000000  0.5823190000000  0.4934460000000 1.0
C      1  0.4669230000000  0.4176840000000  0.4934100000000 1.0
C      1  0.5330830000000  0.4176830000000  0.5065490000000 1.0
C      1  0.4934320000000  0.5330560000000  0.5823250000000 1.0
C      1  0.5065790000000  0.4669020000000  0.5823080000000 1.0
C      1  0.4934240000000  0.4669420000000  0.4176760000000 1.0
C      1  0.5823190000000  0.4934230000000  0.5330710000000 1.0
C      1  0.4176850000000  0.5065620000000  0.5330860000000 1.0
C      1  0.5823140000000  0.5065840000000  0.4669170000000 1.0
C      1  0.4928840000000  0.5596430000000  0.4607370000000 1.0
C      1  0.4607260000000  0.4928730000000  0.5596350000000 1.0
C      1  0.5596350000000  0.4607270000000  0.4928750000000 1.0
C      1  0.5071120000000  0.5596240000000  0.5392930000000 1.0
C      1  0.4928940000000  0.4403580000000  0.5392630000000 1.0
C      1  0.5071110000000  0.4403780000000  0.4607080000000 1.0
C      1  0.5392750000000  0.4929050000000  0.4403620000000 1.0
C      1  0.4607170000000  0.5071250000000  0.4403700000000 1.0
C      1  0.5392820000000  0.5070980000000  0.5596330000000 1.0
C      1  0.4403680000000  0.4607190000000  0.5071050000000 1.0
C      1  0.5596320000000  0.5392780000000  0.5071170000000 1.0
C      1  0.4403650000000  0.5392770000000  0.4929030000000 1.0
C      1  0.4928880000000  0.4403770000000  0.4607090000000 1.0
C      1  0.4607250000000  0.5070950000000  0.5596380000000 1.0
C      1  0.5596310000000  0.5392810000000  0.4928950000000 1.0
C      1  0.5071160000000  0.4403580000000  0.5392620000000 1.0
C      1  0.4928890000000  0.5596230000000  0.5392940000000 1.0
C      1  0.5071060000000  0.5596430000000  0.4607360000000 1.0
C      1  0.5392740000000  0.5071270000000  0.4403650000000 1.0
C      1  0.4607180000000  0.4929020000000  0.4403670000000 1.0
C      1  0.5392830000000  0.4928750000000  0.5596290000000 1.0
C      1  0.4403660000000  0.5392740000000  0.5071250000000 1.0
C      1  0.5596350000000  0.4607230000000  0.5070970000000 1.0
C      1  0.4403670000000  0.4607230000000  0.4928830000000 1.0
C      1  0.5260370000000  0.5074320000000  0.5657340000000 1.0
C      1  0.5657330000000  0.5260320000000  0.5074500000000 1.0
C      1  0.5074470000000  0.5657270000000  0.5260490000000 1.0
C      1  0.4739620000000  0.5074630000000  0.4342700000000 1.0
C      1  0.5260280000000  0.4925700000000  0.4342630000000 1.0
C      1  0.4739720000000  0.4925350000000  0.5657340000000 1.0
C      1  0.4342650000000  0.5260320000000  0.4925630000000 1.0
C      1  0.5657340000000  0.4739730000000  0.4925410000000 1.0
C      1  0.4342680000000  0.4739640000000  0.5074460000000 1.0
C      1  0.4925480000000  0.5657390000000  0.4739840000000 1.0
C      1  0.5074480000000  0.4342740000000  0.4739520000000 1.0
C      1  0.4925560000000  0.4342600000000  0.5260160000000 1.0
C      1  0.5260370000000  0.4925370000000  0.5657300000000 1.0
C      1  0.5657350000000  0.4739690000000  0.5074370000000 1.0
C      1  0.5074520000000  0.4342610000000  0.5260150000000 1.0
C      1  0.4739630000000  0.4925680000000  0.4342660000000 1.0
C      1  0.5260280000000  0.5074650000000  0.4342660000000 1.0
C      1  0.4739710000000  0.5074300000000  0.5657370000000 1.0
C      1  0.4342670000000  0.4739680000000  0.4925500000000 1.0
C      1  0.5657320000000  0.5260360000000  0.4925540000000 1.0
C      1  0.4342660000000  0.5260280000000  0.5074590000000 1.0
C      1  0.4925530000000  0.4342730000000  0.4739530000000 1.0
C      1  0.5074440000000  0.5657400000000  0.4739830000000 1.0
C      1  0.4925520000000  0.5657270000000  0.5260500000000 1.0
C      1  0.5174880000000  0.5184310000000  0.4339150000000 1.0
C      1  0.4339130000000  0.5174870000000  0.5184230000000 1.0
C      1  0.5184190000000  0.4339080000000  0.5174760000000 1.0
C      1  0.4825100000000  0.5183970000000  0.5660940000000 1.0
C      1  0.5174990000000  0.4815700000000  0.5660820000000 1.0
C      1  0.4825020000000  0.4816020000000  0.4339090000000 1.0
C      1  0.5660860000000  0.5175000000000  0.4815850000000 1.0
C      1  0.4339110000000  0.4825090000000  0.4815850000000 1.0
C      1  0.5660900000000  0.4825050000000  0.5184060000000 1.0
C      1  0.4815860000000  0.4339160000000  0.4824920000000 1.0
C      1  0.5184110000000  0.5660920000000  0.4825220000000 1.0
C      1  0.4815850000000  0.5660830000000  0.5175110000000 1.0
C      1  0.5174900000000  0.4816030000000  0.4339070000000 1.0
C      1  0.4339130000000  0.4825000000000  0.5184150000000 1.0
C      1  0.5184130000000  0.5660840000000  0.5175090000000 1.0
C      1  0.4825110000000  0.4815690000000  0.5660840000000 1.0
C      1  0.5174970000000  0.5183980000000  0.5660910000000 1.0
C      1  0.4825010000000  0.5184300000000  0.4339180000000 1.0
C      1  0.5660880000000  0.4825140000000  0.4815760000000 1.0
C      1  0.4339100000000  0.5174960000000  0.4815940000000 1.0
C      1  0.5660890000000  0.5174910000000  0.5184150000000 1.0
C      1  0.4815820000000  0.5660910000000  0.4825240000000 1.0
C      1  0.5184160000000  0.4339170000000  0.4824890000000 1.0
C      1  0.4815880000000  0.4339070000000  0.5174780000000 1.0
END
