TITL C240-892376 -25.9706345001675 1000000 -1713.61868508185 0 0 240 (Ih) n - 1
REM
REM in /home/chem/mssmkc/work/CARBON/AIRSS/Generating-Clusters/Str-Search/GAP20/LAMMPS-RUNS
REM
REM
REM
REM
REM
REM C240.cell (a185fd665867c5df3a49843316071121)
REM
REM
REM
REM
REM
CELL 1.54180  100.00000  100.00000  100.00000   90.00000   90.00000   90.00000
LATT -1
SFAC C  
C      1  0.4167070000000  0.5186460000000  0.4927920000000 1.0
C      1  0.4813420000000  0.4927840000000  0.4167110000000 1.0
C      1  0.4255220000000  0.4582780000000  0.4929640000000 1.0
C      1  0.5444320000000  0.5602910000000  0.5415710000000 1.0
C      1  0.5070370000000  0.5744840000000  0.5417120000000 1.0
C      1  0.4397090000000  0.5415680000000  0.4555670000000 1.0
C      1  0.4929630000000  0.4255160000000  0.4582880000000 1.0
C      1  0.5744850000000  0.4582910000000  0.4929560000000 1.0
C      1  0.5072200000000  0.4167110000000  0.5186560000000 1.0
C      1  0.5300410000000  0.5142520000000  0.4210590000000 1.0
C      1  0.4167080000000  0.5186460000000  0.5072150000000 1.0
C      1  0.5789410000000  0.4699600000000  0.4857440000000 1.0
C      1  0.4927970000000  0.4167100000000  0.5186570000000 1.0
C      1  0.4582900000000  0.4929580000000  0.5744840000000 1.0
C      1  0.5832920000000  0.4813540000000  0.4927850000000 1.0
C      1  0.5072050000000  0.5832920000000  0.5186500000000 1.0
C      1  0.5417190000000  0.5070480000000  0.5744790000000 1.0
C      1  0.4813520000000  0.4927900000000  0.5832920000000 1.0
C      1  0.4929500000000  0.5744800000000  0.4582820000000 1.0
C      1  0.5186480000000  0.5072100000000  0.4167080000000 1.0
C      1  0.5417100000000  0.5070420000000  0.4255160000000 1.0
C      1  0.5186580000000  0.5072160000000  0.5832890000000 1.0
C      1  0.5744780000000  0.5417220000000  0.5070360000000 1.0
C      1  0.4584250000000  0.4555590000000  0.4397190000000 1.0
C      1  0.5832880000000  0.5186610000000  0.4927830000000 1.0
C      1  0.5789420000000  0.4699610000000  0.5142500000000 1.0
C      1  0.4467570000000  0.4627690000000  0.4441760000000 1.0
C      1  0.4210580000000  0.5300390000000  0.4857500000000 1.0
C      1  0.5744780000000  0.5417220000000  0.4929530000000 1.0
C      1  0.4555730000000  0.4397130000000  0.5415800000000 1.0
C      1  0.4929680000000  0.4255190000000  0.5417180000000 1.0
C      1  0.5602860000000  0.4584280000000  0.4555630000000 1.0
C      1  0.5070320000000  0.5744810000000  0.4582820000000 1.0
C      1  0.5558210000000  0.5532470000000  0.4627710000000 1.0
C      1  0.4555620000000  0.5602830000000  0.5415760000000 1.0
C      1  0.5444270000000  0.5602880000000  0.4584200000000 1.0
C      1  0.4813500000000  0.5072130000000  0.5832910000000 1.0
C      1  0.4255150000000  0.5417090000000  0.5070440000000 1.0
C      1  0.5142470000000  0.5789410000000  0.5300430000000 1.0
C      1  0.4627680000000  0.5558230000000  0.4467560000000 1.0
C      1  0.4167110000000  0.4813390000000  0.5072170000000 1.0
C      1  0.4210630000000  0.4699450000000  0.4857530000000 1.0
C      1  0.4699560000000  0.5142530000000  0.5789400000000 1.0
C      1  0.5532500000000  0.4627830000000  0.5558270000000 1.0
C      1  0.5832890000000  0.5186610000000  0.5072060000000 1.0
C      1  0.5142620000000  0.4210640000000  0.5300490000000 1.0
C      1  0.5372260000000  0.4441730000000  0.4467560000000 1.0
C      1  0.4255220000000  0.4582780000000  0.5070470000000 1.0
C      1  0.5070460000000  0.4255170000000  0.4582870000000 1.0
C      1  0.5186590000000  0.4927940000000  0.5832900000000 1.0
C      1  0.5744860000000  0.4582920000000  0.5070390000000 1.0
C      1  0.4857560000000  0.4210610000000  0.5300510000000 1.0
C      1  0.4555570000000  0.5602790000000  0.4584250000000 1.0
C      1  0.4441750000000  0.4467500000000  0.4627820000000 1.0
C      1  0.5444380000000  0.4397170000000  0.4584240000000 1.0
C      1  0.5444430000000  0.4397210000000  0.5415750000000 1.0
C      1  0.5300530000000  0.4857530000000  0.5789380000000 1.0
C      1  0.4210650000000  0.4699470000000  0.5142580000000 1.0
C      1  0.5142580000000  0.4210610000000  0.4699550000000 1.0
C      1  0.5372160000000  0.5558300000000  0.4467520000000 1.0
C      1  0.5415760000000  0.4555660000000  0.4397140000000 1.0
C      1  0.4699470000000  0.5142470000000  0.4210620000000 1.0
C      1  0.5532440000000  0.4627790000000  0.4441700000000 1.0
C      1  0.4627840000000  0.4441700000000  0.5532480000000 1.0
C      1  0.5558310000000  0.4467600000000  0.4627750000000 1.0
C      1  0.5558250000000  0.5532500000000  0.5372180000000 1.0
C      1  0.4441690000000  0.5532400000000  0.5372250000000 1.0
C      1  0.4857380000000  0.5789360000000  0.4699510000000 1.0
C      1  0.4167110000000  0.4813390000000  0.4927940000000 1.0
C      1  0.5415750000000  0.5444410000000  0.5602810000000 1.0
C      1  0.4584320000000  0.4555640000000  0.5602890000000 1.0
C      1  0.4627790000000  0.4441660000000  0.4467610000000 1.0
C      1  0.4584170000000  0.5444290000000  0.4397150000000 1.0
C      1  0.5415680000000  0.5444360000000  0.4397110000000 1.0
C      1  0.5789370000000  0.5300550000000  0.5142470000000 1.0
C      1  0.5300440000000  0.4857470000000  0.4210600000000 1.0
C      1  0.4555680000000  0.4397090000000  0.4584290000000 1.0
C      1  0.5832930000000  0.4813540000000  0.5072080000000 1.0
C      1  0.4927800000000  0.5832890000000  0.4813440000000 1.0
C      1  0.5186500000000  0.4927870000000  0.4167090000000 1.0
C      1  0.4857530000000  0.4210590000000  0.4699570000000 1.0
C      1  0.5372320000000  0.4441770000000  0.5532440000000 1.0
C      1  0.4699590000000  0.4857480000000  0.5789410000000 1.0
C      1  0.4927950000000  0.4167080000000  0.4813500000000 1.0
C      1  0.4582810000000  0.4929520000000  0.4255210000000 1.0
C      1  0.5072180000000  0.4167090000000  0.4813490000000 1.0
C      1  0.4467500000000  0.5372170000000  0.4441730000000 1.0
C      1  0.5372210000000  0.5558340000000  0.5532390000000 1.0
C      1  0.5558350000000  0.4467630000000  0.5372230000000 1.0
C      1  0.4813410000000  0.5072060000000  0.4167100000000 1.0
C      1  0.4210590000000  0.5300400000000  0.5142560000000 1.0
C      1  0.5532370000000  0.5372260000000  0.4441670000000 1.0
C      1  0.4255140000000  0.5417080000000  0.4929610000000 1.0
C      1  0.4927820000000  0.5832910000000  0.5186510000000 1.0
C      1  0.4699500000000  0.4857410000000  0.4210640000000 1.0
C      1  0.5142440000000  0.5789390000000  0.4699490000000 1.0
C      1  0.4627740000000  0.5558270000000  0.5532440000000 1.0
C      1  0.5300500000000  0.5142590000000  0.5789360000000 1.0
C      1  0.5072030000000  0.5832900000000  0.4813430000000 1.0
C      1  0.4857420000000  0.5789390000000  0.5300450000000 1.0
C      1  0.4441650000000  0.5532370000000  0.4627770000000 1.0
C      1  0.4441790000000  0.4467530000000  0.5372290000000 1.0
C      1  0.5602840000000  0.5415830000000  0.5444300000000 1.0
C      1  0.4467560000000  0.5372210000000  0.5558300000000 1.0
C      1  0.4397160000000  0.4584170000000  0.4555700000000 1.0
C      1  0.4929540000000  0.5744830000000  0.5417130000000 1.0
C      1  0.5532430000000  0.5372310000000  0.5558240000000 1.0
C      1  0.4397140000000  0.5415720000000  0.5444370000000 1.0
C      1  0.5789350000000  0.5300530000000  0.4857420000000 1.0
C      1  0.5602790000000  0.5415790000000  0.4555600000000 1.0
C      1  0.5070500000000  0.4255200000000  0.5417180000000 1.0
C      1  0.4467630000000  0.4627740000000  0.5558330000000 1.0
C      1  0.5602910000000  0.4584320000000  0.5444330000000 1.0
C      1  0.4582800000000  0.5070350000000  0.4255200000000 1.0
C      1  0.5417120000000  0.4929590000000  0.4255160000000 1.0
C      1  0.4582880000000  0.5070410000000  0.5744840000000 1.0
C      1  0.5415830000000  0.4555710000000  0.5602850000000 1.0
C      1  0.4584240000000  0.5444340000000  0.5602860000000 1.0
C      1  0.5417200000000  0.4929650000000  0.5744800000000 1.0
C      1  0.4397210000000  0.4584210000000  0.5444400000000 1.0
C      1  0.4152140000000  0.5061030000000  0.4861480000000 1.0
C      1  0.4938850000000  0.4861390000000  0.4152160000000 1.0
C      1  0.4326380000000  0.4482790000000  0.4856790000000 1.0
C      1  0.5380680000000  0.5698230000000  0.5330660000000 1.0
C      1  0.5143240000000  0.5673690000000  0.5517110000000 1.0
C      1  0.4301760000000  0.5330630000000  0.4619300000000 1.0
C      1  0.4856760000000  0.4326310000000  0.4482890000000 1.0
C      1  0.5673700000000  0.4482910000000  0.4856710000000 1.0
C      1  0.5138650000000  0.4152170000000  0.5061140000000 1.0
C      1  0.5292870000000  0.5281840000000  0.4240670000000 1.0
C      1  0.4152150000000  0.5061040000000  0.5138610000000 1.0
C      1  0.5759310000000  0.4707120000000  0.4718130000000 1.0
C      1  0.4861510000000  0.4152140000000  0.5061160000000 1.0
C      1  0.4482910000000  0.4856710000000  0.5673700000000 1.0
C      1  0.5847850000000  0.4938960000000  0.4861390000000 1.0
C      1  0.5138490000000  0.5847860000000  0.5061070000000 1.0
C      1  0.5517170000000  0.5143350000000  0.5673630000000 1.0
C      1  0.4938940000000  0.4861460000000  0.5847860000000 1.0
C      1  0.4856640000000  0.5673630000000  0.4482840000000 1.0
C      1  0.5061060000000  0.5138540000000  0.4152140000000 1.0
C      1  0.5517090000000  0.5143290000000  0.4326300000000 1.0
C      1  0.5061150000000  0.5138610000000  0.5847840000000 1.0
C      1  0.5673620000000  0.5517210000000  0.5143210000000 1.0
C      1  0.4669290000000  0.4619220000000  0.4301850000000 1.0
C      1  0.5847830000000  0.5061190000000  0.4861380000000 1.0
C      1  0.5759340000000  0.4707140000000  0.5281810000000 1.0
C      1  0.4445080000000  0.4757770000000  0.4387490000000 1.0
C      1  0.4240660000000  0.5292860000000  0.4718190000000 1.0
C      1  0.5673610000000  0.5517200000000  0.4856670000000 1.0
C      1  0.4619350000000  0.4301790000000  0.5330750000000 1.0
C      1  0.4856820000000  0.4326350000000  0.5517180000000 1.0
C      1  0.5698190000000  0.4669340000000  0.4619250000000 1.0
C      1  0.5143180000000  0.5673650000000  0.4482820000000 1.0
C      1  0.5612480000000  0.5554960000000  0.4757780000000 1.0
C      1  0.4619230000000  0.5698160000000  0.5330700000000 1.0
C      1  0.5380650000000  0.5698210000000  0.4669240000000 1.0
C      1  0.4938920000000  0.5138590000000  0.5847850000000 1.0
C      1  0.4326300000000  0.5517090000000  0.5143290000000 1.0
C      1  0.5281790000000  0.5759340000000  0.5292890000000 1.0
C      1  0.4757750000000  0.5612500000000  0.4445080000000 1.0
C      1  0.4152170000000  0.4938810000000  0.5138620000000 1.0
C      1  0.4240710000000  0.4706990000000  0.4718210000000 1.0
C      1  0.4707080000000  0.5281840000000  0.5759310000000 1.0
C      1  0.5554970000000  0.4757910000000  0.5612520000000 1.0
C      1  0.5847850000000  0.5061200000000  0.5138520000000 1.0
C      1  0.5281920000000  0.4240740000000  0.5292950000000 1.0
C      1  0.5242180000000  0.4387450000000  0.4445100000000 1.0
C      1  0.4326390000000  0.4482800000000  0.5143330000000 1.0
C      1  0.5143300000000  0.4326330000000  0.4482880000000 1.0
C      1  0.5061180000000  0.4861470000000  0.5847850000000 1.0
C      1  0.5673720000000  0.4482930000000  0.5143260000000 1.0
C      1  0.4718250000000  0.4240690000000  0.5292980000000 1.0
C      1  0.4619190000000  0.5698140000000  0.4669290000000 1.0
C      1  0.4387490000000  0.4445020000000  0.4757900000000 1.0
C      1  0.5380770000000  0.4301840000000  0.4669300000000 1.0
C      1  0.5380810000000  0.4301860000000  0.5330710000000 1.0
C      1  0.5293000000000  0.4718220000000  0.5759300000000 1.0
C      1  0.4240740000000  0.4707010000000  0.5281890000000 1.0
C      1  0.5281890000000  0.4240710000000  0.4707080000000 1.0
C      1  0.5242070000000  0.5612550000000  0.4445050000000 1.0
C      1  0.5330700000000  0.4619280000000  0.4301810000000 1.0
C      1  0.4707000000000  0.5281780000000  0.4240700000000 1.0
C      1  0.5554900000000  0.4757870000000  0.4387430000000 1.0
C      1  0.4757930000000  0.4387450000000  0.5554950000000 1.0
C      1  0.5612580000000  0.4445130000000  0.4757830000000 1.0
C      1  0.5612510000000  0.5554980000000  0.5242100000000 1.0
C      1  0.4387420000000  0.5554870000000  0.5242170000000 1.0
C      1  0.4718080000000  0.5759260000000  0.4707050000000 1.0
C      1  0.4152150000000  0.4938800000000  0.4861480000000 1.0
C      1  0.5330710000000  0.5380780000000  0.5698150000000 1.0
C      1  0.4669370000000  0.4619270000000  0.5698220000000 1.0
C      1  0.4757870000000  0.4387410000000  0.4445120000000 1.0
C      1  0.4669220000000  0.5380670000000  0.4301820000000 1.0
C      1  0.5330630000000  0.5380730000000  0.4301780000000 1.0
C      1  0.5759290000000  0.5293010000000  0.5281790000000 1.0
C      1  0.5292920000000  0.4718160000000  0.4240690000000 1.0
C      1  0.4619320000000  0.4301770000000  0.4669340000000 1.0
C      1  0.5847860000000  0.4938970000000  0.5138520000000 1.0
C      1  0.4861350000000  0.5847830000000  0.4938860000000 1.0
C      1  0.5061080000000  0.4861410000000  0.4152150000000 1.0
C      1  0.4718210000000  0.4240660000000  0.4707110000000 1.0
C      1  0.5242250000000  0.4387500000000  0.5554920000000 1.0
C      1  0.4707130000000  0.4718160000000  0.5759330000000 1.0
C      1  0.4861510000000  0.4152140000000  0.4938930000000 1.0
C      1  0.4482830000000  0.4856650000000  0.4326370000000 1.0
C      1  0.5138640000000  0.4152160000000  0.4938910000000 1.0
C      1  0.4445030000000  0.5242090000000  0.4387480000000 1.0
C      1  0.5242130000000  0.5612590000000  0.5554880000000 1.0
C      1  0.5612610000000  0.4445150000000  0.5242150000000 1.0
C      1  0.4938830000000  0.5138530000000  0.4152150000000 1.0
C      1  0.4240690000000  0.5292880000000  0.5281870000000 1.0
C      1  0.5554860000000  0.5242190000000  0.4387410000000 1.0
C      1  0.4326280000000  0.5517070000000  0.4856740000000 1.0
C      1  0.4861360000000  0.5847840000000  0.5061090000000 1.0
C      1  0.4707050000000  0.4718100000000  0.4240730000000 1.0
C      1  0.5281750000000  0.5759310000000  0.4707020000000 1.0
C      1  0.4757820000000  0.5612550000000  0.5554900000000 1.0
C      1  0.5292950000000  0.5281900000000  0.5759270000000 1.0
C      1  0.5138490000000  0.5847860000000  0.4938840000000 1.0
C      1  0.4718110000000  0.5759290000000  0.5292920000000 1.0
C      1  0.4387390000000  0.5554850000000  0.4757850000000 1.0
C      1  0.4387520000000  0.4445040000000  0.5242220000000 1.0
C      1  0.5698180000000  0.5330780000000  0.5380670000000 1.0
C      1  0.4445100000000  0.5242130000000  0.5612570000000 1.0
C      1  0.4301820000000  0.4669220000000  0.4619330000000 1.0
C      1  0.4856700000000  0.5673670000000  0.5517120000000 1.0
C      1  0.5554920000000  0.5242230000000  0.5612510000000 1.0
C      1  0.4301810000000  0.5330660000000  0.5380750000000 1.0
C      1  0.5759260000000  0.5292990000000  0.4718110000000 1.0
C      1  0.5698130000000  0.5330750000000  0.4619220000000 1.0
C      1  0.5143360000000  0.4326370000000  0.5517160000000 1.0
C      1  0.4445140000000  0.4757810000000  0.5612590000000 1.0
C      1  0.5698240000000  0.4669370000000  0.5380700000000 1.0
C      1  0.4482810000000  0.5143200000000  0.4326360000000 1.0
C      1  0.5517120000000  0.4856750000000  0.4326320000000 1.0
C      1  0.4482880000000  0.5143250000000  0.5673680000000 1.0
C      1  0.5330780000000  0.4619330000000  0.5698180000000 1.0
C      1  0.4669300000000  0.5380720000000  0.5698190000000 1.0
C      1  0.5517190000000  0.4856800000000  0.5673640000000 1.0
C      1  0.4301870000000  0.4669250000000  0.5380780000000 1.0
END
