TITL C-102688-8074-109 2.4434003715598 1000000 -1699.66099989539 0 0 240 (Td) n - 1
REM
REM in /home/chem/mssmkc/work/GAP20/Larger-Clusters/Only-C240-new-series
REM
REM
REM
REM
REM
REM ./C.cell (0485df7495ed2a90f93db84a705cd676)
REM
REM compiler GCC version 8.3.0
REM options -cpp -mtune=generic -march=x86-64 -g -O0
REM seed -2029319199 -347626399 -2014435670 -1058306668 540741605 990451395 1763287297 -1961050454 2079889169 1445994698 223992600 656672223 1283514929 -2142963622 -1532745402 2009552124 1055472695 -515914514 -1252997690 1077005059 -805905145 51974456 1407189468 -1565001663 495734289 1047410225 -1478161242 1238439472 757143753 -1904442200 1621720076 -1676654685 -912891058
REM
CELL 1.54180  100.00000  100.00000  100.00000   90.00000   90.00000   90.00000
LATT -1
SFAC C  
C      1  0.4516340000000  0.5281780000000  0.5383800000000 1.0
C      1  0.5383790000000  0.4516330000000  0.5281770000000 1.0
C      1  0.5281790000000  0.5383800000000  0.4516350000000 1.0
C      1  0.5483660000000  0.5281810000000  0.4616220000000 1.0
C      1  0.4516330000000  0.4718220000000  0.4616210000000 1.0
C      1  0.5483670000000  0.4718190000000  0.5383770000000 1.0
C      1  0.4616210000000  0.4516350000000  0.4718200000000 1.0
C      1  0.5383780000000  0.5483670000000  0.4718220000000 1.0
C      1  0.4616220000000  0.5483650000000  0.5281810000000 1.0
C      1  0.4718210000000  0.5383770000000  0.5483680000000 1.0
C      1  0.5281800000000  0.4616200000000  0.5483650000000 1.0
C      1  0.4718200000000  0.4616230000000  0.4516330000000 1.0
C      1  0.5383780000000  0.5281810000000  0.4516340000000 1.0
C      1  0.5281800000000  0.4516330000000  0.5383760000000 1.0
C      1  0.4516340000000  0.5383770000000  0.5281810000000 1.0
C      1  0.4616220000000  0.5281780000000  0.5483680000000 1.0
C      1  0.4616210000000  0.4718220000000  0.4516330000000 1.0
C      1  0.5383790000000  0.4718190000000  0.5483650000000 1.0
C      1  0.4718200000000  0.4516350000000  0.4616200000000 1.0
C      1  0.4718210000000  0.5483650000000  0.5383800000000 1.0
C      1  0.5281790000000  0.5483670000000  0.4616230000000 1.0
C      1  0.5483660000000  0.5383790000000  0.4718210000000 1.0
C      1  0.5483670000000  0.4616210000000  0.5281770000000 1.0
C      1  0.4516340000000  0.4616230000000  0.4718200000000 1.0
C      1  0.4712250000000  0.4438850000000  0.5061510000000 1.0
C      1  0.5061520000000  0.4712260000000  0.4438850000000 1.0
C      1  0.4438850000000  0.5061530000000  0.4712250000000 1.0
C      1  0.5287760000000  0.4438860000000  0.4938450000000 1.0
C      1  0.4712240000000  0.5561140000000  0.4938500000000 1.0
C      1  0.5287760000000  0.5561140000000  0.5061540000000 1.0
C      1  0.4938480000000  0.4712230000000  0.5561130000000 1.0
C      1  0.5061530000000  0.5287740000000  0.5561150000000 1.0
C      1  0.4938470000000  0.5287770000000  0.4438870000000 1.0
C      1  0.5561150000000  0.5061520000000  0.5287750000000 1.0
C      1  0.4438860000000  0.4938470000000  0.5287760000000 1.0
C      1  0.5561140000000  0.4938490000000  0.4712240000000 1.0
C      1  0.5061520000000  0.4438870000000  0.4712220000000 1.0
C      1  0.4438860000000  0.4712240000000  0.5061520000000 1.0
C      1  0.4712240000000  0.5061540000000  0.4438860000000 1.0
C      1  0.4938480000000  0.4438850000000  0.5287740000000 1.0
C      1  0.4938470000000  0.5561150000000  0.4712260000000 1.0
C      1  0.5061530000000  0.5561130000000  0.5287770000000 1.0
C      1  0.5561140000000  0.4712250000000  0.4938460000000 1.0
C      1  0.5561140000000  0.5287750000000  0.5061530000000 1.0
C      1  0.4438860000000  0.5287760000000  0.4938490000000 1.0
C      1  0.5287760000000  0.5061510000000  0.5561140000000 1.0
C      1  0.5287750000000  0.4938490000000  0.4438850000000 1.0
C      1  0.4712250000000  0.4938460000000  0.5561140000000 1.0
C      1  0.4343620000000  0.4983170000000  0.4780900000000 1.0
C      1  0.4780890000000  0.4343620000000  0.4983150000000 1.0
C      1  0.4983160000000  0.4780910000000  0.4343610000000 1.0
C      1  0.5656380000000  0.4983160000000  0.5219100000000 1.0
C      1  0.4343620000000  0.5016830000000  0.5219120000000 1.0
C      1  0.5656380000000  0.5016840000000  0.4780880000000 1.0
C      1  0.5219110000000  0.4343620000000  0.5016810000000 1.0
C      1  0.4780890000000  0.5656380000000  0.5016860000000 1.0
C      1  0.5219110000000  0.5656380000000  0.4983180000000 1.0
C      1  0.5016840000000  0.4780870000000  0.5656370000000 1.0
C      1  0.4983170000000  0.5219090000000  0.5656390000000 1.0
C      1  0.5016830000000  0.5219130000000  0.4343630000000 1.0
C      1  0.4780880000000  0.4983190000000  0.4343620000000 1.0
C      1  0.4983160000000  0.4343630000000  0.4780870000000 1.0
C      1  0.4343620000000  0.4780890000000  0.4983170000000 1.0
C      1  0.5219120000000  0.4983140000000  0.5656380000000 1.0
C      1  0.5219100000000  0.5016860000000  0.4343620000000 1.0
C      1  0.4780900000000  0.5016810000000  0.5656380000000 1.0
C      1  0.5016840000000  0.4343610000000  0.5219090000000 1.0
C      1  0.5016830000000  0.5656390000000  0.4780910000000 1.0
C      1  0.4983170000000  0.5656370000000  0.5219130000000 1.0
C      1  0.5656380000000  0.4780890000000  0.5016820000000 1.0
C      1  0.5656380000000  0.5219110000000  0.4983170000000 1.0
C      1  0.4343620000000  0.5219110000000  0.5016850000000 1.0
C      1  0.4786370000000  0.5552070000000  0.4549950000000 1.0
C      1  0.4549940000000  0.4786360000000  0.5552050000000 1.0
C      1  0.5552050000000  0.4549940000000  0.4786350000000 1.0
C      1  0.5213630000000  0.5552040000000  0.5450080000000 1.0
C      1  0.4786380000000  0.4447930000000  0.5450050000000 1.0
C      1  0.5213620000000  0.4447960000000  0.4549910000000 1.0
C      1  0.5450060000000  0.4786390000000  0.4447930000000 1.0
C      1  0.4549920000000  0.5213640000000  0.4447960000000 1.0
C      1  0.5450070000000  0.5213610000000  0.5552060000000 1.0
C      1  0.4447950000000  0.4549920000000  0.5213620000000 1.0
C      1  0.5552060000000  0.5450060000000  0.5213630000000 1.0
C      1  0.4447940000000  0.5450070000000  0.4786400000000 1.0
C      1  0.4549930000000  0.5552060000000  0.4786400000000 1.0
C      1  0.5552050000000  0.4786390000000  0.4549920000000 1.0
C      1  0.4786380000000  0.4549910000000  0.5552040000000 1.0
C      1  0.5450070000000  0.5552050000000  0.5213640000000 1.0
C      1  0.5450070000000  0.4447950000000  0.4786350000000 1.0
C      1  0.4549930000000  0.4447940000000  0.5213610000000 1.0
C      1  0.4447950000000  0.4786360000000  0.5450070000000 1.0
C      1  0.4447940000000  0.5213640000000  0.4549950000000 1.0
C      1  0.5552060000000  0.5213610000000  0.5450070000000 1.0
C      1  0.5213620000000  0.4549950000000  0.4447930000000 1.0
C      1  0.5213630000000  0.5450050000000  0.5552070000000 1.0
C      1  0.4786370000000  0.5450090000000  0.4447960000000 1.0
C      1  0.4998730000000  0.4272150000000  0.5102180000000 1.0
C      1  0.5102200000000  0.4998750000000  0.4272150000000 1.0
C      1  0.4272160000000  0.5102210000000  0.4998740000000 1.0
C      1  0.5001270000000  0.4272160000000  0.4897770000000 1.0
C      1  0.4998730000000  0.5727850000000  0.4897820000000 1.0
C      1  0.5001270000000  0.5727840000000  0.5102230000000 1.0
C      1  0.4897800000000  0.4998710000000  0.5727850000000 1.0
C      1  0.5102220000000  0.5001250000000  0.5727840000000 1.0
C      1  0.4897780000000  0.5001290000000  0.4272160000000 1.0
C      1  0.5727840000000  0.5102210000000  0.5001260000000 1.0
C      1  0.4272160000000  0.4897790000000  0.5001270000000 1.0
C      1  0.5727840000000  0.4897790000000  0.4998720000000 1.0
C      1  0.5102210000000  0.4272160000000  0.4998700000000 1.0
C      1  0.4272160000000  0.4998730000000  0.5102220000000 1.0
C      1  0.4998720000000  0.5102230000000  0.4272160000000 1.0
C      1  0.4897790000000  0.4272160000000  0.5001250000000 1.0
C      1  0.4897790000000  0.5727840000000  0.4998760000000 1.0
C      1  0.5102210000000  0.5727840000000  0.5001290000000 1.0
C      1  0.5727840000000  0.4998730000000  0.4897780000000 1.0
C      1  0.5727850000000  0.5001270000000  0.5102200000000 1.0
C      1  0.4272150000000  0.5001270000000  0.4897800000000 1.0
C      1  0.5001280000000  0.5102180000000  0.5727850000000 1.0
C      1  0.5001260000000  0.4897820000000  0.4272150000000 1.0
C      1  0.4998740000000  0.4897770000000  0.5727840000000 1.0
C      1  0.5520140000000  0.4590150000000  0.5025690000000 1.0
C      1  0.5025710000000  0.5520160000000  0.4590170000000 1.0
C      1  0.4590160000000  0.5025700000000  0.5520150000000 1.0
C      1  0.4479860000000  0.4590150000000  0.4974280000000 1.0
C      1  0.5520140000000  0.5409850000000  0.4974290000000 1.0
C      1  0.4479860000000  0.5409850000000  0.5025730000000 1.0
C      1  0.4974290000000  0.5520130000000  0.5409870000000 1.0
C      1  0.5025720000000  0.4479840000000  0.5409830000000 1.0
C      1  0.4974280000000  0.4479870000000  0.4590130000000 1.0
C      1  0.5409840000000  0.5025730000000  0.4479850000000 1.0
C      1  0.4590150000000  0.4974300000000  0.4479860000000 1.0
C      1  0.5409850000000  0.4974270000000  0.5520140000000 1.0
C      1  0.5025720000000  0.4590130000000  0.5520130000000 1.0
C      1  0.4590150000000  0.5520140000000  0.5025740000000 1.0
C      1  0.5520140000000  0.5025730000000  0.4590150000000 1.0
C      1  0.4974280000000  0.4590170000000  0.4479840000000 1.0
C      1  0.4974290000000  0.5409830000000  0.5520160000000 1.0
C      1  0.5025710000000  0.5409870000000  0.4479870000000 1.0
C      1  0.5409850000000  0.5520150000000  0.4974300000000 1.0
C      1  0.5409850000000  0.4479860000000  0.5025690000000 1.0
C      1  0.4590150000000  0.4479860000000  0.4974270000000 1.0
C      1  0.4479860000000  0.5025700000000  0.5409860000000 1.0
C      1  0.4479850000000  0.4974300000000  0.4590160000000 1.0
C      1  0.5520150000000  0.4974270000000  0.5409840000000 1.0
C      1  0.4446880000000  0.4794620000000  0.5306770000000 1.0
C      1  0.5306770000000  0.4446880000000  0.4794610000000 1.0
C      1  0.4794620000000  0.5306790000000  0.4446890000000 1.0
C      1  0.5553120000000  0.4794640000000  0.4693220000000 1.0
C      1  0.4446870000000  0.5205380000000  0.4693240000000 1.0
C      1  0.5553130000000  0.5205360000000  0.5306770000000 1.0
C      1  0.4693230000000  0.4446870000000  0.5205350000000 1.0
C      1  0.5306770000000  0.5553120000000  0.5205380000000 1.0
C      1  0.4693230000000  0.5553130000000  0.4794650000000 1.0
C      1  0.5205370000000  0.5306750000000  0.5553130000000 1.0
C      1  0.4794640000000  0.4693210000000  0.5553120000000 1.0
C      1  0.5205360000000  0.4693250000000  0.4446860000000 1.0
C      1  0.5306760000000  0.4794650000000  0.4446860000000 1.0
C      1  0.4794640000000  0.4446860000000  0.5306750000000 1.0
C      1  0.4446870000000  0.5306780000000  0.4794650000000 1.0
C      1  0.4693240000000  0.4794610000000  0.5553120000000 1.0
C      1  0.4693220000000  0.5205390000000  0.4446890000000 1.0
C      1  0.5306780000000  0.5205350000000  0.5553130000000 1.0
C      1  0.5205370000000  0.4446890000000  0.4693210000000 1.0
C      1  0.5205370000000  0.5553110000000  0.5306790000000 1.0
C      1  0.4794630000000  0.5553130000000  0.4693250000000 1.0
C      1  0.5553130000000  0.5306760000000  0.5205370000000 1.0
C      1  0.5553120000000  0.4693240000000  0.4794610000000 1.0
C      1  0.4446880000000  0.4693220000000  0.5205360000000 1.0
C      1  0.5155450000000  0.4358680000000  0.5255290000000 1.0
C      1  0.5255310000000  0.5155460000000  0.4358690000000 1.0
C      1  0.4358690000000  0.5255310000000  0.5155460000000 1.0
C      1  0.4844560000000  0.4358700000000  0.4744660000000 1.0
C      1  0.5155440000000  0.5641320000000  0.4744700000000 1.0
C      1  0.4844560000000  0.5641300000000  0.5255340000000 1.0
C      1  0.4744690000000  0.5155420000000  0.5641320000000 1.0
C      1  0.5255320000000  0.4844540000000  0.5641300000000 1.0
C      1  0.4744680000000  0.4844580000000  0.4358690000000 1.0
C      1  0.5641310000000  0.5255320000000  0.4844560000000 1.0
C      1  0.4358690000000  0.4744690000000  0.4844560000000 1.0
C      1  0.5641310000000  0.4744680000000  0.5155430000000 1.0
C      1  0.5255320000000  0.4358680000000  0.5155420000000 1.0
C      1  0.4358690000000  0.5155430000000  0.5255330000000 1.0
C      1  0.5155430000000  0.5255340000000  0.4358690000000 1.0
C      1  0.4744680000000  0.4358690000000  0.4844540000000 1.0
C      1  0.4744690000000  0.5641310000000  0.5155470000000 1.0
C      1  0.5255310000000  0.5641320000000  0.4844580000000 1.0
C      1  0.5641310000000  0.5155450000000  0.4744680000000 1.0
C      1  0.5641320000000  0.4844550000000  0.5255300000000 1.0
C      1  0.4358690000000  0.4844570000000  0.4744690000000 1.0
C      1  0.4844570000000  0.5255290000000  0.5641320000000 1.0
C      1  0.4844550000000  0.4744710000000  0.4358680000000 1.0
C      1  0.5155450000000  0.4744660000000  0.5641300000000 1.0
C      1  0.5078480000000  0.4400080000000  0.4497670000000 1.0
C      1  0.4497690000000  0.5078510000000  0.4400070000000 1.0
C      1  0.4400060000000  0.4497690000000  0.5078480000000 1.0
C      1  0.4921520000000  0.4400040000000  0.5502290000000 1.0
C      1  0.5078490000000  0.5599920000000  0.5502330000000 1.0
C      1  0.4921510000000  0.5599960000000  0.4497710000000 1.0
C      1  0.5502310000000  0.5078470000000  0.5599940000000 1.0
C      1  0.4497700000000  0.4921490000000  0.5599940000000 1.0
C      1  0.5502300000000  0.4921530000000  0.4400050000000 1.0
C      1  0.5599940000000  0.4497700000000  0.4921490000000 1.0
C      1  0.4400060000000  0.5502310000000  0.4921540000000 1.0
C      1  0.5599940000000  0.5502300000000  0.5078500000000 1.0
C      1  0.4497700000000  0.4400060000000  0.5078470000000 1.0
C      1  0.4400050000000  0.5078500000000  0.4497700000000 1.0
C      1  0.5078480000000  0.4497710000000  0.4400040000000 1.0
C      1  0.5502310000000  0.4400060000000  0.4921490000000 1.0
C      1  0.5502310000000  0.5599940000000  0.5078500000000 1.0
C      1  0.4497690000000  0.5599940000000  0.4921540000000 1.0
C      1  0.5599950000000  0.5078470000000  0.5502300000000 1.0
C      1  0.5599930000000  0.4921530000000  0.4497680000000 1.0
C      1  0.4400070000000  0.4921500000000  0.5502310000000 1.0
C      1  0.4921520000000  0.4497670000000  0.5599920000000 1.0
C      1  0.4921510000000  0.5502330000000  0.4400080000000 1.0
C      1  0.5078490000000  0.5502290000000  0.5599960000000 1.0
C      1  0.5557460000000  0.5162480000000  0.4633580000000 1.0
C      1  0.4633590000000  0.5557460000000  0.5162490000000 1.0
C      1  0.5162470000000  0.4633570000000  0.5557450000000 1.0
C      1  0.4442540000000  0.5162450000000  0.5366430000000 1.0
C      1  0.5557470000000  0.4837520000000  0.5366400000000 1.0
C      1  0.4442530000000  0.4837550000000  0.4633590000000 1.0
C      1  0.5366410000000  0.5557470000000  0.4837550000000 1.0
C      1  0.4633580000000  0.4442540000000  0.4837520000000 1.0
C      1  0.5366420000000  0.4442530000000  0.5162440000000 1.0
C      1  0.4837530000000  0.4633600000000  0.4442530000000 1.0
C      1  0.5162460000000  0.5366440000000  0.4442550000000 1.0
C      1  0.4837540000000  0.5366400000000  0.5557480000000 1.0
C      1  0.4633590000000  0.5162440000000  0.5557470000000 1.0
C      1  0.5162460000000  0.5557480000000  0.4633600000000 1.0
C      1  0.5557470000000  0.4633580000000  0.5162440000000 1.0
C      1  0.5366410000000  0.5162480000000  0.4442540000000 1.0
C      1  0.5366420000000  0.4837520000000  0.5557450000000 1.0
C      1  0.4633580000000  0.4837550000000  0.4442530000000 1.0
C      1  0.4837540000000  0.5557450000000  0.5366440000000 1.0
C      1  0.4837530000000  0.4442550000000  0.4633570000000 1.0
C      1  0.5162470000000  0.4442520000000  0.5366400000000 1.0
C      1  0.4442530000000  0.4633590000000  0.4837530000000 1.0
C      1  0.4442540000000  0.5366410000000  0.5162480000000 1.0
C      1  0.5557460000000  0.5366420000000  0.4837540000000 1.0
END
