TITL C240-913020 -0.164221381016874 1000000 -1661.97105281749 0 0 240 (C1) n - 1
REM
REM in /home/chem/mssmkc/work/CARBON/AIRSS/Generating-Clusters/Str-Search/GAP20/LAMMPS-RUNS
REM
REM
REM
REM
REM
REM C240.cell (714cd5c9d4c458268890dc46467a354c)
REM
REM
REM
REM
REM
CELL 1.54180  100.00000  100.00000  100.00000   90.00000   90.00000   90.00000
LATT -1
SFAC C  
C      1  0.5118210000000  0.4738690000000  0.5171960000000 1.0
C      1  0.4797050000000  0.4922010000000  0.4756670000000 1.0
C      1  0.4732180000000  0.5233390000000  0.4880440000000 1.0
C      1  0.4747300000000  0.4909710000000  0.4990640000000 1.0
C      1  0.5038040000000  0.5307030000000  0.5016400000000 1.0
C      1  0.5000690000000  0.4672010000000  0.4955700000000 1.0
C      1  0.4788310000000  0.4938690000000  0.5247620000000 1.0
C      1  0.5379940000000  0.5023700000000  0.5134890000000 1.0
C      1  0.5068520000000  0.5183090000000  0.5331410000000 1.0
C      1  0.4989710000000  0.5032810000000  0.4676350000000 1.0
C      1  0.5209530000000  0.4821500000000  0.4865310000000 1.0
C      1  0.5130640000000  0.5033760000000  0.4714380000000 1.0
C      1  0.4866940000000  0.4700280000000  0.4884520000000 1.0
C      1  0.5102730000000  0.5261390000000  0.4898770000000 1.0
C      1  0.4889310000000  0.5324540000000  0.5061940000000 1.0
C      1  0.4971110000000  0.5083580000000  0.5347300000000 1.0
C      1  0.5235310000000  0.5202820000000  0.5079780000000 1.0
C      1  0.4824480000000  0.5194290000000  0.4765750000000 1.0
C      1  0.4764370000000  0.5272000000000  0.5012790000000 1.0
C      1  0.4772280000000  0.4819280000000  0.4877070000000 1.0
C      1  0.5115560000000  0.5261080000000  0.5124170000000 1.0
C      1  0.5126580000000  0.4703250000000  0.4872350000000 1.0
C      1  0.5297250000000  0.4909660000000  0.5147890000000 1.0
C      1  0.4996230000000  0.4729260000000  0.5096230000000 1.0
C      1  0.4723500000000  0.4886320000000  0.5129370000000 1.0
C      1  0.5221190000000  0.5195080000000  0.4938570000000 1.0
C      1  0.4840860000000  0.5067480000000  0.5285400000000 1.0
C      1  0.5191540000000  0.4854970000000  0.5226550000000 1.0
C      1  0.4871000000000  0.5046100000000  0.4757230000000 1.0
C      1  0.5201100000000  0.4908600000000  0.4748540000000 1.0
C      1  0.4510050000000  0.5221290000000  0.5287990000000 1.0
C      1  0.4717070000000  0.5364700000000  0.4496440000000 1.0
C      1  0.4340440000000  0.5073100000000  0.4873070000000 1.0
C      1  0.5180170000000  0.5235680000000  0.5592420000000 1.0
C      1  0.5138760000000  0.5585700000000  0.4942760000000 1.0
C      1  0.4785000000000  0.5541920000000  0.4818120000000 1.0
C      1  0.4912490000000  0.4356640000000  0.5063440000000 1.0
C      1  0.5619120000000  0.5074510000000  0.4881660000000 1.0
C      1  0.4741210000000  0.4512920000000  0.5182490000000 1.0
C      1  0.5451510000000  0.4790770000000  0.4578150000000 1.0
C      1  0.4447270000000  0.5237910000000  0.4692940000000 1.0
C      1  0.5453280000000  0.4571720000000  0.5193080000000 1.0
C      1  0.5337100000000  0.4500030000000  0.5237620000000 1.0
C      1  0.5050820000000  0.4865210000000  0.5625860000000 1.0
C      1  0.5540230000000  0.4785880000000  0.5345960000000 1.0
C      1  0.4715630000000  0.5522690000000  0.5206050000000 1.0
C      1  0.4932970000000  0.5255750000000  0.5646060000000 1.0
C      1  0.4770400000000  0.5354290000000  0.5479690000000 1.0
C      1  0.4873060000000  0.5641450000000  0.5050240000000 1.0
C      1  0.5223320000000  0.4683410000000  0.4489610000000 1.0
C      1  0.4875560000000  0.5166380000000  0.4382990000000 1.0
C      1  0.5137580000000  0.4628240000000  0.5543960000000 1.0
C      1  0.5655650000000  0.4928100000000  0.5150610000000 1.0
C      1  0.4434890000000  0.4818560000000  0.4815660000000 1.0
C      1  0.5505820000000  0.5187700000000  0.5339700000000 1.0
C      1  0.5483110000000  0.4545740000000  0.4799730000000 1.0
C      1  0.4928220000000  0.4500040000000  0.4623780000000 1.0
C      1  0.4597750000000  0.5453190000000  0.5181950000000 1.0
C      1  0.5613610000000  0.4925090000000  0.4879690000000 1.0
C      1  0.4811770000000  0.4782880000000  0.5566210000000 1.0
C      1  0.4896740000000  0.4346190000000  0.4923830000000 1.0
C      1  0.5256050000000  0.4412420000000  0.4810250000000 1.0
C      1  0.5139940000000  0.5589980000000  0.5085830000000 1.0
C      1  0.5448620000000  0.5050560000000  0.4537920000000 1.0
C      1  0.4813840000000  0.5253400000000  0.5578660000000 1.0
C      1  0.5116340000000  0.5248870000000  0.4385360000000 1.0
C      1  0.4778360000000  0.4670110000000  0.5478130000000 1.0
C      1  0.4419990000000  0.4953430000000  0.5115310000000 1.0
C      1  0.4841730000000  0.5455050000000  0.5414590000000 1.0
C      1  0.4495720000000  0.5429090000000  0.4927880000000 1.0
C      1  0.4490630000000  0.4774770000000  0.4689880000000 1.0
C      1  0.4607380000000  0.4560070000000  0.5187310000000 1.0
C      1  0.4558050000000  0.4831180000000  0.5415880000000 1.0
C      1  0.5064050000000  0.4464920000000  0.5363430000000 1.0
C      1  0.5526150000000  0.5236370000000  0.4675700000000 1.0
C      1  0.4848560000000  0.4582620000000  0.5393170000000 1.0
C      1  0.5487590000000  0.4619800000000  0.4925000000000 1.0
C      1  0.4353500000000  0.5080020000000  0.5126390000000 1.0
C      1  0.5192540000000  0.4370520000000  0.5054350000000 1.0
C      1  0.5245060000000  0.5331850000000  0.5503640000000 1.0
C      1  0.5655560000000  0.5068400000000  0.5153940000000 1.0
C      1  0.5157590000000  0.4545390000000  0.5437180000000 1.0
C      1  0.4776160000000  0.5250480000000  0.4437950000000 1.0
C      1  0.4599090000000  0.4943490000000  0.4503100000000 1.0
C      1  0.5188950000000  0.4805070000000  0.4424220000000 1.0
C      1  0.5137670000000  0.4760600000000  0.5574160000000 1.0
C      1  0.5421580000000  0.5152380000000  0.5446770000000 1.0
C      1  0.4558930000000  0.4467930000000  0.4873570000000 1.0
C      1  0.4803850000000  0.4563780000000  0.4583560000000 1.0
C      1  0.5461300000000  0.5360240000000  0.4933140000000 1.0
C      1  0.5555000000000  0.4824690000000  0.4801950000000 1.0
C      1  0.4552200000000  0.4830690000000  0.4574810000000 1.0
C      1  0.5070710000000  0.4493830000000  0.4614720000000 1.0
C      1  0.4516200000000  0.4593970000000  0.5082980000000 1.0
C      1  0.5415400000000  0.4919810000000  0.4520330000000 1.0
C      1  0.5356070000000  0.5054140000000  0.5522430000000 1.0
C      1  0.4616620000000  0.5083230000000  0.5497630000000 1.0
C      1  0.5145000000000  0.5410640000000  0.4571000000000 1.0
C      1  0.4491340000000  0.4784140000000  0.5299490000000 1.0
C      1  0.5587260000000  0.5166390000000  0.5230920000000 1.0
C      1  0.4433400000000  0.4828130000000  0.5173290000000 1.0
C      1  0.4507060000000  0.4571340000000  0.4944780000000 1.0
C      1  0.4394270000000  0.5197000000000  0.4819360000000 1.0
C      1  0.5556930000000  0.5168740000000  0.4800610000000 1.0
C      1  0.5436030000000  0.5426910000000  0.4806970000000 1.0
C      1  0.5424870000000  0.5176360000000  0.4583250000000 1.0
C      1  0.4820500000000  0.4787690000000  0.4430540000000 1.0
C      1  0.5553090000000  0.4753070000000  0.4674270000000 1.0
C      1  0.5298450000000  0.5452450000000  0.4767840000000 1.0
C      1  0.5189450000000  0.5311910000000  0.4479040000000 1.0
C      1  0.5179340000000  0.4568550000000  0.4560200000000 1.0
C      1  0.5500620000000  0.4626900000000  0.5064600000000 1.0
C      1  0.4570650000000  0.5187530000000  0.5411900000000 1.0
C      1  0.5355610000000  0.4496930000000  0.4748850000000 1.0
C      1  0.5063540000000  0.4865520000000  0.4382910000000 1.0
C      1  0.4669490000000  0.4442300000000  0.4798880000000 1.0
C      1  0.4900290000000  0.5487970000000  0.4610030000000 1.0
C      1  0.5480990000000  0.5361710000000  0.5072490000000 1.0
C      1  0.5358880000000  0.4914190000000  0.5511230000000 1.0
C      1  0.4764330000000  0.4678690000000  0.4512630000000 1.0
C      1  0.4543700000000  0.5473630000000  0.4800130000000 1.0
C      1  0.5039330000000  0.5489120000000  0.4619960000000 1.0
C      1  0.4421310000000  0.4949120000000  0.4869940000000 1.0
C      1  0.5335900000000  0.5506930000000  0.5245810000000 1.0
C      1  0.4521560000000  0.5192860000000  0.4579710000000 1.0
C      1  0.4773010000000  0.5490390000000  0.4545680000000 1.0
C      1  0.4514640000000  0.5423970000000  0.5068200000000 1.0
C      1  0.5437200000000  0.4821460000000  0.5441970000000 1.0
C      1  0.4654260000000  0.5559110000000  0.4758080000000 1.0
C      1  0.5212070000000  0.5468560000000  0.5457780000000 1.0
C      1  0.4589150000000  0.5083090000000  0.4519500000000 1.0
C      1  0.4610780000000  0.4942130000000  0.5492030000000 1.0
C      1  0.5203680000000  0.5522710000000  0.5190450000000 1.0
C      1  0.4952800000000  0.5545430000000  0.5395970000000 1.0
C      1  0.4800000000000  0.4380880000000  0.4825240000000 1.0
C      1  0.4868560000000  0.5606450000000  0.4910810000000 1.0
C      1  0.5085470000000  0.5503730000000  0.5397450000000 1.0
C      1  0.4798900000000  0.5632100000000  0.5169830000000 1.0
C      1  0.5415230000000  0.5397380000000  0.5196860000000 1.0
C      1  0.5200350000000  0.5534470000000  0.4824930000000 1.0
C      1  0.5252430000000  0.4355800000000  0.4933960000000 1.0
C      1  0.4921970000000  0.4456640000000  0.5386420000000 1.0
C      1  0.5238700000000  0.4419650000000  0.5179050000000 1.0
C      1  0.5018510000000  0.5155760000000  0.4373500000000 1.0
C      1  0.4944400000000  0.4801110000000  0.4379360000000 1.0
C      1  0.5059760000000  0.5252460000000  0.5655890000000 1.0
C      1  0.5587280000000  0.4824480000000  0.5218980000000 1.0
C      1  0.4434140000000  0.5193160000000  0.5174130000000 1.0
C      1  0.4910340000000  0.4867290000000  0.5627610000000 1.0
C      1  0.4813700000000  0.4386610000000  0.5166080000000 1.0
C      1  0.4992680000000  0.5567960000000  0.5116070000000 1.0
C      1  0.5438780000000  0.5225470000000  0.4866100000000 1.0
C      1  0.5552550000000  0.4618310000000  0.4704830000000 1.0
C      1  0.5512000000000  0.5371570000000  0.4702630000000 1.0
C      1  0.4731960000000  0.5131600000000  0.4526570000000 1.0
C      1  0.4511460000000  0.4744000000000  0.5071000000000 1.0
C      1  0.5276800000000  0.5237020000000  0.4594890000000 1.0
C      1  0.5206140000000  0.5098240000000  0.5529220000000 1.0
C      1  0.4707000000000  0.4566460000000  0.4717080000000 1.0
C      1  0.5463360000000  0.4666790000000  0.5302800000000 1.0
C      1  0.5320770000000  0.4723290000000  0.4605610000000 1.0
C      1  0.5000720000000  0.5537250000000  0.4895850000000 1.0
C      1  0.4861030000000  0.4995930000000  0.5550090000000 1.0
C      1  0.5122340000000  0.5434860000000  0.5278760000000 1.0
C      1  0.5009190000000  0.4441060000000  0.4859110000000 1.0
C      1  0.5109900000000  0.4977650000000  0.5534810000000 1.0
C      1  0.4860620000000  0.4377740000000  0.5293460000000 1.0
C      1  0.4768430000000  0.5121680000000  0.5529920000000 1.0
C      1  0.5514100000000  0.4775450000000  0.5089930000000 1.0
C      1  0.4480850000000  0.5272840000000  0.4919990000000 1.0
C      1  0.4692360000000  0.5273280000000  0.5378660000000 1.0
C      1  0.5257210000000  0.4591680000000  0.5335820000000 1.0
C      1  0.5276070000000  0.4601590000000  0.4680850000000 1.0
C      1  0.4631430000000  0.5302800000000  0.4606200000000 1.0
C      1  0.4554580000000  0.5345750000000  0.4723190000000 1.0
C      1  0.4620080000000  0.4687550000000  0.4723190000000 1.0
C      1  0.4679640000000  0.4739580000000  0.5382190000000 1.0
C      1  0.5213460000000  0.4868530000000  0.5489680000000 1.0
C      1  0.4508340000000  0.5264820000000  0.5066390000000 1.0
C      1  0.5445800000000  0.4746750000000  0.4864680000000 1.0
C      1  0.4759340000000  0.4916450000000  0.4486010000000 1.0
C      1  0.5045930000000  0.4429100000000  0.5085540000000 1.0
C      1  0.4835870000000  0.5040980000000  0.4473970000000 1.0
C      1  0.5579000000000  0.4890240000000  0.5020090000000 1.0
C      1  0.5386420000000  0.5269080000000  0.5272490000000 1.0
C      1  0.5318460000000  0.5522370000000  0.5383620000000 1.0
C      1  0.5069150000000  0.5483090000000  0.4771500000000 1.0
C      1  0.5066110000000  0.5019060000000  0.4435680000000 1.0
C      1  0.4295140000000  0.5092770000000  0.5002350000000 1.0
C      1  0.4758080000000  0.4904330000000  0.5494790000000 1.0
C      1  0.5224430000000  0.5349990000000  0.4685110000000 1.0
C      1  0.5199400000000  0.5036730000000  0.4489750000000 1.0
C      1  0.4509000000000  0.4730430000000  0.4919840000000 1.0
C      1  0.4626670000000  0.5312080000000  0.5244880000000 1.0
C      1  0.4608980000000  0.4692690000000  0.5262510000000 1.0
C      1  0.4839020000000  0.4607270000000  0.5242460000000 1.0
C      1  0.4900060000000  0.4481250000000  0.4769480000000 1.0
C      1  0.5582160000000  0.5110940000000  0.5026570000000 1.0
C      1  0.5266310000000  0.4911920000000  0.4501930000000 1.0
C      1  0.4504700000000  0.4979430000000  0.4989540000000 1.0
C      1  0.5510750000000  0.5218630000000  0.5103080000000 1.0
C      1  0.4682250000000  0.4755320000000  0.4609860000000 1.0
C      1  0.5306720000000  0.5246220000000  0.5398190000000 1.0
C      1  0.4919160000000  0.5576350000000  0.5248260000000 1.0
C      1  0.4682230000000  0.5561950000000  0.4623270000000 1.0
C      1  0.4834450000000  0.5448410000000  0.5266180000000 1.0
C      1  0.5341100000000  0.4708450000000  0.5372320000000 1.0
C      1  0.5103790000000  0.4480170000000  0.5218710000000 1.0
C      1  0.5122090000000  0.4465570000000  0.4766460000000 1.0
C      1  0.4847590000000  0.5433260000000  0.4732020000000 1.0
C      1  0.5152880000000  0.4620720000000  0.5231500000000 1.0
C      1  0.4768870000000  0.4872190000000  0.4631800000000 1.0
C      1  0.4603200000000  0.5259200000000  0.4839420000000 1.0
C      1  0.4640410000000  0.4992980000000  0.4995420000000 1.0
C      1  0.4969690000000  0.5445270000000  0.5018870000000 1.0
C      1  0.5027670000000  0.4524690000000  0.4975260000000 1.0
C      1  0.4776700000000  0.4852390000000  0.5356910000000 1.0
C      1  0.5480940000000  0.5004960000000  0.5039490000000 1.0
C      1  0.5194900000000  0.5149220000000  0.5385160000000 1.0
C      1  0.4963400000000  0.5024780000000  0.4542020000000 1.0
C      1  0.5333750000000  0.4802870000000  0.4932050000000 1.0
C      1  0.5201160000000  0.5112170000000  0.4610420000000 1.0
C      1  0.4821400000000  0.4599780000000  0.4806920000000 1.0
C      1  0.5074660000000  0.5321900000000  0.4772360000000 1.0
C      1  0.4902260000000  0.5329230000000  0.5206420000000 1.0
C      1  0.4982960000000  0.5012630000000  0.5468330000000 1.0
C      1  0.5360880000000  0.5168490000000  0.5151650000000 1.0
C      1  0.4924620000000  0.5305700000000  0.4750150000000 1.0
C      1  0.4655300000000  0.5255530000000  0.5106240000000 1.0
C      1  0.4640430000000  0.4744370000000  0.4854610000000 1.0
C      1  0.5047690000000  0.5303220000000  0.5247080000000 1.0
C      1  0.5164420000000  0.4609780000000  0.4780600000000 1.0
C      1  0.5359590000000  0.4807740000000  0.5069430000000 1.0
C      1  0.4883750000000  0.4719880000000  0.5177540000000 1.0
C      1  0.4646590000000  0.4767150000000  0.5135730000000 1.0
C      1  0.5320650000000  0.5155900000000  0.4857790000000 1.0
C      1  0.4780120000000  0.5152700000000  0.5380470000000 1.0
C      1  0.5233860000000  0.4819630000000  0.5355000000000 1.0
C      1  0.4735100000000  0.5207910000000  0.4648380000000 1.0
C      1  0.5248600000000  0.4846280000000  0.4637730000000 1.0
END
