TITL C240-36796 -2.52935808322033 1000000 -1677.50666014562 0 0 240 (Ih) n - 1
REM
REM in /home/chem/mssmkc/work/CARBON/AIRSS/Generating-Clusters/Str-Search/GAP20/LAMMPS-RUNS
REM
REM
REM
REM
REM
REM C240.cell (9e00fb6fd57b3539bedcc89e4d3e52ff)
REM
REM
REM
REM
REM
CELL 1.54180  100.00000  100.00000  100.00000   90.00000   90.00000   90.00000
LATT -1
SFAC C  
C      1  0.5196810000000  0.4219820000000  0.5511560000000 1.0
C      1  0.5780190000000  0.5511520000000  0.5196870000000 1.0
C      1  0.5391310000000  0.5271160000000  0.4173890000000 1.0
C      1  0.4052220000000  0.5072790000000  0.5074300000000 1.0
C      1  0.5826120000000  0.4608700000000  0.4728850000000 1.0
C      1  0.4927220000000  0.5074340000000  0.5947780000000 1.0
C      1  0.4173880000000  0.5391300000000  0.5271150000000 1.0
C      1  0.4608760000000  0.5271180000000  0.4173860000000 1.0
C      1  0.4488490000000  0.5196860000000  0.4219800000000 1.0
C      1  0.5556500000000  0.5314570000000  0.5707440000000 1.0
C      1  0.5196840000000  0.4219800000000  0.4488470000000 1.0
C      1  0.4292570000000  0.4443510000000  0.4685410000000 1.0
C      1  0.5511570000000  0.5196830000000  0.4219830000000 1.0
C      1  0.5271170000000  0.4173870000000  0.4608740000000 1.0
C      1  0.4803160000000  0.5780200000000  0.5511530000000 1.0
C      1  0.4488480000000  0.4803150000000  0.4219800000000 1.0
C      1  0.4728860000000  0.5826120000000  0.4608710000000 1.0
C      1  0.5780210000000  0.5511510000000  0.4803160000000 1.0
C      1  0.4173860000000  0.4608750000000  0.5271160000000 1.0
C      1  0.4219790000000  0.4488490000000  0.5196840000000 1.0
C      1  0.4728830000000  0.5826130000000  0.5391260000000 1.0
C      1  0.4219810000000  0.4488480000000  0.4803130000000 1.0
C      1  0.4608690000000  0.4728840000000  0.5826110000000 1.0
C      1  0.4925700000000  0.5947790000000  0.4927230000000 1.0
C      1  0.4803110000000  0.4219830000000  0.5511550000000 1.0
C      1  0.4292550000000  0.4443520000000  0.5314570000000 1.0
C      1  0.5753390000000  0.5436210000000  0.4611110000000 1.0
C      1  0.5707450000000  0.5556480000000  0.4685430000000 1.0
C      1  0.4608740000000  0.4728820000000  0.4173870000000 1.0
C      1  0.5947780000000  0.4927210000000  0.5074360000000 1.0
C      1  0.4173900000000  0.5391300000000  0.4728790000000 1.0
C      1  0.5072730000000  0.4925680000000  0.5947790000000 1.0
C      1  0.5826100000000  0.4608700000000  0.5271210000000 1.0
C      1  0.5388870000000  0.4246630000000  0.5436260000000 1.0
C      1  0.5947780000000  0.5072730000000  0.5074360000000 1.0
C      1  0.4052220000000  0.5072790000000  0.4925640000000 1.0
C      1  0.5780170000000  0.4488430000000  0.4803180000000 1.0
C      1  0.5391240000000  0.4728820000000  0.5826140000000 1.0
C      1  0.5314540000000  0.4292570000000  0.5556530000000 1.0
C      1  0.5436230000000  0.5388900000000  0.5753370000000 1.0
C      1  0.5196890000000  0.5780170000000  0.4488460000000 1.0
C      1  0.5707420000000  0.4443470000000  0.4685450000000 1.0
C      1  0.4443520000000  0.5314590000000  0.4292560000000 1.0
C      1  0.4246640000000  0.5436270000000  0.5388880000000 1.0
C      1  0.4803140000000  0.4219820000000  0.4488460000000 1.0
C      1  0.5314590000000  0.5707420000000  0.5556510000000 1.0
C      1  0.4563720000000  0.4611110000000  0.5753350000000 1.0
C      1  0.5391260000000  0.5271180000000  0.5826130000000 1.0
C      1  0.5826130000000  0.5391250000000  0.5271200000000 1.0
C      1  0.4219840000000  0.5511560000000  0.4803120000000 1.0
C      1  0.4608710000000  0.5271200000000  0.5826110000000 1.0
C      1  0.4685430000000  0.5707440000000  0.5556490000000 1.0
C      1  0.5947790000000  0.5072730000000  0.4925700000000 1.0
C      1  0.4611100000000  0.5753380000000  0.5436220000000 1.0
C      1  0.4052220000000  0.4927270000000  0.4925640000000 1.0
C      1  0.4052210000000  0.4927270000000  0.5074300000000 1.0
C      1  0.5556520000000  0.4685390000000  0.4292600000000 1.0
C      1  0.5707400000000  0.4443470000000  0.5314610000000 1.0
C      1  0.5314620000000  0.5707410000000  0.4443490000000 1.0
C      1  0.4563750000000  0.5388930000000  0.5753340000000 1.0
C      1  0.5074360000000  0.5947780000000  0.4927230000000 1.0
C      1  0.4443480000000  0.5314610000000  0.5707400000000 1.0
C      1  0.4246660000000  0.5436260000000  0.4611060000000 1.0
C      1  0.5436250000000  0.4611070000000  0.4246660000000 1.0
C      1  0.5388920000000  0.5753360000000  0.5436240000000 1.0
C      1  0.5388900000000  0.4246620000000  0.4563780000000 1.0
C      1  0.4611080000000  0.4246640000000  0.4563760000000 1.0
C      1  0.4685410000000  0.4292580000000  0.4443490000000 1.0
C      1  0.5196860000000  0.5780180000000  0.5511540000000 1.0
C      1  0.5074300000000  0.4052220000000  0.5072770000000 1.0
C      1  0.4925700000000  0.5947790000000  0.5072750000000 1.0
C      1  0.5436210000000  0.4611090000000  0.5753380000000 1.0
C      1  0.4925640000000  0.4052220000000  0.4927250000000 1.0
C      1  0.5074300000000  0.4052210000000  0.4927250000000 1.0
C      1  0.4292580000000  0.5556530000000  0.5314550000000 1.0
C      1  0.5556480000000  0.4685410000000  0.5707440000000 1.0
C      1  0.5947780000000  0.4927210000000  0.4925700000000 1.0
C      1  0.4803190000000  0.5780180000000  0.4488440000000 1.0
C      1  0.5511510000000  0.4803140000000  0.5780200000000 1.0
C      1  0.4219830000000  0.5511570000000  0.5196820000000 1.0
C      1  0.4685460000000  0.5707430000000  0.4443470000000 1.0
C      1  0.4563770000000  0.4611100000000  0.4246630000000 1.0
C      1  0.4443500000000  0.4685430000000  0.4292560000000 1.0
C      1  0.5511520000000  0.5196850000000  0.5780200000000 1.0
C      1  0.5271140000000  0.4173880000000  0.5391290000000 1.0
C      1  0.4488440000000  0.5196880000000  0.5780170000000 1.0
C      1  0.5753360000000  0.4563730000000  0.4611120000000 1.0
C      1  0.4563790000000  0.5388910000000  0.4246620000000 1.0
C      1  0.5388950000000  0.5753340000000  0.4563760000000 1.0
C      1  0.5780160000000  0.4488440000000  0.5196880000000 1.0
C      1  0.5707430000000  0.5556490000000  0.5314590000000 1.0
C      1  0.4246640000000  0.4563780000000  0.4611070000000 1.0
C      1  0.5391290000000  0.4728800000000  0.4173890000000 1.0
C      1  0.5511560000000  0.4803120000000  0.4219830000000 1.0
C      1  0.4443460000000  0.4685450000000  0.5707410000000 1.0
C      1  0.5314570000000  0.4292560000000  0.4443510000000 1.0
C      1  0.5436280000000  0.5388890000000  0.4246650000000 1.0
C      1  0.5556540000000  0.5314550000000  0.4292590000000 1.0
C      1  0.4488430000000  0.4803170000000  0.5780170000000 1.0
C      1  0.4685380000000  0.4292590000000  0.5556510000000 1.0
C      1  0.4611060000000  0.4246660000000  0.5436240000000 1.0
C      1  0.4611130000000  0.5753370000000  0.4563740000000 1.0
C      1  0.5072790000000  0.5074310000000  0.4052220000000 1.0
C      1  0.5753340000000  0.4563740000000  0.5388940000000 1.0
C      1  0.4927210000000  0.4925690000000  0.5947780000000 1.0
C      1  0.4173870000000  0.4608750000000  0.4728800000000 1.0
C      1  0.4246610000000  0.4563790000000  0.5388890000000 1.0
C      1  0.4927270000000  0.5074320000000  0.4052210000000 1.0
C      1  0.4292600000000  0.5556530000000  0.4685390000000 1.0
C      1  0.5072730000000  0.5074340000000  0.5947780000000 1.0
C      1  0.5826140000000  0.5391250000000  0.4728840000000 1.0
C      1  0.5753360000000  0.5436220000000  0.5388930000000 1.0
C      1  0.5072780000000  0.4925660000000  0.4052220000000 1.0
C      1  0.5271200000000  0.5826120000000  0.5391270000000 1.0
C      1  0.4728780000000  0.4173890000000  0.5391280000000 1.0
C      1  0.5271220000000  0.5826110000000  0.4608720000000 1.0
C      1  0.5074360000000  0.5947780000000  0.5072750000000 1.0
C      1  0.4925640000000  0.4052220000000  0.5072770000000 1.0
C      1  0.4728800000000  0.4173880000000  0.4608730000000 1.0
C      1  0.4927270000000  0.4925660000000  0.4052220000000 1.0
C      1  0.5275260000000  0.5227320000000  0.5885360000000 1.0
C      1  0.4772700000000  0.5885360000000  0.5275260000000 1.0
C      1  0.4835490000000  0.5924150000000  0.4826280000000 1.0
C      1  0.4656120000000  0.4390070000000  0.5648870000000 1.0
C      1  0.5173740000000  0.5164530000000  0.4075850000000 1.0
C      1  0.5609960000000  0.5648860000000  0.5343850000000 1.0
C      1  0.4826260000000  0.4835470000000  0.5924150000000 1.0
C      1  0.5164580000000  0.5924140000000  0.4826290000000 1.0
C      1  0.4114650000000  0.5275310000000  0.5227290000000 1.0
C      1  0.5508350000000  0.4288340000000  0.5382660000000 1.0
C      1  0.5275310000000  0.5227300000000  0.4114650000000 1.0
C      1  0.4617330000000  0.4491640000000  0.5711640000000 1.0
C      1  0.5885360000000  0.5275250000000  0.5227340000000 1.0
C      1  0.5924140000000  0.4826270000000  0.5164570000000 1.0
C      1  0.4724690000000  0.4772700000000  0.5885350000000 1.0
C      1  0.4114630000000  0.4724750000000  0.5227300000000 1.0
C      1  0.4075850000000  0.5173740000000  0.5164520000000 1.0
C      1  0.4772720000000  0.5885360000000  0.4724700000000 1.0
C      1  0.4826270000000  0.5164560000000  0.5924140000000 1.0
C      1  0.5227280000000  0.4114640000000  0.5275300000000 1.0
C      1  0.4075860000000  0.5173730000000  0.4835430000000 1.0
C      1  0.5227300000000  0.4114640000000  0.4724740000000 1.0
C      1  0.5164510000000  0.4075850000000  0.5173720000000 1.0
C      1  0.4351120000000  0.5343860000000  0.5609930000000 1.0
C      1  0.4724700000000  0.5227340000000  0.5885340000000 1.0
C      1  0.4617370000000  0.4491620000000  0.4288350000000 1.0
C      1  0.5783640000000  0.4458460000000  0.5062800000000 1.0
C      1  0.5382630000000  0.5508380000000  0.5711650000000 1.0
C      1  0.5164520000000  0.4075840000000  0.4826310000000 1.0
C      1  0.5343840000000  0.5609950000000  0.5648880000000 1.0
C      1  0.4826320000000  0.4835450000000  0.4075850000000 1.0
C      1  0.4390020000000  0.4351150000000  0.5343830000000 1.0
C      1  0.5173680000000  0.5164550000000  0.5924150000000 1.0
C      1  0.4937220000000  0.4216340000000  0.4458490000000 1.0
C      1  0.5343800000000  0.4390040000000  0.5648890000000 1.0
C      1  0.4656160000000  0.4390050000000  0.4351120000000 1.0
C      1  0.4772660000000  0.4114650000000  0.4724730000000 1.0
C      1  0.4835420000000  0.4075860000000  0.5173710000000 1.0
C      1  0.4288330000000  0.4617390000000  0.5508370000000 1.0
C      1  0.4458460000000  0.4937250000000  0.5783640000000 1.0
C      1  0.5275300000000  0.4772660000000  0.4114660000000 1.0
C      1  0.5382600000000  0.4491610000000  0.5711670000000 1.0
C      1  0.4491610000000  0.4288360000000  0.4617360000000 1.0
C      1  0.4216330000000  0.4458510000000  0.4937210000000 1.0
C      1  0.4724760000000  0.5227320000000  0.4114640000000 1.0
C      1  0.4288350000000  0.5382660000000  0.5508360000000 1.0
C      1  0.5541500000000  0.5062770000000  0.5783670000000 1.0
C      1  0.4835480000000  0.5924160000000  0.5173690000000 1.0
C      1  0.5173670000000  0.4835460000000  0.5924160000000 1.0
C      1  0.5227350000000  0.5885340000000  0.4724720000000 1.0
C      1  0.5164570000000  0.5924150000000  0.5173700000000 1.0
C      1  0.5711640000000  0.5382620000000  0.5508400000000 1.0
C      1  0.5343840000000  0.4390030000000  0.4351140000000 1.0
C      1  0.5062810000000  0.5783650000000  0.4458480000000 1.0
C      1  0.4656200000000  0.5609960000000  0.4351110000000 1.0
C      1  0.4656160000000  0.5609970000000  0.5648850000000 1.0
C      1  0.5508420000000  0.5711630000000  0.4617370000000 1.0
C      1  0.5382640000000  0.4491600000000  0.4288370000000 1.0
C      1  0.4288380000000  0.5382650000000  0.4491590000000 1.0
C      1  0.5541490000000  0.4937220000000  0.5783680000000 1.0
C      1  0.5648870000000  0.5343820000000  0.5609970000000 1.0
C      1  0.4491590000000  0.4288370000000  0.5382630000000 1.0
C      1  0.4216320000000  0.4458510000000  0.5062760000000 1.0
C      1  0.4458510000000  0.5062780000000  0.4216320000000 1.0
C      1  0.4937270000000  0.5783650000000  0.4458470000000 1.0
C      1  0.4937190000000  0.4216350000000  0.5541520000000 1.0
C      1  0.5062730000000  0.4216350000000  0.5541530000000 1.0
C      1  0.5711650000000  0.4617340000000  0.4491640000000 1.0
C      1  0.5275240000000  0.4772680000000  0.5885360000000 1.0
C      1  0.5648880000000  0.4656130000000  0.4390070000000 1.0
C      1  0.4351160000000  0.5343850000000  0.4390020000000 1.0
C      1  0.4458460000000  0.5062800000000  0.5783640000000 1.0
C      1  0.4351100000000  0.4656190000000  0.5609940000000 1.0
C      1  0.5648840000000  0.4656150000000  0.5609980000000 1.0
C      1  0.4617400000000  0.5508380000000  0.4288340000000 1.0
C      1  0.5508390000000  0.5711640000000  0.5382640000000 1.0
C      1  0.5343880000000  0.5609930000000  0.4351130000000 1.0
C      1  0.4724740000000  0.4772680000000  0.4114640000000 1.0
C      1  0.5885350000000  0.4724690000000  0.4772710000000 1.0
C      1  0.5227340000000  0.5885350000000  0.5275270000000 1.0
C      1  0.5711670000000  0.5382610000000  0.4491630000000 1.0
C      1  0.5541540000000  0.5062750000000  0.4216360000000 1.0
C      1  0.4491650000000  0.5711660000000  0.4617340000000 1.0
C      1  0.5885370000000  0.5275250000000  0.4772700000000 1.0
C      1  0.5924150000000  0.4826260000000  0.4835480000000 1.0
C      1  0.4114660000000  0.5275300000000  0.4772650000000 1.0
C      1  0.5783670000000  0.5541490000000  0.5062790000000 1.0
C      1  0.5541540000000  0.4937200000000  0.4216360000000 1.0
C      1  0.4937230000000  0.5783670000000  0.5541500000000 1.0
C      1  0.4772650000000  0.4114660000000  0.5275280000000 1.0
C      1  0.5382670000000  0.5508360000000  0.4288360000000 1.0
C      1  0.4216360000000  0.5541540000000  0.5062740000000 1.0
C      1  0.4835430000000  0.4075850000000  0.4826300000000 1.0
C      1  0.5885340000000  0.4724700000000  0.5227350000000 1.0
C      1  0.4491630000000  0.5711670000000  0.5382610000000 1.0
C      1  0.4288360000000  0.4617380000000  0.4491600000000 1.0
C      1  0.4458500000000  0.4937230000000  0.4216330000000 1.0
C      1  0.5508370000000  0.4288330000000  0.4617390000000 1.0
C      1  0.4114640000000  0.4724750000000  0.4772660000000 1.0
C      1  0.5711620000000  0.4617350000000  0.5508410000000 1.0
C      1  0.5062770000000  0.4216330000000  0.4458490000000 1.0
C      1  0.5062780000000  0.5783660000000  0.5541510000000 1.0
C      1  0.4390080000000  0.5648890000000  0.4656140000000 1.0
C      1  0.5783680000000  0.5541490000000  0.4937240000000 1.0
C      1  0.5609920000000  0.4351110000000  0.5343860000000 1.0
C      1  0.4826330000000  0.5164540000000  0.4075840000000 1.0
C      1  0.4216360000000  0.5541540000000  0.4937200000000 1.0
C      1  0.5609980000000  0.5648850000000  0.4656170000000 1.0
C      1  0.4617360000000  0.5508400000000  0.5711630000000 1.0
C      1  0.4390060000000  0.5648900000000  0.5343810000000 1.0
C      1  0.5173730000000  0.4835440000000  0.4075860000000 1.0
C      1  0.5783640000000  0.4458460000000  0.4937250000000 1.0
C      1  0.4390040000000  0.4351140000000  0.4656150000000 1.0
C      1  0.5924160000000  0.5173680000000  0.4835480000000 1.0
C      1  0.4075850000000  0.4826320000000  0.4835430000000 1.0
C      1  0.5924150000000  0.5173680000000  0.5164570000000 1.0
C      1  0.5648900000000  0.5343810000000  0.4390060000000 1.0
C      1  0.4351130000000  0.4656180000000  0.4390030000000 1.0
C      1  0.4075840000000  0.4826320000000  0.5164520000000 1.0
C      1  0.5609940000000  0.4351100000000  0.4656190000000 1.0
END
