TITL C-102688-8074-191 26.4325943309823 1000000 -1654.11344693725 0 0 240 (Th) n - 1
REM
REM in /home/chem/mssmkc/work/GAP20/Larger-Clusters/Only-C240-new-series
REM
REM
REM
REM
REM
REM ./C.cell (0485df7495ed2a90f93db84a705cd676)
REM
REM compiler GCC version 8.3.0
REM options -cpp -mtune=generic -march=x86-64 -g -O0
REM seed -2031319306 -1536201568 -1807586189 920358406 643935857 1114520179 -888572144 1788168254 -369930005 209041663 1360150885 127275923 1058017848 111182688 1373073620 -1142047511 -564261420 1560260621 -1917877080 -1230536455 -555768124 -2008078973 2066850968 -380753357 1129145371 -181332668 1093446942 1665673320 -1738051790 472214789 -1380149176 2136326855 64403711
REM
CELL 1.54180  100.00000  100.00000  100.00000   90.00000   90.00000   90.00000
LATT -1
SFAC C  
C      1  0.4705140000000  0.5701420000000  0.4925430000000 1.0
C      1  0.4925320000000  0.4704850000000  0.5701290000000 1.0
C      1  0.5701220000000  0.4925080000000  0.4704760000000 1.0
C      1  0.5295550000000  0.5701130000000  0.5074540000000 1.0
C      1  0.4704450000000  0.4298870000000  0.5074590000000 1.0
C      1  0.5294850000000  0.4298580000000  0.4925430000000 1.0
C      1  0.5074390000000  0.4704750000000  0.4298730000000 1.0
C      1  0.4925550000000  0.5295230000000  0.4298720000000 1.0
C      1  0.5074750000000  0.5295180000000  0.5701270000000 1.0
C      1  0.4298700000000  0.4925790000000  0.5295240000000 1.0
C      1  0.5701330000000  0.5074220000000  0.5295170000000 1.0
C      1  0.4298750000000  0.5074910000000  0.4704830000000 1.0
C      1  0.4704450000000  0.4298870000000  0.4925460000000 1.0
C      1  0.4925620000000  0.5295250000000  0.5701270000000 1.0
C      1  0.5701300000000  0.5074210000000  0.4704760000000 1.0
C      1  0.5294860000000  0.4298580000000  0.5074570000000 1.0
C      1  0.4705150000000  0.5701420000000  0.5074570000000 1.0
C      1  0.5295550000000  0.5701130000000  0.4925400000000 1.0
C      1  0.5074680000000  0.5295150000000  0.4298720000000 1.0
C      1  0.4925250000000  0.4704820000000  0.4298730000000 1.0
C      1  0.5074450000000  0.4704770000000  0.5701280000000 1.0
C      1  0.4298780000000  0.5074920000000  0.5295240000000 1.0
C      1  0.5701250000000  0.4925090000000  0.5295170000000 1.0
C      1  0.4298670000000  0.4925780000000  0.4704830000000 1.0
C      1  0.5245600000000  0.4840550000000  0.4735940000000 1.0
C      1  0.4736060000000  0.5245830000000  0.4840690000000 1.0
C      1  0.4840560000000  0.4736030000000  0.5245710000000 1.0
C      1  0.4754230000000  0.4840810000000  0.5264070000000 1.0
C      1  0.5245790000000  0.5159200000000  0.5264040000000 1.0
C      1  0.4754370000000  0.5159440000000  0.4735960000000 1.0
C      1  0.5264180000000  0.5245570000000  0.5159300000000 1.0
C      1  0.4735830000000  0.4754440000000  0.5159340000000 1.0
C      1  0.5263920000000  0.4754170000000  0.4840670000000 1.0
C      1  0.5159180000000  0.4735860000000  0.4754300000000 1.0
C      1  0.4840800000000  0.5264120000000  0.4754300000000 1.0
C      1  0.5159470000000  0.5263980000000  0.5245690000000 1.0
C      1  0.5245770000000  0.5159190000000  0.4735940000000 1.0
C      1  0.4735820000000  0.4754430000000  0.4840700000000 1.0
C      1  0.4840820000000  0.5264130000000  0.5245700000000 1.0
C      1  0.4754390000000  0.5159450000000  0.5264060000000 1.0
C      1  0.5245630000000  0.4840560000000  0.5264040000000 1.0
C      1  0.4754210000000  0.4840800000000  0.4735960000000 1.0
C      1  0.5263930000000  0.4754170000000  0.5159310000000 1.0
C      1  0.4736080000000  0.5245830000000  0.5159330000000 1.0
C      1  0.5264170000000  0.5245560000000  0.4840660000000 1.0
C      1  0.5159440000000  0.5263970000000  0.4754290000000 1.0
C      1  0.4840530000000  0.4736020000000  0.4754310000000 1.0
C      1  0.5159200000000  0.4735880000000  0.5245700000000 1.0
C      1  0.4845800000000  0.4269950000000  0.5073950000000 1.0
C      1  0.5073820000000  0.4846110000000  0.4269870000000 1.0
C      1  0.4269900000000  0.5074290000000  0.4846190000000 1.0
C      1  0.5153480000000  0.4269790000000  0.4926080000000 1.0
C      1  0.4846510000000  0.5730210000000  0.4926060000000 1.0
C      1  0.5154210000000  0.5730060000000  0.5073910000000 1.0
C      1  0.4926030000000  0.4846210000000  0.5730140000000 1.0
C      1  0.5074040000000  0.5153820000000  0.5730130000000 1.0
C      1  0.4926110000000  0.5153870000000  0.4269870000000 1.0
C      1  0.5730180000000  0.5073570000000  0.5153810000000 1.0
C      1  0.4269840000000  0.4926430000000  0.5153880000000 1.0
C      1  0.5730090000000  0.4925700000000  0.4846120000000 1.0
C      1  0.4846520000000  0.5730210000000  0.5073920000000 1.0
C      1  0.5073970000000  0.5153790000000  0.4269860000000 1.0
C      1  0.4269820000000  0.4926430000000  0.4846190000000 1.0
C      1  0.5154200000000  0.5730050000000  0.4926050000000 1.0
C      1  0.4845790000000  0.4269940000000  0.4926090000000 1.0
C      1  0.5153490000000  0.4269790000000  0.5073940000000 1.0
C      1  0.4926180000000  0.5153900000000  0.5730130000000 1.0
C      1  0.5073890000000  0.4846130000000  0.5730130000000 1.0
C      1  0.4925960000000  0.4846180000000  0.4269870000000 1.0
C      1  0.5730100000000  0.4925710000000  0.5153810000000 1.0
C      1  0.4269910000000  0.5074300000000  0.5153880000000 1.0
C      1  0.5730160000000  0.5073560000000  0.4846120000000 1.0
C      1  0.5138070000000  0.4388880000000  0.4715610000000 1.0
C      1  0.4715650000000  0.5138510000000  0.4388970000000 1.0
C      1  0.4388820000000  0.4715910000000  0.5138420000000 1.0
C      1  0.4861330000000  0.4389030000000  0.5284410000000 1.0
C      1  0.5138700000000  0.5610980000000  0.5284370000000 1.0
C      1  0.4861910000000  0.5611110000000  0.4715600000000 1.0
C      1  0.5284490000000  0.5138250000000  0.5611030000000 1.0
C      1  0.4715570000000  0.4861770000000  0.5611060000000 1.0
C      1  0.5284290000000  0.4861460000000  0.4388950000000 1.0
C      1  0.5610890000000  0.4715300000000  0.4861590000000 1.0
C      1  0.4389090000000  0.5284690000000  0.4861640000000 1.0
C      1  0.5611190000000  0.5284090000000  0.5138350000000 1.0
C      1  0.5138670000000  0.5610970000000  0.4715590000000 1.0
C      1  0.4715510000000  0.4861750000000  0.4388970000000 1.0
C      1  0.4389110000000  0.5284700000000  0.5138410000000 1.0
C      1  0.4861930000000  0.5611120000000  0.5284390000000 1.0
C      1  0.5138090000000  0.4388890000000  0.5284400000000 1.0
C      1  0.4861300000000  0.4389020000000  0.4715630000000 1.0
C      1  0.5284350000000  0.4861490000000  0.5611030000000 1.0
C      1  0.4715710000000  0.5138540000000  0.5611060000000 1.0
C      1  0.5284430000000  0.5138230000000  0.4388940000000 1.0
C      1  0.5611180000000  0.5284090000000  0.4861580000000 1.0
C      1  0.4388810000000  0.4715910000000  0.4861650000000 1.0
C      1  0.5610910000000  0.4715310000000  0.5138360000000 1.0
C      1  0.4426290000000  0.4924360000000  0.4641130000000 1.0
C      1  0.4640820000000  0.4426520000000  0.4924110000000 1.0
C      1  0.4923880000000  0.4641130000000  0.4426360000000 1.0
C      1  0.5573630000000  0.4923800000000  0.5358870000000 1.0
C      1  0.4426400000000  0.5076210000000  0.5358920000000 1.0
C      1  0.5573670000000  0.5075620000000  0.4641070000000 1.0
C      1  0.5358610000000  0.4426170000000  0.5075910000000 1.0
C      1  0.4641390000000  0.5573830000000  0.5075920000000 1.0
C      1  0.5359180000000  0.5573470000000  0.4924050000000 1.0
C      1  0.5075770000000  0.4641080000000  0.5573660000000 1.0
C      1  0.4924290000000  0.5358940000000  0.5573650000000 1.0
C      1  0.5076070000000  0.5358850000000  0.4426340000000 1.0
C      1  0.4426370000000  0.5076190000000  0.4641130000000 1.0
C      1  0.4641390000000  0.5573830000000  0.4924090000000 1.0
C      1  0.4924230000000  0.5358920000000  0.4426350000000 1.0
C      1  0.5573710000000  0.5075640000000  0.5358870000000 1.0
C      1  0.4426330000000  0.4924380000000  0.5358920000000 1.0
C      1  0.5573600000000  0.4923790000000  0.4641080000000 1.0
C      1  0.5359180000000  0.5573480000000  0.5075890000000 1.0
C      1  0.4640820000000  0.4426530000000  0.5075950000000 1.0
C      1  0.5358610000000  0.4426170000000  0.4924080000000 1.0
C      1  0.5076120000000  0.5358870000000  0.5573640000000 1.0
C      1  0.4923930000000  0.4641150000000  0.5573660000000 1.0
C      1  0.5075710000000  0.4641060000000  0.4426350000000 1.0
C      1  0.5062960000000  0.4397710000000  0.4597340000000 1.0
C      1  0.4597330000000  0.5063470000000  0.4397770000000 1.0
C      1  0.4397560000000  0.4597630000000  0.5063320000000 1.0
C      1  0.4936440000000  0.4397790000000  0.5402690000000 1.0
C      1  0.5063600000000  0.5602220000000  0.5402660000000 1.0
C      1  0.4937000000000  0.5602270000000  0.4597320000000 1.0
C      1  0.5402730000000  0.5063090000000  0.5602230000000 1.0
C      1  0.4597330000000  0.4936930000000  0.5602270000000 1.0
C      1  0.5402610000000  0.4936510000000  0.4397740000000 1.0
C      1  0.5602040000000  0.4597030000000  0.4936700000000 1.0
C      1  0.4397950000000  0.5402970000000  0.4936740000000 1.0
C      1  0.5602460000000  0.5402370000000  0.5063240000000 1.0
C      1  0.5063560000000  0.5602200000000  0.4597310000000 1.0
C      1  0.4597270000000  0.4936910000000  0.4397770000000 1.0
C      1  0.4397960000000  0.5402970000000  0.5063300000000 1.0
C      1  0.4937040000000  0.5602290000000  0.5402660000000 1.0
C      1  0.5063000000000  0.4397730000000  0.5402680000000 1.0
C      1  0.4936400000000  0.4397770000000  0.4597340000000 1.0
C      1  0.5402670000000  0.4936530000000  0.5602230000000 1.0
C      1  0.4597390000000  0.5063490000000  0.5602270000000 1.0
C      1  0.5402670000000  0.5063070000000  0.4397730000000 1.0
C      1  0.5602450000000  0.5402370000000  0.4936680000000 1.0
C      1  0.4397550000000  0.4597630000000  0.4936760000000 1.0
C      1  0.5602040000000  0.4597030000000  0.5063260000000 1.0
C      1  0.5474110000000  0.4826850000000  0.5329730000000 1.0
C      1  0.5329980000000  0.5474020000000  0.4827050000000 1.0
C      1  0.4827260000000  0.5329850000000  0.5474190000000 1.0
C      1  0.4525710000000  0.4827300000000  0.4670270000000 1.0
C      1  0.5474260000000  0.5172690000000  0.4670220000000 1.0
C      1  0.4525920000000  0.5173170000000  0.5329770000000 1.0
C      1  0.4670490000000  0.5474350000000  0.5172930000000 1.0
C      1  0.5329530000000  0.4525650000000  0.5172920000000 1.0
C      1  0.4670000000000  0.4525970000000  0.4827100000000 1.0
C      1  0.5173070000000  0.5329660000000  0.4525800000000 1.0
C      1  0.4826890000000  0.4670320000000  0.4525830000000 1.0
C      1  0.5172790000000  0.4670170000000  0.5474190000000 1.0
C      1  0.5474290000000  0.5172700000000  0.5329730000000 1.0
C      1  0.5329510000000  0.4525650000000  0.4827070000000 1.0
C      1  0.4826930000000  0.4670340000000  0.5474200000000 1.0
C      1  0.4525880000000  0.5173150000000  0.4670270000000 1.0
C      1  0.5474080000000  0.4826830000000  0.4670230000000 1.0
C      1  0.4525740000000  0.4827320000000  0.5329780000000 1.0
C      1  0.4670020000000  0.4525980000000  0.5172950000000 1.0
C      1  0.5330000000000  0.5474030000000  0.5172900000000 1.0
C      1  0.4670470000000  0.5474350000000  0.4827080000000 1.0
C      1  0.5172740000000  0.4670150000000  0.4525810000000 1.0
C      1  0.4827210000000  0.5329830000000  0.4525820000000 1.0
C      1  0.5173110000000  0.5329680000000  0.5474170000000 1.0
C      1  0.5268270000000  0.5221260000000  0.4503290000000 1.0
C      1  0.4503450000000  0.5268430000000  0.5221420000000 1.0
C      1  0.5221170000000  0.4503200000000  0.5268180000000 1.0
C      1  0.4731950000000  0.5221550000000  0.5496710000000 1.0
C      1  0.5268090000000  0.4778470000000  0.5496690000000 1.0
C      1  0.4731680000000  0.4778720000000  0.4503320000000 1.0
C      1  0.5496820000000  0.5267930000000  0.4778570000000 1.0
C      1  0.4503160000000  0.4732060000000  0.4778630000000 1.0
C      1  0.5496570000000  0.4731580000000  0.5221380000000 1.0
C      1  0.4778340000000  0.4503410000000  0.4731840000000 1.0
C      1  0.5221640000000  0.5496580000000  0.4731800000000 1.0
C      1  0.4778860000000  0.5496810000000  0.5268180000000 1.0
C      1  0.5268050000000  0.4778450000000  0.4503290000000 1.0
C      1  0.4503180000000  0.4732070000000  0.5221430000000 1.0
C      1  0.5221660000000  0.5496590000000  0.5268160000000 1.0
C      1  0.4731730000000  0.4778740000000  0.5496710000000 1.0
C      1  0.5268320000000  0.5221280000000  0.5496680000000 1.0
C      1  0.4731900000000  0.5221530000000  0.4503310000000 1.0
C      1  0.5496550000000  0.4731570000000  0.4778580000000 1.0
C      1  0.4503430000000  0.5268420000000  0.4778610000000 1.0
C      1  0.5496840000000  0.5267940000000  0.5221370000000 1.0
C      1  0.4778830000000  0.5496800000000  0.4731820000000 1.0
C      1  0.5221140000000  0.4503190000000  0.4731820000000 1.0
C      1  0.4778360000000  0.4503420000000  0.5268200000000 1.0
C      1  0.5177850000000  0.5071260000000  0.4311690000000 1.0
C      1  0.4311800000000  0.5178190000000  0.5071390000000 1.0
C      1  0.5071030000000  0.4311670000000  0.5177850000000 1.0
C      1  0.4822220000000  0.5071470000000  0.5688300000000 1.0
C      1  0.5177840000000  0.4928560000000  0.5688290000000 1.0
C      1  0.4822090000000  0.4928710000000  0.4311710000000 1.0
C      1  0.5688380000000  0.5177500000000  0.4928600000000 1.0
C      1  0.4311610000000  0.4822500000000  0.4928670000000 1.0
C      1  0.5688210000000  0.4821810000000  0.5071330000000 1.0
C      1  0.4928290000000  0.4311740000000  0.4822170000000 1.0
C      1  0.5071700000000  0.5688260000000  0.4822140000000 1.0
C      1  0.4928990000000  0.5688340000000  0.5177830000000 1.0
C      1  0.5177780000000  0.4928540000000  0.4311700000000 1.0
C      1  0.4311620000000  0.4822500000000  0.5071400000000 1.0
C      1  0.5071710000000  0.5688260000000  0.5177830000000 1.0
C      1  0.4822150000000  0.4928740000000  0.5688310000000 1.0
C      1  0.5177910000000  0.5071290000000  0.5688290000000 1.0
C      1  0.4822160000000  0.5071440000000  0.4311710000000 1.0
C      1  0.5688200000000  0.4821810000000  0.4928610000000 1.0
C      1  0.4311790000000  0.5178190000000  0.4928670000000 1.0
C      1  0.5688390000000  0.5177500000000  0.5071330000000 1.0
C      1  0.4928970000000  0.5688330000000  0.4822140000000 1.0
C      1  0.5071010000000  0.4311660000000  0.4822170000000 1.0
C      1  0.4928300000000  0.4311740000000  0.5177860000000 1.0
C      1  0.5170760000000  0.4619640000000  0.5337950000000 1.0
C      1  0.5338010000000  0.5170760000000  0.4619690000000 1.0
C      1  0.4619890000000  0.5338140000000  0.5170950000000 1.0
C      1  0.4828860000000  0.4619790000000  0.4662070000000 1.0
C      1  0.5171110000000  0.5380190000000  0.4662040000000 1.0
C      1  0.4829270000000  0.5380380000000  0.5337950000000 1.0
C      1  0.4662160000000  0.5171110000000  0.5380300000000 1.0
C      1  0.5337880000000  0.4828900000000  0.5380270000000 1.0
C      1  0.4661950000000  0.4829230000000  0.4619730000000 1.0
C      1  0.5380450000000  0.5337750000000  0.4829040000000 1.0
C      1  0.4619540000000  0.4662240000000  0.4829090000000 1.0
C      1  0.5380120000000  0.4661870000000  0.5170920000000 1.0
C      1  0.5171140000000  0.5380210000000  0.5337930000000 1.0
C      1  0.5337840000000  0.4828890000000  0.4619700000000 1.0
C      1  0.4619550000000  0.4662250000000  0.5170960000000 1.0
C      1  0.4829240000000  0.5380360000000  0.4662050000000 1.0
C      1  0.5170730000000  0.4619620000000  0.4662050000000 1.0
C      1  0.4828890000000  0.4619810000000  0.5337960000000 1.0
C      1  0.4661990000000  0.4829240000000  0.5380310000000 1.0
C      1  0.5338050000000  0.5170780000000  0.5380270000000 1.0
C      1  0.4662120000000  0.5171100000000  0.4619730000000 1.0
C      1  0.5380110000000  0.4661860000000  0.4829050000000 1.0
C      1  0.4619870000000  0.5338130000000  0.4829080000000 1.0
C      1  0.5380460000000  0.5337760000000  0.5170910000000 1.0
END
