TITL C240-27114 -14.1412345832074 1000000 -1605.14852539485 0 0 240 (C1) n - 1
REM
REM in /home/chem/mssmkc/work/CARBON/AIRSS/Generating-Clusters/Str-Search/GAP20/LAMMPS-RUNS
REM
REM
REM
REM
REM
REM C240.cell (0b40c923f4fa6bff1cd8fbff7ce3c977)
REM
REM
REM
REM
REM
CELL 1.54180  100.00000  100.00000  100.00000   90.00000   90.00000   90.00000
LATT -1
SFAC C  
C      1  0.5259010000000  0.5397490000000  0.5366260000000 1.0
C      1  0.4432430000000  0.5532570000000  0.5372610000000 1.0
C      1  0.4859510000000  0.5840470000000  0.5302220000000 1.0
C      1  0.5074140000000  0.4201410000000  0.5416930000000 1.0
C      1  0.4692960000000  0.5150570000000  0.4121360000000 1.0
C      1  0.5816010000000  0.5428290000000  0.4913110000000 1.0
C      1  0.5307680000000  0.4868100000000  0.5846110000000 1.0
C      1  0.5140610000000  0.5794200000000  0.5273960000000 1.0
C      1  0.4475500000000  0.5344200000000  0.5528160000000 1.0
C      1  0.5078250000000  0.4136340000000  0.5176120000000 1.0
C      1  0.5259340000000  0.5445540000000  0.4581660000000 1.0
C      1  0.4792220000000  0.4936340000000  0.5911240000000 1.0
C      1  0.5442490000000  0.5238820000000  0.5424290000000 1.0
C      1  0.5873090000000  0.5313460000000  0.5125920000000 1.0
C      1  0.4672180000000  0.4498870000000  0.5511490000000 1.0
C      1  0.4478970000000  0.4649400000000  0.5559380000000 1.0
C      1  0.4162560000000  0.4695620000000  0.5131770000000 1.0
C      1  0.4590770000000  0.5393610000000  0.4733090000000 1.0
C      1  0.5298810000000  0.5151130000000  0.5821130000000 1.0
C      1  0.5522410000000  0.4526860000000  0.5340270000000 1.0
C      1  0.4200470000000  0.4710730000000  0.4848250000000 1.0
C      1  0.5418500000000  0.4598510000000  0.4727970000000 1.0
C      1  0.5149100000000  0.4150410000000  0.4672590000000 1.0
C      1  0.4563290000000  0.4938260000000  0.5815220000000 1.0
C      1  0.4649550000000  0.5516560000000  0.5485490000000 1.0
C      1  0.4793610000000  0.4935610000000  0.4048210000000 1.0
C      1  0.5410480000000  0.4457540000000  0.5378920000000 1.0
C      1  0.5192060000000  0.5083180000000  0.5876870000000 1.0
C      1  0.5144850000000  0.4172830000000  0.5291850000000 1.0
C      1  0.4937410000000  0.5780390000000  0.5410210000000 1.0
C      1  0.5301560000000  0.4868600000000  0.4131790000000 1.0
C      1  0.4245560000000  0.4593760000000  0.4920740000000 1.0
C      1  0.4683370000000  0.5150240000000  0.5851550000000 1.0
C      1  0.4720380000000  0.4668130000000  0.4469530000000 1.0
C      1  0.4934460000000  0.4208890000000  0.5415360000000 1.0
C      1  0.5076320000000  0.4190100000000  0.4552360000000 1.0
C      1  0.4590870000000  0.4598600000000  0.4717290000000 1.0
C      1  0.4861800000000  0.4152960000000  0.4670560000000 1.0
C      1  0.4116630000000  0.4807330000000  0.5062860000000 1.0
C      1  0.4430690000000  0.4640480000000  0.5429000000000 1.0
C      1  0.5249200000000  0.4552980000000  0.4550760000000 1.0
C      1  0.5194750000000  0.4935320000000  0.5888840000000 1.0
C      1  0.4930620000000  0.4092400000000  0.4774630000000 1.0
C      1  0.4693600000000  0.4518750000000  0.4667130000000 1.0
C      1  0.4761450000000  0.5437910000000  0.4557380000000 1.0
C      1  0.4097220000000  0.5209860000000  0.5060430000000 1.0
C      1  0.5517240000000  0.5283060000000  0.5314680000000 1.0
C      1  0.4857080000000  0.5841090000000  0.4685310000000 1.0
C      1  0.4684170000000  0.4865020000000  0.5862520000000 1.0
C      1  0.5453180000000  0.5422560000000  0.4735800000000 1.0
C      1  0.5144090000000  0.5848720000000  0.4682860000000 1.0
C      1  0.5936800000000  0.5213610000000  0.5053330000000 1.0
C      1  0.4936620000000  0.4191050000000  0.4551090000000 1.0
C      1  0.5298540000000  0.5331050000000  0.4511780000000 1.0
C      1  0.5070320000000  0.5800660000000  0.4566860000000 1.0
C      1  0.5071580000000  0.5748790000000  0.5392690000000 1.0
C      1  0.5072090000000  0.5914470000000  0.4781430000000 1.0
C      1  0.5195080000000  0.4939110000000  0.4077700000000 1.0
C      1  0.4110810000000  0.5208950000000  0.4914880000000 1.0
C      1  0.5586390000000  0.4627200000000  0.5427990000000 1.0
C      1  0.5427730000000  0.4944720000000  0.5802140000000 1.0
C      1  0.4930040000000  0.4142460000000  0.5174950000000 1.0
C      1  0.4622210000000  0.4491180000000  0.5372820000000 1.0
C      1  0.4540980000000  0.5279630000000  0.4654430000000 1.0
C      1  0.4716650000000  0.5327930000000  0.4483570000000 1.0
C      1  0.4601110000000  0.4578050000000  0.5601690000000 1.0
C      1  0.5408320000000  0.4573040000000  0.5595590000000 1.0
C      1  0.5879350000000  0.4815620000000  0.4914910000000 1.0
C      1  0.5350150000000  0.4478220000000  0.5512380000000 1.0
C      1  0.5416260000000  0.5081550000000  0.4186550000000 1.0
C      1  0.4580790000000  0.4934920000000  0.4166890000000 1.0
C      1  0.4388960000000  0.5409630000000  0.5440440000000 1.0
C      1  0.4563490000000  0.5076960000000  0.5814000000000 1.0
C      1  0.5425410000000  0.5083900000000  0.5794840000000 1.0
C      1  0.4791790000000  0.5082610000000  0.4051580000000 1.0
C      1  0.5072200000000  0.5867010000000  0.5178060000000 1.0
C      1  0.4930900000000  0.5801480000000  0.4565150000000 1.0
C      1  0.4761530000000  0.4554270000000  0.4540140000000 1.0
C      1  0.5399340000000  0.4751180000000  0.4533290000000 1.0
C      1  0.5463960000000  0.5392970000000  0.5229420000000 1.0
C      1  0.5929740000000  0.5213020000000  0.4906510000000 1.0
C      1  0.5495500000000  0.5301690000000  0.4660670000000 1.0
C      1  0.4925100000000  0.5911110000000  0.4783710000000 1.0
C      1  0.5420840000000  0.5257940000000  0.4550400000000 1.0
C      1  0.5859940000000  0.5311330000000  0.4837860000000 1.0
C      1  0.4601330000000  0.5248040000000  0.4532650000000 1.0
C      1  0.5337710000000  0.5446480000000  0.5253040000000 1.0
C      1  0.5460440000000  0.4718550000000  0.4654170000000 1.0
C      1  0.4610310000000  0.5401540000000  0.5549530000000 1.0
C      1  0.4507070000000  0.4555660000000  0.5335020000000 1.0
C      1  0.5192580000000  0.5087930000000  0.4085230000000 1.0
C      1  0.4558650000000  0.5586910000000  0.5391840000000 1.0
C      1  0.4865090000000  0.4187540000000  0.5288250000000 1.0
C      1  0.5527680000000  0.4648640000000  0.5552450000000 1.0
C      1  0.4924170000000  0.5882660000000  0.5186560000000 1.0
C      1  0.4132790000000  0.4811280000000  0.4914830000000 1.0
C      1  0.4545970000000  0.4716790000000  0.4642330000000 1.0
C      1  0.5077610000000  0.4090360000000  0.4775230000000 1.0
C      1  0.4607600000000  0.4749370000000  0.4521670000000 1.0
C      1  0.5895740000000  0.4811900000000  0.5062890000000 1.0
C      1  0.5288180000000  0.4667880000000  0.4481320000000 1.0
C      1  0.5310090000000  0.5298940000000  0.5450030000000 1.0
C      1  0.4215990000000  0.5427050000000  0.5060420000000 1.0
C      1  0.5338110000000  0.5492880000000  0.4697380000000 1.0
C      1  0.5769510000000  0.4595870000000  0.4921800000000 1.0
C      1  0.5295820000000  0.5154970000000  0.4148790000000 1.0
C      1  0.4696170000000  0.5471810000000  0.4685600000000 1.0
C      1  0.5821190000000  0.5428470000000  0.5052310000000 1.0
C      1  0.4791680000000  0.5082610000000  0.5905780000000 1.0
C      1  0.4240600000000  0.5415510000000  0.4924540000000 1.0
C      1  0.4696400000000  0.4862440000000  0.4115240000000 1.0
C      1  0.5317340000000  0.4516680000000  0.4677230000000 1.0
C      1  0.4224370000000  0.4586340000000  0.5057930000000 1.0
C      1  0.5810260000000  0.4714940000000  0.4849920000000 1.0
C      1  0.4189780000000  0.5302580000000  0.4849180000000 1.0
C      1  0.5851820000000  0.4699550000000  0.5132020000000 1.0
C      1  0.5418180000000  0.4942270000000  0.4179860000000 1.0
C      1  0.4578740000000  0.5074000000000  0.4170050000000 1.0
C      1  0.4152140000000  0.5313960000000  0.5133470000000 1.0
C      1  0.5796040000000  0.4586580000000  0.5058230000000 1.0
C      1  0.5456410000000  0.5173950000000  0.5685880000000 1.0
C      1  0.4818820000000  0.5726920000000  0.5470550000000 1.0
C      1  0.5074720000000  0.5951310000000  0.4918570000000 1.0
C      1  0.4719520000000  0.4396920000000  0.5335560000000 1.0
C      1  0.5056440000000  0.4934250000000  0.4061210000000 1.0
C      1  0.5642360000000  0.5287810000000  0.5251770000000 1.0
C      1  0.4929540000000  0.5085650000000  0.5940520000000 1.0
C      1  0.4922580000000  0.5951540000000  0.4921300000000 1.0
C      1  0.4274040000000  0.5475310000000  0.5178040000000 1.0
C      1  0.5247720000000  0.4386160000000  0.5483550000000 1.0
C      1  0.5443350000000  0.5169830000000  0.4296000000000 1.0
C      1  0.4469900000000  0.4714750000000  0.5685450000000 1.0
C      1  0.5715870000000  0.5449450000000  0.5147360000000 1.0
C      1  0.5904670000000  0.4952700000000  0.4910720000000 1.0
C      1  0.4520150000000  0.4826030000000  0.5743710000000 1.0
C      1  0.4291790000000  0.4541950000000  0.5176400000000 1.0
C      1  0.4064420000000  0.5074700000000  0.4909830000000 1.0
C      1  0.4840620000000  0.5694490000000  0.4535130000000 1.0
C      1  0.4930050000000  0.4932550000000  0.5946030000000 1.0
C      1  0.5192670000000  0.4262020000000  0.5472980000000 1.0
C      1  0.4053020000000  0.5074290000000  0.5062440000000 1.0
C      1  0.5169030000000  0.4295580000000  0.4522470000000 1.0
C      1  0.4926030000000  0.4128780000000  0.5035510000000 1.0
C      1  0.4644590000000  0.5304230000000  0.5644750000000 1.0
C      1  0.4508550000000  0.5189730000000  0.5744270000000 1.0
C      1  0.4595730000000  0.4820320000000  0.4401770000000 1.0
C      1  0.5795360000000  0.4651360000000  0.5255630000000 1.0
C      1  0.5442710000000  0.5175050000000  0.5549930000000 1.0
C      1  0.4927070000000  0.4066430000000  0.4915000000000 1.0
C      1  0.5253010000000  0.5560070000000  0.5238170000000 1.0
C      1  0.4929360000000  0.5087820000000  0.4014220000000 1.0
C      1  0.4336920000000  0.4673800000000  0.5328210000000 1.0
C      1  0.5055450000000  0.4928110000000  0.5895780000000 1.0
C      1  0.4768350000000  0.4260000000000  0.4643650000000 1.0
C      1  0.5316170000000  0.4360920000000  0.5343750000000 1.0
C      1  0.4753740000000  0.4392690000000  0.4671960000000 1.0
C      1  0.4844630000000  0.4296470000000  0.4518120000000 1.0
C      1  0.5083030000000  0.4123720000000  0.5036610000000 1.0
C      1  0.4411570000000  0.4571820000000  0.5234470000000 1.0
C      1  0.4644840000000  0.4752320000000  0.5789570000000 1.0
C      1  0.5442810000000  0.4845850000000  0.4283220000000 1.0
C      1  0.5523110000000  0.4728100000000  0.5669710000000 1.0
C      1  0.4826660000000  0.4430240000000  0.4535430000000 1.0
C      1  0.4300250000000  0.4691450000000  0.4746270000000 1.0
C      1  0.4555460000000  0.5164480000000  0.4278920000000 1.0
C      1  0.4315430000000  0.5533760000000  0.5292720000000 1.0
C      1  0.5323460000000  0.5239910000000  0.5711770000000 1.0
C      1  0.5071730000000  0.5894390000000  0.5041270000000 1.0
C      1  0.5053180000000  0.5085600000000  0.5886450000000 1.0
C      1  0.5164670000000  0.5695530000000  0.4542700000000 1.0
C      1  0.4918140000000  0.5902290000000  0.5047650000000 1.0
C      1  0.5586740000000  0.5410640000000  0.5165700000000 1.0
C      1  0.5257940000000  0.4389980000000  0.4680270000000 1.0
C      1  0.5242450000000  0.5743500000000  0.4663230000000 1.0
C      1  0.4760840000000  0.5596450000000  0.4693010000000 1.0
C      1  0.4659000000000  0.5679000000000  0.5356550000000 1.0
C      1  0.5185930000000  0.5564630000000  0.4574610000000 1.0
C      1  0.5409960000000  0.4822730000000  0.4413440000000 1.0
C      1  0.4476870000000  0.5391650000000  0.4816690000000 1.0
C      1  0.5342380000000  0.4761450000000  0.5764070000000 1.0
C      1  0.5301640000000  0.5240650000000  0.5576880000000 1.0
C      1  0.4778480000000  0.4409910000000  0.5480620000000 1.0
C      1  0.4223210000000  0.4652540000000  0.5255350000000 1.0
C      1  0.4674060000000  0.5244640000000  0.4229950000000 1.0
C      1  0.4767320000000  0.5730150000000  0.4662390000000 1.0
C      1  0.4753360000000  0.4264100000000  0.5333020000000 1.0
C      1  0.5263450000000  0.4235640000000  0.5340610000000 1.0
C      1  0.5531830000000  0.4604890000000  0.4812260000000 1.0
C      1  0.5468990000000  0.4842310000000  0.5716980000000 1.0
C      1  0.5285370000000  0.4736990000000  0.4359740000000 1.0
C      1  0.4715380000000  0.5263530000000  0.4358900000000 1.0
C      1  0.4638390000000  0.5263630000000  0.5775400000000 1.0
C      1  0.4596910000000  0.4640460000000  0.5730300000000 1.0
C      1  0.5398760000000  0.4649000000000  0.5715420000000 1.0
C      1  0.4588910000000  0.5181460000000  0.4409960000000 1.0
C      1  0.5171980000000  0.5509640000000  0.5360180000000 1.0
C      1  0.5266840000000  0.5614390000000  0.4702680000000 1.0
C      1  0.4559750000000  0.4839890000000  0.4271880000000 1.0
C      1  0.5664420000000  0.4570800000000  0.4826120000000 1.0
C      1  0.5163970000000  0.5639490000000  0.5407440000000 1.0
C      1  0.5575300000000  0.5428630000000  0.4804450000000 1.0
C      1  0.5317910000000  0.5245730000000  0.4257860000000 1.0
C      1  0.4829640000000  0.5560350000000  0.4554640000000 1.0
C      1  0.5707800000000  0.5454470000000  0.4822840000000 1.0
C      1  0.5917430000000  0.4950550000000  0.5064970000000 1.0
C      1  0.4347430000000  0.5435980000000  0.4831130000000 1.0
C      1  0.5768940000000  0.5331420000000  0.5225770000000 1.0
C      1  0.5323320000000  0.4767780000000  0.4232540000000 1.0
C      1  0.4736970000000  0.5790680000000  0.5358590000000 1.0
C      1  0.4820860000000  0.4280180000000  0.5468860000000 1.0
C      1  0.5421810000000  0.5185330000000  0.4429820000000 1.0
C      1  0.4217520000000  0.5354240000000  0.5250750000000 1.0
C      1  0.5079470000000  0.4063100000000  0.4915350000000 1.0
C      1  0.5736690000000  0.4534170000000  0.5177760000000 1.0
C      1  0.4750440000000  0.5610030000000  0.5463290000000 1.0
C      1  0.4478290000000  0.4603200000000  0.4802170000000 1.0
C      1  0.4679190000000  0.4763050000000  0.4219820000000 1.0
C      1  0.5185000000000  0.4428950000000  0.4543560000000 1.0
C      1  0.4346970000000  0.4568080000000  0.4821540000000 1.0
C      1  0.5616730000000  0.4546600000000  0.5239920000000 1.0
C      1  0.5243440000000  0.4257890000000  0.4648710000000 1.0
C      1  0.5238220000000  0.5689270000000  0.5284580000000 1.0
C      1  0.4423970000000  0.5270270000000  0.4734930000000 1.0
C      1  0.5750820000000  0.5332290000000  0.4744630000000 1.0
C      1  0.5680130000000  0.4660960000000  0.5328200000000 1.0
C      1  0.4931020000000  0.4935780000000  0.4009770000000 1.0
C      1  0.4295490000000  0.5317650000000  0.4751690000000 1.0
C      1  0.5619540000000  0.5297200000000  0.4726630000000 1.0
C      1  0.4504160000000  0.5238030000000  0.5616790000000 1.0
C      1  0.4266500000000  0.5407350000000  0.5365550000000 1.0
C      1  0.5053970000000  0.5089450000000  0.4067660000000 1.0
C      1  0.5707300000000  0.4696020000000  0.4751550000000 1.0
C      1  0.4430520000000  0.4729580000000  0.4723490000000 1.0
C      1  0.5971470000000  0.5074700000000  0.5055980000000 1.0
C      1  0.4099430000000  0.4946730000000  0.5066770000000 1.0
C      1  0.5962860000000  0.5074680000000  0.4904110000000 1.0
C      1  0.5287400000000  0.5261250000000  0.4390480000000 1.0
C      1  0.4721500000000  0.4738040000000  0.4347560000000 1.0
C      1  0.4113690000000  0.4949100000000  0.4913180000000 1.0
C      1  0.5575840000000  0.4733300000000  0.4734980000000 1.0
END
