TITL C-102688-8074-104 -0.00306557931806174 1000000 -1865.40672583239 0 0 240 (Oh) n - 1
REM
REM in /home/chem/mssmkc/work/GAP20/Larger-Clusters/Only-C240-new-series
REM
REM
REM
REM
REM
REM ./C.cell (0485df7495ed2a90f93db84a705cd676)
REM
REM compiler GCC version 8.3.0
REM options -cpp -mtune=generic -march=x86-64 -g -O0
REM seed -554950814 1954466026 -1792890553 936035192 -1156168388 1891593325 308594215 -1627010672 -109891775 -1331939059 -1433917968 -1864551749 -1647152643 587023122 1899648544 -981181641 -2125387380 -1340327551 1642437099 -51205243 878483393 2131987626 795777287 1031269466 -2120106819 -387660484 -1987693380 -1576986017 473607773 -2088707146 1394807126 1581934909 -1357528369
REM
CELL 1.54180  100.00000  100.00000  100.00000   90.00000   90.00000   90.00000
LATT -1
SFAC C  
C      1  0.5639060000000  0.5134730000000  0.4703220000000 1.0
C      1  0.5134710000000  0.4703190000000  0.5639050000000 1.0
C      1  0.4703200000000  0.5639050000000  0.5134730000000 1.0
C      1  0.4360940000000  0.5134670000000  0.5296790000000 1.0
C      1  0.4360940000000  0.4865300000000  0.4703210000000 1.0
C      1  0.5639060000000  0.4865300000000  0.5296780000000 1.0
C      1  0.4865310000000  0.4703240000000  0.4360930000000 1.0
C      1  0.4865290000000  0.5296750000000  0.5639070000000 1.0
C      1  0.5134690000000  0.5296820000000  0.4360950000000 1.0
C      1  0.5296770000000  0.5639070000000  0.4865330000000 1.0
C      1  0.5296800000000  0.4360940000000  0.5134670000000 1.0
C      1  0.4703230000000  0.4360940000000  0.4865270000000 1.0
C      1  0.5639060000000  0.4865330000000  0.4703210000000 1.0
C      1  0.5134690000000  0.5296760000000  0.5639070000000 1.0
C      1  0.4703230000000  0.4360930000000  0.5134670000000 1.0
C      1  0.4360940000000  0.4865270000000  0.5296780000000 1.0
C      1  0.4360940000000  0.5134700000000  0.4703220000000 1.0
C      1  0.5639060000000  0.5134700000000  0.5296790000000 1.0
C      1  0.4865290000000  0.5296810000000  0.4360950000000 1.0
C      1  0.4865310000000  0.4703180000000  0.5639050000000 1.0
C      1  0.5134710000000  0.4703250000000  0.4360930000000 1.0
C      1  0.5296800000000  0.4360950000000  0.4865270000000 1.0
C      1  0.5296770000000  0.5639060000000  0.5134730000000 1.0
C      1  0.4703200000000  0.5639060000000  0.4865330000000 1.0
C      1  0.4654190000000  0.5519980000000  0.4654230000000 1.0
C      1  0.5519990000000  0.4654240000000  0.4654190000000 1.0
C      1  0.4654220000000  0.4654170000000  0.5519960000000 1.0
C      1  0.5345780000000  0.5519970000000  0.5345820000000 1.0
C      1  0.5345810000000  0.4480050000000  0.4654180000000 1.0
C      1  0.4654220000000  0.4480000000000  0.5345770000000 1.0
C      1  0.4480030000000  0.4654180000000  0.5345780000000 1.0
C      1  0.4480010000000  0.5345790000000  0.4654220000000 1.0
C      1  0.5519970000000  0.5345790000000  0.5345810000000 1.0
C      1  0.5345800000000  0.4654240000000  0.4480010000000 1.0
C      1  0.5345780000000  0.5345780000000  0.5519990000000 1.0
C      1  0.4654200000000  0.5345810000000  0.4480040000000 1.0
C      1  0.4654220000000  0.4480030000000  0.4654180000000 1.0
C      1  0.5519970000000  0.5345820000000  0.4654220000000 1.0
C      1  0.4654200000000  0.5345760000000  0.5519990000000 1.0
C      1  0.5345810000000  0.4480020000000  0.5345770000000 1.0
C      1  0.5345780000000  0.5520000000000  0.4654230000000 1.0
C      1  0.4654190000000  0.5519950000000  0.5345820000000 1.0
C      1  0.4480010000000  0.5345760000000  0.5345810000000 1.0
C      1  0.4480030000000  0.4654210000000  0.4654190000000 1.0
C      1  0.5519990000000  0.4654210000000  0.5345780000000 1.0
C      1  0.5345780000000  0.5345830000000  0.4480040000000 1.0
C      1  0.5345800000000  0.4654190000000  0.5519960000000 1.0
C      1  0.4654220000000  0.4654220000000  0.4480010000000 1.0
C      1  0.4539300000000  0.4539290000000  0.4716200000000 1.0
C      1  0.4539300000000  0.4716230000000  0.4539280000000 1.0
C      1  0.4716230000000  0.4539300000000  0.4539270000000 1.0
C      1  0.5460720000000  0.4539290000000  0.5283760000000 1.0
C      1  0.5460700000000  0.5460740000000  0.4716240000000 1.0
C      1  0.4539280000000  0.5460690000000  0.5283800000000 1.0
C      1  0.5460720000000  0.4716210000000  0.5460700000000 1.0
C      1  0.5460700000000  0.5283810000000  0.4539300000000 1.0
C      1  0.4539280000000  0.5283750000000  0.5460720000000 1.0
C      1  0.5283790000000  0.4539280000000  0.5460690000000 1.0
C      1  0.5283770000000  0.5460740000000  0.4539310000000 1.0
C      1  0.4716210000000  0.5460680000000  0.5460730000000 1.0
C      1  0.4539280000000  0.5460710000000  0.4716240000000 1.0
C      1  0.4539280000000  0.5283790000000  0.4539300000000 1.0
C      1  0.4716210000000  0.5460720000000  0.4539310000000 1.0
C      1  0.5460700000000  0.5460710000000  0.5283800000000 1.0
C      1  0.5460720000000  0.4539310000000  0.4716200000000 1.0
C      1  0.4539300000000  0.4539260000000  0.5283760000000 1.0
C      1  0.5460700000000  0.5283770000000  0.5460720000000 1.0
C      1  0.5460720000000  0.4716250000000  0.4539280000000 1.0
C      1  0.4539300000000  0.4716190000000  0.5460700000000 1.0
C      1  0.5283770000000  0.5460700000000  0.5460730000000 1.0
C      1  0.5283790000000  0.4539320000000  0.4539270000000 1.0
C      1  0.4716230000000  0.4539260000000  0.5460690000000 1.0
C      1  0.5639050000000  0.5296800000000  0.5134710000000 1.0
C      1  0.5296780000000  0.5134680000000  0.5639070000000 1.0
C      1  0.5134680000000  0.5639050000000  0.5296820000000 1.0
C      1  0.4360930000000  0.5296780000000  0.4865310000000 1.0
C      1  0.4360950000000  0.4703190000000  0.5134690000000 1.0
C      1  0.5639070000000  0.4703240000000  0.4865290000000 1.0
C      1  0.4703210000000  0.5134720000000  0.4360950000000 1.0
C      1  0.4703220000000  0.4865260000000  0.5639050000000 1.0
C      1  0.5296790000000  0.4865340000000  0.4360930000000 1.0
C      1  0.4865280000000  0.5639070000000  0.4703240000000 1.0
C      1  0.4865320000000  0.4360920000000  0.5296760000000 1.0
C      1  0.5134720000000  0.4360960000000  0.4703180000000 1.0
C      1  0.5639070000000  0.4703220000000  0.5134690000000 1.0
C      1  0.5296790000000  0.4865280000000  0.5639050000000 1.0
C      1  0.5134720000000  0.4360930000000  0.5296760000000 1.0
C      1  0.4360950000000  0.4703200000000  0.4865290000000 1.0
C      1  0.4360930000000  0.5296760000000  0.5134710000000 1.0
C      1  0.5639050000000  0.5296810000000  0.4865310000000 1.0
C      1  0.4703220000000  0.4865320000000  0.4360930000000 1.0
C      1  0.4703210000000  0.5134660000000  0.5639070000000 1.0
C      1  0.5296780000000  0.5134740000000  0.4360950000000 1.0
C      1  0.4865320000000  0.4360950000000  0.4703180000000 1.0
C      1  0.4865280000000  0.5639040000000  0.5296820000000 1.0
C      1  0.5134680000000  0.5639080000000  0.4703240000000 1.0
C      1  0.5407800000000  0.4928560000000  0.4419520000000 1.0
C      1  0.4928540000000  0.4419510000000  0.5407780000000 1.0
C      1  0.4419520000000  0.5407790000000  0.4928540000000 1.0
C      1  0.4592200000000  0.4928480000000  0.5580470000000 1.0
C      1  0.4592200000000  0.5071500000000  0.4419530000000 1.0
C      1  0.5407800000000  0.5071470000000  0.5580480000000 1.0
C      1  0.5071500000000  0.4419550000000  0.4592170000000 1.0
C      1  0.5071460000000  0.5580460000000  0.5407830000000 1.0
C      1  0.4928500000000  0.5580490000000  0.4592220000000 1.0
C      1  0.5580460000000  0.5407810000000  0.5071500000000 1.0
C      1  0.5580480000000  0.4592220000000  0.4928500000000 1.0
C      1  0.4419540000000  0.4592180000000  0.5071460000000 1.0
C      1  0.5407800000000  0.5071520000000  0.4419530000000 1.0
C      1  0.4928500000000  0.5580450000000  0.5407830000000 1.0
C      1  0.4419540000000  0.4592190000000  0.4928500000000 1.0
C      1  0.4592200000000  0.5071440000000  0.5580480000000 1.0
C      1  0.4592200000000  0.4928530000000  0.4419520000000 1.0
C      1  0.5407800000000  0.4928500000000  0.5580470000000 1.0
C      1  0.5071460000000  0.5580490000000  0.4592220000000 1.0
C      1  0.5071500000000  0.4419510000000  0.5407780000000 1.0
C      1  0.4928540000000  0.4419540000000  0.4592170000000 1.0
C      1  0.5580480000000  0.4592210000000  0.5071460000000 1.0
C      1  0.5580460000000  0.5407820000000  0.4928540000000 1.0
C      1  0.4419520000000  0.5407780000000  0.5071500000000 1.0
C      1  0.4928510000000  0.5407830000000  0.4419550000000 1.0
C      1  0.5407820000000  0.4419540000000  0.4928490000000 1.0
C      1  0.4419530000000  0.4928480000000  0.5407800000000 1.0
C      1  0.5071470000000  0.5407780000000  0.5580490000000 1.0
C      1  0.5071490000000  0.4592230000000  0.4419510000000 1.0
C      1  0.4928530000000  0.4592170000000  0.5580450000000 1.0
C      1  0.4592210000000  0.4419510000000  0.5071450000000 1.0
C      1  0.4592180000000  0.5580460000000  0.4928550000000 1.0
C      1  0.5407790000000  0.5580480000000  0.5071510000000 1.0
C      1  0.5580470000000  0.4928550000000  0.4592190000000 1.0
C      1  0.5580470000000  0.5071480000000  0.5407810000000 1.0
C      1  0.4419530000000  0.5071480000000  0.4592200000000 1.0
C      1  0.4928530000000  0.4592220000000  0.4419510000000 1.0
C      1  0.5407790000000  0.5580490000000  0.4928550000000 1.0
C      1  0.4419530000000  0.5071450000000  0.5407810000000 1.0
C      1  0.5071490000000  0.4592170000000  0.5580450000000 1.0
C      1  0.5071470000000  0.5407830000000  0.4419550000000 1.0
C      1  0.4928510000000  0.5407770000000  0.5580490000000 1.0
C      1  0.4592180000000  0.5580460000000  0.5071510000000 1.0
C      1  0.4592210000000  0.4419520000000  0.4928490000000 1.0
C      1  0.5407820000000  0.4419540000000  0.5071450000000 1.0
C      1  0.5580470000000  0.5071520000000  0.4592200000000 1.0
C      1  0.5580470000000  0.4928520000000  0.5407800000000 1.0
C      1  0.4419530000000  0.4928520000000  0.4592190000000 1.0
C      1  0.5491540000000  0.5491560000000  0.5146520000000 1.0
C      1  0.5491550000000  0.5146480000000  0.5491560000000 1.0
C      1  0.5146480000000  0.5491540000000  0.5491580000000 1.0
C      1  0.4508430000000  0.5491550000000  0.4853530000000 1.0
C      1  0.4508460000000  0.4508420000000  0.5146470000000 1.0
C      1  0.5491570000000  0.4508460000000  0.4853480000000 1.0
C      1  0.4508440000000  0.5146500000000  0.4508450000000 1.0
C      1  0.4508450000000  0.4853470000000  0.5491550000000 1.0
C      1  0.5491560000000  0.4853540000000  0.4508440000000 1.0
C      1  0.4853490000000  0.5491580000000  0.4508470000000 1.0
C      1  0.4853520000000  0.4508420000000  0.5491530000000 1.0
C      1  0.5146510000000  0.4508470000000  0.4508420000000 1.0
C      1  0.5491570000000  0.4508450000000  0.5146470000000 1.0
C      1  0.5491560000000  0.4853500000000  0.5491550000000 1.0
C      1  0.5146510000000  0.4508420000000  0.5491530000000 1.0
C      1  0.4508460000000  0.4508440000000  0.4853480000000 1.0
C      1  0.4508430000000  0.5491540000000  0.5146520000000 1.0
C      1  0.5491540000000  0.5491580000000  0.4853530000000 1.0
C      1  0.4508450000000  0.4853520000000  0.4508440000000 1.0
C      1  0.4508440000000  0.5146460000000  0.5491560000000 1.0
C      1  0.5491550000000  0.5146530000000  0.4508450000000 1.0
C      1  0.4853520000000  0.4508460000000  0.4508420000000 1.0
C      1  0.4853490000000  0.5491530000000  0.5491580000000 1.0
C      1  0.5146480000000  0.5491580000000  0.4508470000000 1.0
C      1  0.5682440000000  0.5069990000000  0.5174750000000 1.0
C      1  0.5069980000000  0.5174720000000  0.5682450000000 1.0
C      1  0.5174730000000  0.5682440000000  0.5070010000000 1.0
C      1  0.4317560000000  0.5069970000000  0.4825260000000 1.0
C      1  0.4317560000000  0.4929990000000  0.5174740000000 1.0
C      1  0.5682440000000  0.4930040000000  0.4825250000000 1.0
C      1  0.4930010000000  0.5174770000000  0.4317570000000 1.0
C      1  0.4930020000000  0.4825220000000  0.5682430000000 1.0
C      1  0.5069990000000  0.4825290000000  0.4317550000000 1.0
C      1  0.4825240000000  0.5682440000000  0.4930050000000 1.0
C      1  0.4825270000000  0.4317550000000  0.5069950000000 1.0
C      1  0.5174760000000  0.4317570000000  0.4929990000000 1.0
C      1  0.5682440000000  0.4930030000000  0.5174740000000 1.0
C      1  0.5069990000000  0.4825230000000  0.5682430000000 1.0
C      1  0.5174760000000  0.4317560000000  0.5069950000000 1.0
C      1  0.4317560000000  0.4930010000000  0.4825250000000 1.0
C      1  0.4317560000000  0.5069960000000  0.5174750000000 1.0
C      1  0.5682440000000  0.5070010000000  0.4825260000000 1.0
C      1  0.4930020000000  0.4825280000000  0.4317550000000 1.0
C      1  0.4930010000000  0.5174710000000  0.5682450000000 1.0
C      1  0.5069980000000  0.5174780000000  0.4317570000000 1.0
C      1  0.4825270000000  0.4317560000000  0.4929990000000 1.0
C      1  0.4825240000000  0.5682430000000  0.5070010000000 1.0
C      1  0.5174730000000  0.5682450000000  0.4930050000000 1.0
C      1  0.4728930000000  0.5271080000000  0.4387880000000 1.0
C      1  0.5271080000000  0.4387880000000  0.4728910000000 1.0
C      1  0.4387870000000  0.4728910000000  0.5271050000000 1.0
C      1  0.5271050000000  0.5271040000000  0.5612150000000 1.0
C      1  0.5271070000000  0.4728970000000  0.4387850000000 1.0
C      1  0.4728950000000  0.4728900000000  0.5612120000000 1.0
C      1  0.4728950000000  0.4387850000000  0.5271030000000 1.0
C      1  0.4728920000000  0.5612140000000  0.4728970000000 1.0
C      1  0.5271050000000  0.5612130000000  0.5271090000000 1.0
C      1  0.5612140000000  0.4728970000000  0.4728930000000 1.0
C      1  0.5612130000000  0.5271070000000  0.5271070000000 1.0
C      1  0.4387860000000  0.5271060000000  0.4728950000000 1.0
C      1  0.4728950000000  0.4728960000000  0.4387850000000 1.0
C      1  0.5271050000000  0.5612150000000  0.4728970000000 1.0
C      1  0.4387860000000  0.5271030000000  0.5271070000000 1.0
C      1  0.5271070000000  0.4728920000000  0.5612120000000 1.0
C      1  0.5271050000000  0.5271100000000  0.4387880000000 1.0
C      1  0.4728930000000  0.5271030000000  0.5612150000000 1.0
C      1  0.4728920000000  0.5612120000000  0.5271090000000 1.0
C      1  0.4728950000000  0.4387870000000  0.4728910000000 1.0
C      1  0.5271080000000  0.4387860000000  0.5271030000000 1.0
C      1  0.5612130000000  0.5271090000000  0.4728950000000 1.0
C      1  0.5612140000000  0.4728940000000  0.5271050000000 1.0
C      1  0.4387870000000  0.4728930000000  0.4728930000000 1.0
C      1  0.4317560000000  0.5174720000000  0.5069990000000 1.0
C      1  0.5174740000000  0.5070020000000  0.4317560000000 1.0
C      1  0.5070000000000  0.4317550000000  0.5174710000000 1.0
C      1  0.5682440000000  0.5174770000000  0.4930030000000 1.0
C      1  0.5682440000000  0.4825270000000  0.5069970000000 1.0
C      1  0.4317560000000  0.4825240000000  0.4930010000000 1.0
C      1  0.4825250000000  0.5069950000000  0.5682440000000 1.0
C      1  0.4825260000000  0.4930040000000  0.4317560000000 1.0
C      1  0.5174750000000  0.4929990000000  0.5682440000000 1.0
C      1  0.4930040000000  0.4317570000000  0.4825220000000 1.0
C      1  0.4930000000000  0.5682430000000  0.5174780000000 1.0
C      1  0.5069960000000  0.5682450000000  0.4825290000000 1.0
C      1  0.4317560000000  0.4825230000000  0.5069970000000 1.0
C      1  0.5174750000000  0.4930050000000  0.4317560000000 1.0
C      1  0.5069960000000  0.5682430000000  0.5174780000000 1.0
C      1  0.5682440000000  0.4825280000000  0.4930010000000 1.0
C      1  0.5682440000000  0.5174760000000  0.5069990000000 1.0
C      1  0.4317560000000  0.5174730000000  0.4930030000000 1.0
C      1  0.4825260000000  0.4929980000000  0.5682440000000 1.0
C      1  0.4825250000000  0.5070010000000  0.4317560000000 1.0
C      1  0.5174740000000  0.5069960000000  0.5682440000000 1.0
C      1  0.4930000000000  0.5682450000000  0.4825290000000 1.0
C      1  0.4930040000000  0.4317550000000  0.5174710000000 1.0
C      1  0.5070000000000  0.4317570000000  0.4825220000000 1.0
END
