TITL C240-167242 -10.1008494023876 1000000 -1647.05844772051 0 0 240 (C1) n - 1
REM
REM in /home/chem/mssmkc/work/CARBON/AIRSS/Generating-Clusters/Str-Search/GAP20/LAMMPS-RUNS
REM
REM
REM
REM
REM
REM C240.cell (6ea0d303a5b8fbb996c4ddf432bb192a)
REM
REM
REM
REM
REM
CELL 1.54180  100.00000  100.00000  100.00000   90.00000   90.00000   90.00000
LATT -1
SFAC C  
C      1  0.4729870000000  0.4373380000000  0.5565710000000 1.0
C      1  0.5606400000000  0.5498150000000  0.4659240000000 1.0
C      1  0.4877910000000  0.5039640000000  0.4151330000000 1.0
C      1  0.4382230000000  0.5408000000000  0.5385510000000 1.0
C      1  0.5887130000000  0.5143020000000  0.4928960000000 1.0
C      1  0.4623960000000  0.5388680000000  0.5692850000000 1.0
C      1  0.4224760000000  0.4879850000000  0.5090400000000 1.0
C      1  0.5115790000000  0.5111200000000  0.4143070000000 1.0
C      1  0.4473720000000  0.4705480000000  0.4379180000000 1.0
C      1  0.5771230000000  0.5351220000000  0.5180630000000 1.0
C      1  0.4667120000000  0.4373170000000  0.4468100000000 1.0
C      1  0.4740760000000  0.4214050000000  0.4692680000000 1.0
C      1  0.5478280000000  0.4655160000000  0.4372190000000 1.0
C      1  0.5102500000000  0.4159370000000  0.5094450000000 1.0
C      1  0.5333350000000  0.5623790000000  0.5528250000000 1.0
C      1  0.4456460000000  0.5272670000000  0.4383500000000 1.0
C      1  0.4961920000000  0.5829190000000  0.5151540000000 1.0
C      1  0.5614190000000  0.5502300000000  0.5373900000000 1.0
C      1  0.4221310000000  0.5111950000000  0.5092840000000 1.0
C      1  0.4388800000000  0.4497550000000  0.4619930000000 1.0
C      1  0.4890050000000  0.5819870000000  0.4913460000000 1.0
C      1  0.4433380000000  0.4443280000000  0.5318780000000 1.0
C      1  0.5108110000000  0.4977730000000  0.5863280000000 1.0
C      1  0.4584970000000  0.5645720000000  0.4572650000000 1.0
C      1  0.5285780000000  0.4380450000000  0.5545010000000 1.0
C      1  0.4805030000000  0.4206730000000  0.5347800000000 1.0
C      1  0.5429540000000  0.5124680000000  0.4256830000000 1.0
C      1  0.5196710000000  0.5737970000000  0.4687120000000 1.0
C      1  0.5160070000000  0.4968890000000  0.4132340000000 1.0
C      1  0.5587530000000  0.4655320000000  0.5379890000000 1.0
C      1  0.4201370000000  0.4883090000000  0.4932630000000 1.0
C      1  0.5335370000000  0.4600330000000  0.5679060000000 1.0
C      1  0.5850050000000  0.5125230000000  0.5075850000000 1.0
C      1  0.5612190000000  0.4562910000000  0.5072550000000 1.0
C      1  0.5669300000000  0.5366570000000  0.5406970000000 1.0
C      1  0.4330710000000  0.5357130000000  0.4596960000000 1.0
C      1  0.5556860000000  0.4525600000000  0.5307110000000 1.0
C      1  0.4871900000000  0.4934610000000  0.5879010000000 1.0
C      1  0.5285290000000  0.4802840000000  0.5794900000000 1.0
C      1  0.5156450000000  0.5743780000000  0.5417670000000 1.0
C      1  0.4687870000000  0.5579300000000  0.4479390000000 1.0
C      1  0.5177770000000  0.4262860000000  0.4662000000000 1.0
C      1  0.4253900000000  0.5338410000000  0.4831170000000 1.0
C      1  0.4515800000000  0.5121340000000  0.5703420000000 1.0
C      1  0.5266500000000  0.4405100000000  0.4434690000000 1.0
C      1  0.5292500000000  0.5243920000000  0.5774770000000 1.0
C      1  0.4890310000000  0.4224800000000  0.5473480000000 1.0
C      1  0.4849010000000  0.5084300000000  0.5900150000000 1.0
C      1  0.5797200000000  0.4895660000000  0.5026680000000 1.0
C      1  0.4433250000000  0.5543080000000  0.5327610000000 1.0
C      1  0.5081010000000  0.5127330000000  0.5877270000000 1.0
C      1  0.4633030000000  0.5160400000000  0.5788700000000 1.0
C      1  0.5679540000000  0.5370860000000  0.4620240000000 1.0
C      1  0.4333660000000  0.5489480000000  0.5117950000000 1.0
C      1  0.4337130000000  0.4635410000000  0.4590730000000 1.0
C      1  0.4389460000000  0.4580900000000  0.5377150000000 1.0
C      1  0.5746590000000  0.4715250000000  0.4754910000000 1.0
C      1  0.5240210000000  0.4225760000000  0.5304990000000 1.0
C      1  0.5327370000000  0.5233110000000  0.4230610000000 1.0
C      1  0.4906700000000  0.5727090000000  0.5479310000000 1.0
C      1  0.5390260000000  0.5637230000000  0.4618220000000 1.0
C      1  0.4291250000000  0.5350350000000  0.5171080000000 1.0
C      1  0.4550920000000  0.5109760000000  0.4241270000000 1.0
C      1  0.5091780000000  0.4278320000000  0.4532490000000 1.0
C      1  0.5712440000000  0.5485960000000  0.5145470000000 1.0
C      1  0.5671110000000  0.4636180000000  0.4856350000000 1.0
C      1  0.4303660000000  0.4516460000000  0.4851600000000 1.0
C      1  0.4714600000000  0.4755940000000  0.4224470000000 1.0
C      1  0.4731720000000  0.5596940000000  0.5576610000000 1.0
C      1  0.5383320000000  0.4382050000000  0.5432300000000 1.0
C      1  0.4642330000000  0.5623640000000  0.5455070000000 1.0
C      1  0.5138410000000  0.4229110000000  0.5415270000000 1.0
C      1  0.4567400000000  0.4322730000000  0.4572660000000 1.0
C      1  0.5347560000000  0.4402290000000  0.4564460000000 1.0
C      1  0.4816210000000  0.5758020000000  0.5356680000000 1.0
C      1  0.5688250000000  0.4794790000000  0.5207070000000 1.0
C      1  0.5624840000000  0.4613910000000  0.4578720000000 1.0
C      1  0.5314760000000  0.5582360000000  0.4491680000000 1.0
C      1  0.5524300000000  0.5287860000000  0.5608370000000 1.0
C      1  0.4395610000000  0.5487680000000  0.4625900000000 1.0
C      1  0.4679200000000  0.5194610000000  0.4227740000000 1.0
C      1  0.4841420000000  0.4256980000000  0.4586640000000 1.0
C      1  0.4257290000000  0.4656250000000  0.4825320000000 1.0
C      1  0.5448380000000  0.4671180000000  0.5601710000000 1.0
C      1  0.5028930000000  0.4174300000000  0.4857650000000 1.0
C      1  0.4524980000000  0.4635670000000  0.5592410000000 1.0
C      1  0.5459220000000  0.4862010000000  0.4251380000000 1.0
C      1  0.4861410000000  0.5696340000000  0.4599730000000 1.0
C      1  0.5712740000000  0.5489710000000  0.4884470000000 1.0
C      1  0.5554190000000  0.4518150000000  0.4679160000000 1.0
C      1  0.5254430000000  0.5787630000000  0.5309730000000 1.0
C      1  0.4607580000000  0.4860900000000  0.4238480000000 1.0
C      1  0.4922830000000  0.4894130000000  0.4145590000000 1.0
C      1  0.5551310000000  0.5280970000000  0.4410210000000 1.0
C      1  0.4294260000000  0.4640510000000  0.5165070000000 1.0
C      1  0.5345830000000  0.4799300000000  0.4169480000000 1.0
C      1  0.5117650000000  0.5677350000000  0.4561590000000 1.0
C      1  0.5785270000000  0.5363790000000  0.4846010000000 1.0
C      1  0.4508440000000  0.5349420000000  0.5605690000000 1.0
C      1  0.4656790000000  0.4825600000000  0.5772930000000 1.0
C      1  0.4330150000000  0.4499850000000  0.5111570000000 1.0
C      1  0.4309700000000  0.5474980000000  0.4857270000000 1.0
C      1  0.5444960000000  0.5386360000000  0.4386280000000 1.0
C      1  0.5405910000000  0.4872160000000  0.5724710000000 1.0
C      1  0.4645300000000  0.4596990000000  0.5674010000000 1.0
C      1  0.4197380000000  0.5111260000000  0.4935840000000 1.0
C      1  0.4530540000000  0.4861160000000  0.5696400000000 1.0
C      1  0.4581250000000  0.5362580000000  0.4369640000000 1.0
C      1  0.4756300000000  0.5749800000000  0.4697970000000 1.0
C      1  0.5425000000000  0.5400080000000  0.5632540000000 1.0
C      1  0.5849340000000  0.4913720000000  0.4888920000000 1.0
C      1  0.5386060000000  0.5130760000000  0.5742220000000 1.0
C      1  0.5366570000000  0.4597980000000  0.4290190000000 1.0
C      1  0.5033750000000  0.5818520000000  0.4867950000000 1.0
C      1  0.4886260000000  0.4155920000000  0.4903350000000 1.0
C      1  0.5103720000000  0.5843800000000  0.5103790000000 1.0
C      1  0.5430820000000  0.5674660000000  0.5420790000000 1.0
C      1  0.4639570000000  0.4352280000000  0.5444370000000 1.0
C      1  0.4958760000000  0.4150650000000  0.5141870000000 1.0
C      1  0.4577590000000  0.4596530000000  0.4359890000000 1.0
C      1  0.4977350000000  0.4234550000000  0.4607980000000 1.0
C      1  0.4225800000000  0.4743250000000  0.4930990000000 1.0
C      1  0.4685180000000  0.5506090000000  0.5664150000000 1.0
C      1  0.4698010000000  0.4474930000000  0.5647970000000 1.0
C      1  0.5181530000000  0.5210550000000  0.5844900000000 1.0
C      1  0.5827540000000  0.5267370000000  0.5083850000000 1.0
C      1  0.4524760000000  0.4430000000000  0.5429670000000 1.0
C      1  0.4745530000000  0.5074970000000  0.4178990000000 1.0
C      1  0.5624140000000  0.5304390000000  0.5518600000000 1.0
C      1  0.4585090000000  0.5481320000000  0.4444060000000 1.0
C      1  0.4522700000000  0.5553130000000  0.5440640000000 1.0
C      1  0.5005960000000  0.4187360000000  0.5396250000000 1.0
C      1  0.5407270000000  0.4992620000000  0.4214240000000 1.0
C      1  0.5059890000000  0.4209060000000  0.4726220000000 1.0
C      1  0.5020330000000  0.5769610000000  0.5400820000000 1.0
C      1  0.4626900000000  0.4994560000000  0.4202050000000 1.0
C      1  0.4799560000000  0.5800780000000  0.4814400000000 1.0
C      1  0.5210640000000  0.5204790000000  0.4168290000000 1.0
C      1  0.4242060000000  0.5254020000000  0.5082270000000 1.0
C      1  0.5826280000000  0.4811090000000  0.4805400000000 1.0
C      1  0.5462420000000  0.4481930000000  0.4572440000000 1.0
C      1  0.4367220000000  0.5303760000000  0.4478130000000 1.0
C      1  0.4467880000000  0.5430510000000  0.5499420000000 1.0
C      1  0.5480220000000  0.4483020000000  0.5420560000000 1.0
C      1  0.5303630000000  0.4475700000000  0.5640110000000 1.0
C      1  0.5430070000000  0.5520170000000  0.5559890000000 1.0
C      1  0.5497840000000  0.5548750000000  0.4585840000000 1.0
C      1  0.4833610000000  0.4795340000000  0.4171760000000 1.0
C      1  0.5723580000000  0.4781090000000  0.5071790000000 1.0
C      1  0.4220900000000  0.5251410000000  0.4936320000000 1.0
C      1  0.5236420000000  0.4933960000000  0.5830550000000 1.0
C      1  0.4996930000000  0.5721070000000  0.4624650000000 1.0
C      1  0.5354500000000  0.4998180000000  0.5772060000000 1.0
C      1  0.4313530000000  0.5512200000000  0.4987390000000 1.0
C      1  0.4571580000000  0.4476830000000  0.4433230000000 1.0
C      1  0.4378300000000  0.4692300000000  0.4474440000000 1.0
C      1  0.5201680000000  0.4176680000000  0.5184760000000 1.0
C      1  0.4487180000000  0.4989210000000  0.5693830000000 1.0
C      1  0.5674800000000  0.4662860000000  0.4997780000000 1.0
C      1  0.5294580000000  0.4931540000000  0.4145500000000 1.0
C      1  0.4477530000000  0.4555560000000  0.5488590000000 1.0
C      1  0.4713700000000  0.5066680000000  0.5854350000000 1.0
C      1  0.5848960000000  0.5282000000000  0.4940670000000 1.0
C      1  0.5317160000000  0.4483190000000  0.4338710000000 1.0
C      1  0.5428150000000  0.5499220000000  0.4467320000000 1.0
C      1  0.5643810000000  0.5303220000000  0.4507670000000 1.0
C      1  0.4934320000000  0.5803340000000  0.5286740000000 1.0
C      1  0.4306320000000  0.4477960000000  0.4981450000000 1.0
C      1  0.4732500000000  0.4923450000000  0.5839410000000 1.0
C      1  0.5709950000000  0.5525570000000  0.5015570000000 1.0
C      1  0.4246180000000  0.4738330000000  0.5077260000000 1.0
C      1  0.5518980000000  0.5566010000000  0.5454290000000 1.0
C      1  0.4480220000000  0.4431480000000  0.4536820000000 1.0
C      1  0.4791420000000  0.4164810000000  0.4807150000000 1.0
C      1  0.5506670000000  0.4607940000000  0.5490980000000 1.0
C      1  0.5523690000000  0.4581410000000  0.4481600000000 1.0
C      1  0.4492040000000  0.5541670000000  0.4539850000000 1.0
C      1  0.5070820000000  0.5778010000000  0.4739130000000 1.0
C      1  0.5199810000000  0.5839540000000  0.5198680000000 1.0
C      1  0.4925040000000  0.4164630000000  0.5277580000000 1.0
C      1  0.4979680000000  0.5129880000000  0.4143270000000 1.0
C      1  0.4687290000000  0.5310680000000  0.4292090000000 1.0
C      1  0.5495170000000  0.5168370000000  0.5669160000000 1.0
C      1  0.5475390000000  0.4805170000000  0.5633850000000 1.0
C      1  0.4694380000000  0.5706230000000  0.5352750000000 1.0
C      1  0.5260570000000  0.4675230000000  0.5772920000000 1.0
C      1  0.4794190000000  0.4335950000000  0.4479380000000 1.0
C      1  0.5325540000000  0.5707190000000  0.4714940000000 1.0
C      1  0.5568440000000  0.4502740000000  0.5172960000000 1.0
C      1  0.5531750000000  0.5165460000000  0.4338030000000 1.0
C      1  0.4815980000000  0.5610310000000  0.4496840000000 1.0
C      1  0.4949390000000  0.5170360000000  0.5903940000000 1.0
C      1  0.5810120000000  0.5003890000000  0.5115640000000 1.0
C      1  0.5642810000000  0.4765970000000  0.5320600000000 1.0
C      1  0.4996610000000  0.4891050000000  0.5864850000000 1.0
C      1  0.4240090000000  0.4995340000000  0.5160540000000 1.0
C      1  0.4319660000000  0.5322170000000  0.5306170000000 1.0
C      1  0.4620020000000  0.5727730000000  0.4669880000000 1.0
C      1  0.4695610000000  0.4695880000000  0.5754980000000 1.0
C      1  0.5353320000000  0.5353290000000  0.4291220000000 1.0
C      1  0.5177230000000  0.4297530000000  0.5527300000000 1.0
C      1  0.4358140000000  0.4449830000000  0.4744330000000 1.0
C      1  0.4399540000000  0.4409940000000  0.5195860000000 1.0
C      1  0.5139990000000  0.4342530000000  0.4428190000000 1.0
C      1  0.4477280000000  0.4760740000000  0.5619580000000 1.0
C      1  0.4460880000000  0.5223030000000  0.5628760000000 1.0
C      1  0.5206360000000  0.5662110000000  0.5521860000000 1.0
C      1  0.5293780000000  0.4326570000000  0.4671440000000 1.0
C      1  0.5323820000000  0.5364760000000  0.5717340000000 1.0
C      1  0.4682610000000  0.4634520000000  0.4281060000000 1.0
C      1  0.4687170000000  0.4267770000000  0.5341770000000 1.0
C      1  0.5058520000000  0.4877150000000  0.4128990000000 1.0
C      1  0.5896510000000  0.5040050000000  0.4847010000000 1.0
C      1  0.5124070000000  0.5842020000000  0.4967800000000 1.0
C      1  0.5519300000000  0.4787840000000  0.4344100000000 1.0
C      1  0.4369930000000  0.5538180000000  0.4750630000000 1.0
C      1  0.5718860000000  0.4697240000000  0.4617630000000 1.0
C      1  0.4197550000000  0.4998050000000  0.4861720000000 1.0
C      1  0.4868730000000  0.4145940000000  0.5039160000000 1.0
C      1  0.4604600000000  0.4245090000000  0.4673070000000 1.0
C      1  0.4404750000000  0.5576750000000  0.5203440000000 1.0
C      1  0.5391070000000  0.5755040000000  0.5323690000000 1.0
C      1  0.5308600000000  0.4673640000000  0.4186260000000 1.0
C      1  0.4496760000000  0.4820590000000  0.4307390000000 1.0
C      1  0.4447390000000  0.5152150000000  0.4310950000000 1.0
C      1  0.5584900000000  0.4535020000000  0.4807500000000 1.0
C      1  0.4259010000000  0.5299740000000  0.4699700000000 1.0
C      1  0.5120560000000  0.4166480000000  0.4958490000000 1.0
C      1  0.5356910000000  0.4294300000000  0.5331050000000 1.0
C      1  0.4870120000000  0.5826680000000  0.5049530000000 1.0
C      1  0.4668960000000  0.5292000000000  0.5779680000000 1.0
C      1  0.5180790000000  0.5597120000000  0.4472920000000 1.0
C      1  0.4849640000000  0.4299490000000  0.5574820000000 1.0
C      1  0.4327130000000  0.4668300000000  0.5299360000000 1.0
C      1  0.5649140000000  0.5549120000000  0.5250220000000 1.0
C      1  0.5640300000000  0.5546600000000  0.4782240000000 1.0
C      1  0.4860760000000  0.5654950000000  0.5579810000000 1.0
C      1  0.5748330000000  0.5311730000000  0.5309130000000 1.0
C      1  0.5766480000000  0.5324970000000  0.4716430000000 1.0
C      1  0.4267820000000  0.4695240000000  0.4694150000000 1.0
END
