TITL C-102689-8077-119 179.337256122138 1000000 -1732.33255634008 0 0 240 (Th) n - 1
REM
REM in /home/chem/mssmkc/work/GAP20/Larger-Clusters/Only-C240-new-series
REM
REM
REM
REM
REM
REM ./C.cell (0485df7495ed2a90f93db84a705cd676)
REM
REM compiler GCC version 8.3.0
REM options -cpp -mtune=generic -march=x86-64 -g -O0
REM seed -447980582 1703483190 1381504292 1631315219 -858212238 265844391 1051921490 1944297863 -577890031 1246491399 -888177662 1616682008 1525333939 1848802919 -101851016 -206883088 1564412591 1195489816 -1685736988 1504008442 1278845664 -502915241 -1927031794 2036220616 -61607267 1996766328 606571267 214772897 -2120373287 71961129 1479625622 -942652618 1387364671
REM
CELL 1.54180  100.00000  100.00000  100.00000   90.00000   90.00000   90.00000
LATT -1
SFAC C  
C      1  0.4507180000000  0.4709740000000  0.4603970000000 1.0
C      1  0.4603980000000  0.4507170000000  0.4709740000000 1.0
C      1  0.4709750000000  0.4603970000000  0.4507170000000 1.0
C      1  0.5492830000000  0.5290250000000  0.4603980000000 1.0
C      1  0.5492820000000  0.4709750000000  0.5396030000000 1.0
C      1  0.4507170000000  0.5290260000000  0.5396020000000 1.0
C      1  0.5396030000000  0.5492820000000  0.4709750000000 1.0
C      1  0.5396020000000  0.4507180000000  0.5290260000000 1.0
C      1  0.4603970000000  0.5492830000000  0.5290250000000 1.0
C      1  0.5290260000000  0.5396020000000  0.4507180000000 1.0
C      1  0.5290250000000  0.4603980000000  0.5492830000000 1.0
C      1  0.4709740000000  0.5396030000000  0.5492820000000 1.0
C      1  0.4507170000000  0.4709740000000  0.5396020000000 1.0
C      1  0.4603970000000  0.4507180000000  0.5290250000000 1.0
C      1  0.4709740000000  0.4603980000000  0.5492820000000 1.0
C      1  0.5492820000000  0.5290260000000  0.5396030000000 1.0
C      1  0.5492830000000  0.4709740000000  0.4603980000000 1.0
C      1  0.4507180000000  0.5290250000000  0.4603970000000 1.0
C      1  0.5396020000000  0.5492830000000  0.5290260000000 1.0
C      1  0.5396030000000  0.4507170000000  0.4709750000000 1.0
C      1  0.4603980000000  0.5492820000000  0.4709740000000 1.0
C      1  0.5290250000000  0.5396030000000  0.5492830000000 1.0
C      1  0.5290260000000  0.4603970000000  0.4507180000000 1.0
C      1  0.4709750000000  0.5396020000000  0.4507170000000 1.0
C      1  0.5191490000000  0.5590040000000  0.4645210000000 1.0
C      1  0.4645210000000  0.5191490000000  0.5590040000000 1.0
C      1  0.5590040000000  0.4645220000000  0.5191490000000 1.0
C      1  0.4808520000000  0.4409960000000  0.4645210000000 1.0
C      1  0.4808510000000  0.5590040000000  0.5354780000000 1.0
C      1  0.5191480000000  0.4409960000000  0.5354790000000 1.0
C      1  0.5354780000000  0.4808520000000  0.5590040000000 1.0
C      1  0.5354790000000  0.5191480000000  0.4409960000000 1.0
C      1  0.4645220000000  0.4808510000000  0.4409960000000 1.0
C      1  0.4409960000000  0.5354790000000  0.5191480000000 1.0
C      1  0.4409960000000  0.4645210000000  0.4808510000000 1.0
C      1  0.5590040000000  0.5354790000000  0.4808520000000 1.0
C      1  0.5191480000000  0.5590040000000  0.5354790000000 1.0
C      1  0.4645220000000  0.5191480000000  0.4409950000000 1.0
C      1  0.5590040000000  0.4645210000000  0.4808520000000 1.0
C      1  0.4808510000000  0.4409960000000  0.5354790000000 1.0
C      1  0.4808520000000  0.5590040000000  0.4645210000000 1.0
C      1  0.5191490000000  0.4409960000000  0.4645220000000 1.0
C      1  0.5354790000000  0.4808510000000  0.4409960000000 1.0
C      1  0.5354780000000  0.5191490000000  0.5590050000000 1.0
C      1  0.4645210000000  0.4808520000000  0.5590040000000 1.0
C      1  0.4409960000000  0.5354780000000  0.4808510000000 1.0
C      1  0.4409960000000  0.4645210000000  0.5191480000000 1.0
C      1  0.5590040000000  0.5354790000000  0.5191490000000 1.0
C      1  0.4759840000000  0.5658550000000  0.5241000000000 1.0
C      1  0.5241000000000  0.4759850000000  0.5658540000000 1.0
C      1  0.5658550000000  0.5241010000000  0.4759850000000 1.0
C      1  0.5240150000000  0.4341460000000  0.5241010000000 1.0
C      1  0.5240150000000  0.5658540000000  0.4758990000000 1.0
C      1  0.4759850000000  0.4341460000000  0.4758990000000 1.0
C      1  0.4758990000000  0.5240160000000  0.5658540000000 1.0
C      1  0.4759000000000  0.4759850000000  0.4341450000000 1.0
C      1  0.5241020000000  0.5240150000000  0.4341460000000 1.0
C      1  0.4341460000000  0.4758990000000  0.4759840000000 1.0
C      1  0.4341460000000  0.5241010000000  0.5240140000000 1.0
C      1  0.5658540000000  0.4758990000000  0.5240160000000 1.0
C      1  0.4759850000000  0.5658540000000  0.4758990000000 1.0
C      1  0.5241010000000  0.4759850000000  0.4341460000000 1.0
C      1  0.5658540000000  0.5241010000000  0.5240160000000 1.0
C      1  0.5240160000000  0.4341450000000  0.4759000000000 1.0
C      1  0.5240150000000  0.5658540000000  0.5241010000000 1.0
C      1  0.4759850000000  0.4341460000000  0.5241010000000 1.0
C      1  0.4759000000000  0.5240150000000  0.4341450000000 1.0
C      1  0.4758980000000  0.4759850000000  0.5658540000000 1.0
C      1  0.5241000000000  0.5240160000000  0.5658550000000 1.0
C      1  0.4341450000000  0.4758990000000  0.5240150000000 1.0
C      1  0.4341460000000  0.5241010000000  0.4759840000000 1.0
C      1  0.5658540000000  0.4758990000000  0.4759860000000 1.0
C      1  0.5071780000000  0.4219700000000  0.4924650000000 1.0
C      1  0.4924650000000  0.5071770000000  0.4219700000000 1.0
C      1  0.4219700000000  0.4924650000000  0.5071770000000 1.0
C      1  0.4928220000000  0.5780300000000  0.4924640000000 1.0
C      1  0.4928230000000  0.4219700000000  0.5075350000000 1.0
C      1  0.5071770000000  0.5780300000000  0.5075350000000 1.0
C      1  0.5075360000000  0.4928220000000  0.4219700000000 1.0
C      1  0.5075340000000  0.5071780000000  0.5780300000000 1.0
C      1  0.4924640000000  0.4928230000000  0.5780300000000 1.0
C      1  0.5780300000000  0.5075350000000  0.5071780000000 1.0
C      1  0.5780300000000  0.4924650000000  0.4928230000000 1.0
C      1  0.4219700000000  0.5075350000000  0.4928220000000 1.0
C      1  0.5071780000000  0.4219700000000  0.5075360000000 1.0
C      1  0.4924640000000  0.5071780000000  0.5780300000000 1.0
C      1  0.4219700000000  0.4924650000000  0.4928220000000 1.0
C      1  0.4928220000000  0.5780300000000  0.5075350000000 1.0
C      1  0.4928230000000  0.4219700000000  0.4924650000000 1.0
C      1  0.5071770000000  0.5780300000000  0.4924650000000 1.0
C      1  0.5075340000000  0.4928230000000  0.5780300000000 1.0
C      1  0.5075360000000  0.5071770000000  0.4219700000000 1.0
C      1  0.4924650000000  0.4928220000000  0.4219700000000 1.0
C      1  0.5780300000000  0.5075350000000  0.4928230000000 1.0
C      1  0.5780300000000  0.4924650000000  0.5071780000000 1.0
C      1  0.4219700000000  0.5075350000000  0.5071770000000 1.0
C      1  0.5599730000000  0.5397880000000  0.5061590000000 1.0
C      1  0.5061580000000  0.5599730000000  0.5397880000000 1.0
C      1  0.5397870000000  0.5061580000000  0.5599730000000 1.0
C      1  0.4400270000000  0.4602120000000  0.5061580000000 1.0
C      1  0.4400270000000  0.5397870000000  0.4938410000000 1.0
C      1  0.5599730000000  0.4602120000000  0.4938430000000 1.0
C      1  0.4938420000000  0.4400270000000  0.5397880000000 1.0
C      1  0.4938420000000  0.5599730000000  0.4602120000000 1.0
C      1  0.5061590000000  0.4400270000000  0.4602130000000 1.0
C      1  0.4602120000000  0.4938420000000  0.5599730000000 1.0
C      1  0.4602130000000  0.5061580000000  0.4400260000000 1.0
C      1  0.5397880000000  0.4938420000000  0.4400270000000 1.0
C      1  0.5599730000000  0.5397870000000  0.4938420000000 1.0
C      1  0.5061580000000  0.5599730000000  0.4602120000000 1.0
C      1  0.5397880000000  0.5061580000000  0.4400270000000 1.0
C      1  0.4400270000000  0.4602120000000  0.4938410000000 1.0
C      1  0.4400270000000  0.5397870000000  0.5061570000000 1.0
C      1  0.5599730000000  0.4602130000000  0.5061590000000 1.0
C      1  0.4938420000000  0.4400270000000  0.4602130000000 1.0
C      1  0.4938410000000  0.5599730000000  0.5397870000000 1.0
C      1  0.5061580000000  0.4400270000000  0.5397880000000 1.0
C      1  0.4602130000000  0.4938420000000  0.4400270000000 1.0
C      1  0.4602120000000  0.5061580000000  0.5599730000000 1.0
C      1  0.5397870000000  0.4938420000000  0.5599730000000 1.0
C      1  0.4608310000000  0.5292430000000  0.5492420000000 1.0
C      1  0.5492430000000  0.4608320000000  0.5292440000000 1.0
C      1  0.5292430000000  0.5492430000000  0.4608320000000 1.0
C      1  0.5391680000000  0.4707570000000  0.5492430000000 1.0
C      1  0.5391690000000  0.5292430000000  0.4507570000000 1.0
C      1  0.4608320000000  0.4707570000000  0.4507570000000 1.0
C      1  0.4507570000000  0.5391690000000  0.5292420000000 1.0
C      1  0.4507570000000  0.4608310000000  0.4707570000000 1.0
C      1  0.5492430000000  0.5391680000000  0.4707570000000 1.0
C      1  0.4707570000000  0.4507570000000  0.4608310000000 1.0
C      1  0.4707570000000  0.5492430000000  0.5391680000000 1.0
C      1  0.5292430000000  0.4507570000000  0.5391690000000 1.0
C      1  0.4608320000000  0.5292430000000  0.4507570000000 1.0
C      1  0.5492430000000  0.4608310000000  0.4707580000000 1.0
C      1  0.5292430000000  0.5492430000000  0.5391690000000 1.0
C      1  0.5391690000000  0.4707570000000  0.4507580000000 1.0
C      1  0.5391680000000  0.5292430000000  0.5492430000000 1.0
C      1  0.4608310000000  0.4707570000000  0.5492430000000 1.0
C      1  0.4507570000000  0.5391680000000  0.4707560000000 1.0
C      1  0.4507570000000  0.4608310000000  0.5292430000000 1.0
C      1  0.5492430000000  0.5391690000000  0.5292430000000 1.0
C      1  0.4707570000000  0.4507570000000  0.5391680000000 1.0
C      1  0.4707570000000  0.5492430000000  0.4608310000000 1.0
C      1  0.5292430000000  0.4507570000000  0.4608320000000 1.0
C      1  0.4401390000000  0.4803520000000  0.5364490000000 1.0
C      1  0.5364500000000  0.4401390000000  0.4803520000000 1.0
C      1  0.4803520000000  0.5364490000000  0.4401390000000 1.0
C      1  0.5598600000000  0.5196480000000  0.5364500000000 1.0
C      1  0.5598610000000  0.4803520000000  0.4635510000000 1.0
C      1  0.4401390000000  0.5196480000000  0.4635500000000 1.0
C      1  0.4635500000000  0.5598610000000  0.4803510000000 1.0
C      1  0.4635500000000  0.4401390000000  0.5196480000000 1.0
C      1  0.5364490000000  0.5598610000000  0.5196480000000 1.0
C      1  0.5196490000000  0.4635500000000  0.4401390000000 1.0
C      1  0.5196480000000  0.5364500000000  0.5598610000000 1.0
C      1  0.4803510000000  0.4635510000000  0.5598610000000 1.0
C      1  0.4401390000000  0.4803520000000  0.4635500000000 1.0
C      1  0.5364500000000  0.4401390000000  0.5196490000000 1.0
C      1  0.4803510000000  0.5364500000000  0.5598610000000 1.0
C      1  0.5598610000000  0.5196480000000  0.4635510000000 1.0
C      1  0.5598610000000  0.4803520000000  0.5364500000000 1.0
C      1  0.4401390000000  0.5196480000000  0.5364490000000 1.0
C      1  0.4635500000000  0.5598610000000  0.5196480000000 1.0
C      1  0.4635510000000  0.4401390000000  0.4803520000000 1.0
C      1  0.5364500000000  0.5598610000000  0.4803520000000 1.0
C      1  0.5196470000000  0.4635510000000  0.5598610000000 1.0
C      1  0.5196490000000  0.5364490000000  0.4401390000000 1.0
C      1  0.4803520000000  0.4635500000000  0.4401390000000 1.0
C      1  0.4852520000000  0.5191230000000  0.5756660000000 1.0
C      1  0.5756660000000  0.4852530000000  0.5191240000000 1.0
C      1  0.5191230000000  0.5756650000000  0.4852530000000 1.0
C      1  0.5147460000000  0.4808770000000  0.5756660000000 1.0
C      1  0.5147480000000  0.5191230000000  0.4243340000000 1.0
C      1  0.4852530000000  0.4808770000000  0.4243340000000 1.0
C      1  0.4243340000000  0.5147470000000  0.5191220000000 1.0
C      1  0.4243340000000  0.4852530000000  0.4808760000000 1.0
C      1  0.5756660000000  0.5147470000000  0.4808780000000 1.0
C      1  0.4808770000000  0.4243340000000  0.4852530000000 1.0
C      1  0.4808770000000  0.5756660000000  0.5147470000000 1.0
C      1  0.5191230000000  0.4243340000000  0.5147480000000 1.0
C      1  0.4852530000000  0.5191230000000  0.4243340000000 1.0
C      1  0.5756660000000  0.4852530000000  0.4808780000000 1.0
C      1  0.5191230000000  0.5756660000000  0.5147470000000 1.0
C      1  0.5147480000000  0.4808770000000  0.4243340000000 1.0
C      1  0.5147470000000  0.5191230000000  0.5756660000000 1.0
C      1  0.4852520000000  0.4808780000000  0.5756660000000 1.0
C      1  0.4243340000000  0.5147470000000  0.4808760000000 1.0
C      1  0.4243340000000  0.4852530000000  0.5191220000000 1.0
C      1  0.5756650000000  0.5147470000000  0.5191240000000 1.0
C      1  0.4808770000000  0.4243340000000  0.5147470000000 1.0
C      1  0.4808770000000  0.5756660000000  0.4852520000000 1.0
C      1  0.5191230000000  0.4243340000000  0.4852530000000 1.0
C      1  0.5777000000000  0.4930940000000  0.5312190000000 1.0
C      1  0.5312180000000  0.5777000000000  0.4930940000000 1.0
C      1  0.4930930000000  0.5312190000000  0.5777010000000 1.0
C      1  0.4222990000000  0.5069070000000  0.5312170000000 1.0
C      1  0.4223000000000  0.4930930000000  0.4687810000000 1.0
C      1  0.5777010000000  0.5069060000000  0.4687830000000 1.0
C      1  0.4687820000000  0.4223000000000  0.4930930000000 1.0
C      1  0.4687820000000  0.5777010000000  0.5069060000000 1.0
C      1  0.5312180000000  0.4222990000000  0.5069070000000 1.0
C      1  0.5069060000000  0.4687820000000  0.5777000000000 1.0
C      1  0.5069070000000  0.5312180000000  0.4223000000000 1.0
C      1  0.4930940000000  0.4687820000000  0.4223000000000 1.0
C      1  0.5777010000000  0.4930930000000  0.4687830000000 1.0
C      1  0.5312180000000  0.5777000000000  0.5069070000000 1.0
C      1  0.4930940000000  0.5312180000000  0.4222990000000 1.0
C      1  0.4223000000000  0.5069060000000  0.4687810000000 1.0
C      1  0.4222990000000  0.4930940000000  0.5312170000000 1.0
C      1  0.5777000000000  0.5069070000000  0.5312190000000 1.0
C      1  0.4687820000000  0.4223000000000  0.5069070000000 1.0
C      1  0.4687820000000  0.5777000000000  0.4930930000000 1.0
C      1  0.5312180000000  0.4222990000000  0.4930940000000 1.0
C      1  0.5069070000000  0.4687820000000  0.4223000000000 1.0
C      1  0.5069060000000  0.5312190000000  0.5777010000000 1.0
C      1  0.4930930000000  0.4687820000000  0.5777000000000 1.0
C      1  0.5660320000000  0.4925330000000  0.4594120000000 1.0
C      1  0.4594110000000  0.5660320000000  0.4925330000000 1.0
C      1  0.4925330000000  0.4594120000000  0.5660320000000 1.0
C      1  0.4339680000000  0.5074660000000  0.4594100000000 1.0
C      1  0.4339680000000  0.4925330000000  0.5405880000000 1.0
C      1  0.5660320000000  0.5074670000000  0.5405900000000 1.0
C      1  0.5405890000000  0.4339680000000  0.4925340000000 1.0
C      1  0.5405890000000  0.5660320000000  0.5074670000000 1.0
C      1  0.4594110000000  0.4339680000000  0.5074660000000 1.0
C      1  0.5074660000000  0.5405890000000  0.5660320000000 1.0
C      1  0.5074670000000  0.4594110000000  0.4339680000000 1.0
C      1  0.4925340000000  0.5405890000000  0.4339680000000 1.0
C      1  0.5660320000000  0.4925340000000  0.5405900000000 1.0
C      1  0.4594110000000  0.5660320000000  0.5074660000000 1.0
C      1  0.4925340000000  0.4594110000000  0.4339680000000 1.0
C      1  0.4339680000000  0.5074670000000  0.5405880000000 1.0
C      1  0.4339680000000  0.4925330000000  0.4594110000000 1.0
C      1  0.5660320000000  0.5074660000000  0.4594120000000 1.0
C      1  0.5405890000000  0.4339680000000  0.5074670000000 1.0
C      1  0.5405890000000  0.5660320000000  0.4925340000000 1.0
C      1  0.4594110000000  0.4339680000000  0.4925330000000 1.0
C      1  0.5074670000000  0.5405890000000  0.4339680000000 1.0
C      1  0.5074660000000  0.4594120000000  0.5660320000000 1.0
C      1  0.4925330000000  0.5405890000000  0.5660320000000 1.0
END
