TITL C-102688-8074-184 -12.0536394543248 1000000 -1760.03146158783 0 0 240 (Td) n - 1
REM
REM in /home/chem/mssmkc/work/GAP20/Larger-Clusters/Only-C240-new-series
REM
REM
REM
REM
REM
REM ./C.cell (0485df7495ed2a90f93db84a705cd676)
REM
REM compiler GCC version 8.3.0
REM options -cpp -mtune=generic -march=x86-64 -g -O0
REM seed -1724648219 177637236 138681 1384410747 1261803210 1403063507 -853619912 -106242832 -1643764955 926718411 -1034617792 -476447619 -384855441 -348618920 -433924604 -1909689313 -676607819 -535747056 -311519625 -1838809254 -1980756918 -679384810 1133829790 2097505369 -669695136 -1417055311 1094887135 -1281037586 -1003059333 -199838010 887892405 -207967957 -706423320
REM
CELL 1.54180  100.00000  100.00000  100.00000   90.00000   90.00000   90.00000
LATT -1
SFAC C  
C      1  0.5242450000000  0.5142350000000  0.5646630000000 1.0
C      1  0.5646710000000  0.5242240000000  0.5142340000000 1.0
C      1  0.5142540000000  0.5646620000000  0.5242350000000 1.0
C      1  0.4757460000000  0.4857860000000  0.5646640000000 1.0
C      1  0.4757650000000  0.5142310000000  0.4353330000000 1.0
C      1  0.5242440000000  0.4857480000000  0.4353410000000 1.0
C      1  0.4353270000000  0.4757800000000  0.5142330000000 1.0
C      1  0.4353460000000  0.5242650000000  0.4857590000000 1.0
C      1  0.5646560000000  0.4757310000000  0.4857750000000 1.0
C      1  0.4857430000000  0.4353450000000  0.5242540000000 1.0
C      1  0.4857910000000  0.5646640000000  0.4757440000000 1.0
C      1  0.5142120000000  0.4353280000000  0.4757670000000 1.0
C      1  0.5142370000000  0.5242500000000  0.5646600000000 1.0
C      1  0.5242660000000  0.5646570000000  0.5142240000000 1.0
C      1  0.5646670000000  0.5142140000000  0.5242470000000 1.0
C      1  0.4857540000000  0.4757710000000  0.5646660000000 1.0
C      1  0.5142290000000  0.4757400000000  0.4353410000000 1.0
C      1  0.4857800000000  0.5242390000000  0.4353320000000 1.0
C      1  0.4757320000000  0.4353470000000  0.5142420000000 1.0
C      1  0.5242230000000  0.4353260000000  0.4857790000000 1.0
C      1  0.4757790000000  0.5646690000000  0.4857550000000 1.0
C      1  0.4353300000000  0.4857930000000  0.5242430000000 1.0
C      1  0.5646600000000  0.4857410000000  0.4757620000000 1.0
C      1  0.4353430000000  0.5142520000000  0.4757490000000 1.0
C      1  0.5559040000000  0.4840370000000  0.4645160000000 1.0
C      1  0.4645310000000  0.5559170000000  0.4840510000000 1.0
C      1  0.4840460000000  0.4645240000000  0.5559120000000 1.0
C      1  0.4441000000000  0.5159520000000  0.4645040000000 1.0
C      1  0.4440850000000  0.4840870000000  0.5354890000000 1.0
C      1  0.5559110000000  0.5159240000000  0.5354910000000 1.0
C      1  0.5354720000000  0.4440780000000  0.4840730000000 1.0
C      1  0.5355080000000  0.5558980000000  0.5159320000000 1.0
C      1  0.4644900000000  0.4441070000000  0.5159450000000 1.0
C      1  0.5159470000000  0.5354930000000  0.5559030000000 1.0
C      1  0.5159300000000  0.4644960000000  0.4440990000000 1.0
C      1  0.4840780000000  0.5354870000000  0.4440860000000 1.0
C      1  0.4840840000000  0.5559070000000  0.4645000000000 1.0
C      1  0.5558960000000  0.4644880000000  0.4840710000000 1.0
C      1  0.4645010000000  0.4840830000000  0.5559080000000 1.0
C      1  0.5159210000000  0.4440810000000  0.4645200000000 1.0
C      1  0.4840400000000  0.4441040000000  0.5354980000000 1.0
C      1  0.5159550000000  0.5559080000000  0.5354820000000 1.0
C      1  0.4441060000000  0.5355070000000  0.4840520000000 1.0
C      1  0.5559190000000  0.5354730000000  0.5159360000000 1.0
C      1  0.4440790000000  0.4645320000000  0.5159400000000 1.0
C      1  0.5354920000000  0.5159350000000  0.5559070000000 1.0
C      1  0.4645190000000  0.5159420000000  0.4440880000000 1.0
C      1  0.5354880000000  0.4840410000000  0.4440970000000 1.0
C      1  0.5045850000000  0.5132820000000  0.5319190000000 1.0
C      1  0.5319220000000  0.5045730000000  0.5132800000000 1.0
C      1  0.5132890000000  0.5319170000000  0.5045780000000 1.0
C      1  0.4954110000000  0.4867280000000  0.5319230000000 1.0
C      1  0.4954240000000  0.5132750000000  0.4680760000000 1.0
C      1  0.5045800000000  0.4867150000000  0.4680810000000 1.0
C      1  0.4680760000000  0.4954310000000  0.5132770000000 1.0
C      1  0.4680810000000  0.5045910000000  0.4867190000000 1.0
C      1  0.5319200000000  0.4954040000000  0.4867250000000 1.0
C      1  0.4867100000000  0.4680840000000  0.5045870000000 1.0
C      1  0.4867330000000  0.5319250000000  0.4954120000000 1.0
C      1  0.5132670000000  0.4680730000000  0.4954240000000 1.0
C      1  0.5132780000000  0.5045830000000  0.5319210000000 1.0
C      1  0.5045930000000  0.5319220000000  0.5132730000000 1.0
C      1  0.5319250000000  0.5132680000000  0.5045820000000 1.0
C      1  0.4867180000000  0.4954270000000  0.5319210000000 1.0
C      1  0.5132790000000  0.4954080000000  0.4680800000000 1.0
C      1  0.4867250000000  0.5045820000000  0.4680770000000 1.0
C      1  0.4954060000000  0.4680830000000  0.5132830000000 1.0
C      1  0.5045720000000  0.4680750000000  0.4867270000000 1.0
C      1  0.4954300000000  0.5319210000000  0.4867160000000 1.0
C      1  0.4680740000000  0.4867340000000  0.5045820000000 1.0
C      1  0.5319170000000  0.4867100000000  0.4954220000000 1.0
C      1  0.4680840000000  0.5132890000000  0.4954130000000 1.0
C      1  0.5288700000000  0.5478960000000  0.4936910000000 1.0
C      1  0.4937040000000  0.5288630000000  0.5479020000000 1.0
C      1  0.5479030000000  0.4936850000000  0.5288570000000 1.0
C      1  0.4711310000000  0.4521020000000  0.4937020000000 1.0
C      1  0.4711630000000  0.5479180000000  0.5062940000000 1.0
C      1  0.5288360000000  0.4520840000000  0.5063130000000 1.0
C      1  0.5062900000000  0.4711520000000  0.5479120000000 1.0
C      1  0.5063160000000  0.5288430000000  0.4520890000000 1.0
C      1  0.4936900000000  0.4711420000000  0.4520970000000 1.0
C      1  0.4520930000000  0.5063240000000  0.5288490000000 1.0
C      1  0.4520920000000  0.4937090000000  0.4711450000000 1.0
C      1  0.5479110000000  0.5062820000000  0.4711490000000 1.0
C      1  0.5479180000000  0.5288350000000  0.4936950000000 1.0
C      1  0.5288480000000  0.4936940000000  0.5479100000000 1.0
C      1  0.4937120000000  0.5479140000000  0.5288450000000 1.0
C      1  0.4520830000000  0.4711630000000  0.4936980000000 1.0
C      1  0.5478970000000  0.4711310000000  0.5063110000000 1.0
C      1  0.4521020000000  0.5288710000000  0.5062960000000 1.0
C      1  0.4711460000000  0.5063210000000  0.5479040000000 1.0
C      1  0.5288580000000  0.5062860000000  0.4520940000000 1.0
C      1  0.4711480000000  0.4936990000000  0.4520920000000 1.0
C      1  0.5062850000000  0.4520950000000  0.5288610000000 1.0
C      1  0.4936820000000  0.4520900000000  0.4711540000000 1.0
C      1  0.5063220000000  0.5479000000000  0.4711400000000 1.0
C      1  0.5788670000000  0.5000070000000  0.4897090000000 1.0
C      1  0.4897310000000  0.5788700000000  0.5000230000000 1.0
C      1  0.5000270000000  0.4897160000000  0.5788680000000 1.0
C      1  0.4211340000000  0.4999900000000  0.4896990000000 1.0
C      1  0.4211330000000  0.5000650000000  0.5102910000000 1.0
C      1  0.5788660000000  0.4999380000000  0.5103010000000 1.0
C      1  0.5102690000000  0.4211300000000  0.5000490000000 1.0
C      1  0.5103240000000  0.5788630000000  0.4999520000000 1.0
C      1  0.4896760000000  0.4211370000000  0.4999760000000 1.0
C      1  0.4999620000000  0.5103090000000  0.5788650000000 1.0
C      1  0.4999650000000  0.4896910000000  0.4211350000000 1.0
C      1  0.5000450000000  0.5102840000000  0.4211320000000 1.0
C      1  0.5000640000000  0.5788650000000  0.4896910000000 1.0
C      1  0.5788630000000  0.4896760000000  0.5000430000000 1.0
C      1  0.4896990000000  0.5000520000000  0.5788660000000 1.0
C      1  0.4999370000000  0.4211320000000  0.4897160000000 1.0
C      1  0.5000080000000  0.4211350000000  0.5103090000000 1.0
C      1  0.4999910000000  0.5788680000000  0.5102840000000 1.0
C      1  0.4211370000000  0.5103240000000  0.5000290000000 1.0
C      1  0.5788700000000  0.5102690000000  0.4999670000000 1.0
C      1  0.4211300000000  0.4897310000000  0.4999600000000 1.0
C      1  0.5102910000000  0.4999730000000  0.5788670000000 1.0
C      1  0.4897090000000  0.4999550000000  0.4211330000000 1.0
C      1  0.5103020000000  0.5000200000000  0.4211340000000 1.0
C      1  0.5199730000000  0.4311420000000  0.4993770000000 1.0
C      1  0.4993770000000  0.5199860000000  0.4311460000000 1.0
C      1  0.4311470000000  0.4993920000000  0.5199920000000 1.0
C      1  0.4800270000000  0.5688580000000  0.4993530000000 1.0
C      1  0.4799790000000  0.4311560000000  0.5006450000000 1.0
C      1  0.5200210000000  0.5688440000000  0.5006250000000 1.0
C      1  0.5006330000000  0.4799920000000  0.4311520000000 1.0
C      1  0.5006370000000  0.5200070000000  0.5688480000000 1.0
C      1  0.4993540000000  0.4800150000000  0.5688540000000 1.0
C      1  0.5688500000000  0.5006140000000  0.5200010000000 1.0
C      1  0.5688520000000  0.4993380000000  0.4800080000000 1.0
C      1  0.4311500000000  0.5006560000000  0.4799990000000 1.0
C      1  0.4311560000000  0.5200200000000  0.4993570000000 1.0
C      1  0.5200010000000  0.4993470000000  0.4311500000000 1.0
C      1  0.4993400000000  0.4311520000000  0.5200070000000 1.0
C      1  0.5688440000000  0.4799790000000  0.4993730000000 1.0
C      1  0.4311420000000  0.4800270000000  0.5006340000000 1.0
C      1  0.5688580000000  0.5199730000000  0.5006360000000 1.0
C      1  0.4800080000000  0.5006310000000  0.4311470000000 1.0
C      1  0.5199920000000  0.5006390000000  0.5688520000000 1.0
C      1  0.4799990000000  0.4993830000000  0.5688500000000 1.0
C      1  0.5006580000000  0.5688540000000  0.5199860000000 1.0
C      1  0.4993900000000  0.5688480000000  0.4799920000000 1.0
C      1  0.5006120000000  0.4311450000000  0.4800140000000 1.0
C      1  0.4714530000000  0.4509120000000  0.5387720000000 1.0
C      1  0.5387590000000  0.4714510000000  0.4509020000000 1.0
C      1  0.4509110000000  0.5387780000000  0.4714630000000 1.0
C      1  0.5285420000000  0.5491010000000  0.5387600000000 1.0
C      1  0.5285130000000  0.4508790000000  0.4612440000000 1.0
C      1  0.4714920000000  0.5491080000000  0.4612250000000 1.0
C      1  0.4612470000000  0.5285330000000  0.4508880000000 1.0
C      1  0.4612210000000  0.4714940000000  0.5491070000000 1.0
C      1  0.5387730000000  0.5285220000000  0.5491030000000 1.0
C      1  0.5490930000000  0.4612130000000  0.4714820000000 1.0
C      1  0.5491160000000  0.5387530000000  0.5285250000000 1.0
C      1  0.4508800000000  0.4612560000000  0.5285310000000 1.0
C      1  0.4508830000000  0.4714950000000  0.5387670000000 1.0
C      1  0.4714890000000  0.5387680000000  0.4508870000000 1.0
C      1  0.5387510000000  0.4508770000000  0.4714830000000 1.0
C      1  0.5491120000000  0.5285170000000  0.5387650000000 1.0
C      1  0.4509080000000  0.5285390000000  0.4612260000000 1.0
C      1  0.5490970000000  0.4714490000000  0.4612420000000 1.0
C      1  0.5285170000000  0.4612160000000  0.4509030000000 1.0
C      1  0.4714560000000  0.4612520000000  0.5491090000000 1.0
C      1  0.5285380000000  0.5387640000000  0.5491000000000 1.0
C      1  0.4612530000000  0.5491140000000  0.4714620000000 1.0
C      1  0.5387810000000  0.5490960000000  0.5285230000000 1.0
C      1  0.4612150000000  0.4509130000000  0.5285330000000 1.0
C      1  0.5342590000000  0.5034940000000  0.4757730000000 1.0
C      1  0.4757830000000  0.5342650000000  0.5035030000000 1.0
C      1  0.5034990000000  0.4757760000000  0.5342600000000 1.0
C      1  0.4657450000000  0.4964980000000  0.4757700000000 1.0
C      1  0.4657440000000  0.5035260000000  0.5242250000000 1.0
C      1  0.5342530000000  0.4964820000000  0.5242310000000 1.0
C      1  0.5242160000000  0.4657360000000  0.5035170000000 1.0
C      1  0.5242400000000  0.5342470000000  0.4964860000000 1.0
C      1  0.4757600000000  0.4657520000000  0.4964940000000 1.0
C      1  0.4964960000000  0.5242350000000  0.5342520000000 1.0
C      1  0.4964840000000  0.4757670000000  0.4657480000000 1.0
C      1  0.5035210000000  0.5242220000000  0.4657410000000 1.0
C      1  0.5035240000000  0.5342510000000  0.4757670000000 1.0
C      1  0.5342470000000  0.4757600000000  0.5035160000000 1.0
C      1  0.4757710000000  0.5035240000000  0.5342540000000 1.0
C      1  0.4964800000000  0.4657420000000  0.4757770000000 1.0
C      1  0.5034970000000  0.4657470000000  0.5242340000000 1.0
C      1  0.4965000000000  0.5342610000000  0.5242230000000 1.0
C      1  0.4657520000000  0.5242410000000  0.5035040000000 1.0
C      1  0.5342640000000  0.5242160000000  0.4964880000000 1.0
C      1  0.4657360000000  0.4757830000000  0.4964910000000 1.0
C      1  0.5242250000000  0.4964870000000  0.5342580000000 1.0
C      1  0.4757730000000  0.4964930000000  0.4657430000000 1.0
C      1  0.5242320000000  0.5034960000000  0.4657450000000 1.0
C      1  0.5588390000000  0.4796540000000  0.5098710000000 1.0
C      1  0.5098860000000  0.5588400000000  0.4796640000000 1.0
C      1  0.4796720000000  0.5098810000000  0.5588440000000 1.0
C      1  0.4411590000000  0.5203490000000  0.5098570000000 1.0
C      1  0.4411460000000  0.4796920000000  0.4901350000000 1.0
C      1  0.5588550000000  0.5203050000000  0.4901360000000 1.0
C      1  0.4901160000000  0.4411530000000  0.4796810000000 1.0
C      1  0.4901550000000  0.5588540000000  0.5203170000000 1.0
C      1  0.5098430000000  0.4411530000000  0.5203370000000 1.0
C      1  0.5203200000000  0.4901380000000  0.5588500000000 1.0
C      1  0.5203350000000  0.5098480000000  0.4411530000000 1.0
C      1  0.4796730000000  0.4901330000000  0.4411530000000 1.0
C      1  0.4796920000000  0.5588560000000  0.5098540000000 1.0
C      1  0.5588520000000  0.5098410000000  0.4796750000000 1.0
C      1  0.5098530000000  0.4796790000000  0.5588510000000 1.0
C      1  0.5203060000000  0.4411470000000  0.5098750000000 1.0
C      1  0.4796530000000  0.4411580000000  0.4901440000000 1.0
C      1  0.5203480000000  0.5588380000000  0.4901280000000 1.0
C      1  0.4411510000000  0.4901530000000  0.4796700000000 1.0
C      1  0.5588420000000  0.4901180000000  0.5203330000000 1.0
C      1  0.4411550000000  0.5098880000000  0.5203220000000 1.0
C      1  0.4901390000000  0.5203400000000  0.5588430000000 1.0
C      1  0.5098750000000  0.5203150000000  0.4411500000000 1.0
C      1  0.4901320000000  0.4796670000000  0.4411550000000 1.0
C      1  0.4503330000000  0.4963070000000  0.5397920000000 1.0
C      1  0.5397780000000  0.4503220000000  0.4962940000000 1.0
C      1  0.4963000000000  0.5397880000000  0.4503300000000 1.0
C      1  0.5496620000000  0.5037060000000  0.5397980000000 1.0
C      1  0.5496650000000  0.4962600000000  0.4602090000000 1.0
C      1  0.4503400000000  0.5037280000000  0.4602010000000 1.0
C      1  0.4602230000000  0.5496770000000  0.4962730000000 1.0
C      1  0.4601870000000  0.4503510000000  0.5037220000000 1.0
C      1  0.5398120000000  0.5496500000000  0.5037110000000 1.0
C      1  0.5037060000000  0.4601960000000  0.4503430000000 1.0
C      1  0.5037270000000  0.5398020000000  0.5496580000000 1.0
C      1  0.4962660000000  0.4602140000000  0.5496700000000 1.0
C      1  0.4962630000000  0.4503440000000  0.5398030000000 1.0
C      1  0.4503510000000  0.5398120000000  0.4962740000000 1.0
C      1  0.5397970000000  0.4962620000000  0.4503400000000 1.0
C      1  0.5037310000000  0.5496690000000  0.5397870000000 1.0
C      1  0.4963030000000  0.5496590000000  0.4601970000000 1.0
C      1  0.5037020000000  0.4503290000000  0.4602130000000 1.0
C      1  0.5496500000000  0.4601870000000  0.4962930000000 1.0
C      1  0.4503220000000  0.4602230000000  0.5037200000000 1.0
C      1  0.5496770000000  0.5397780000000  0.5037140000000 1.0
C      1  0.4602100000000  0.5037230000000  0.4503330000000 1.0
C      1  0.5397930000000  0.5037110000000  0.5496660000000 1.0
C      1  0.4602000000000  0.4963050000000  0.5496620000000 1.0
END
