TITL C-102689-8077-8 0.0197163147414042 1000000 -1728.70229850694 0 0 240 (Th) n - 1
REM
REM in /home/chem/mssmkc/work/GAP20/Larger-Clusters/Only-C240-new-series
REM
REM
REM
REM
REM
REM ./C.cell (0485df7495ed2a90f93db84a705cd676)
REM
REM compiler GCC version 8.3.0
REM options -cpp -mtune=generic -march=x86-64 -g -O0
REM seed -30735607 1781446658 -1249967835 -215594044 200042218 -1049277394 1211332164 1642770438 995920268 -432838473 39530853 318162473 -872810892 -1363674046 823573406 -184384308 772349668 2094318119 -163004599 1712327137 1148644480 -1840638228 1496708347 -147691786 1610623136 -102464240 -701364475 991916630 242040708 2142089538 1873182611 821787251 122053411
REM
CELL 1.54180  100.00000  100.00000  100.00000   90.00000   90.00000   90.00000
LATT -1
SFAC C  
C      1  0.4637710000000  0.5137560000000  0.5683150000000 1.0
C      1  0.5137620000000  0.5683160000000  0.4637750000000 1.0
C      1  0.5683130000000  0.4637690000000  0.5137580000000 1.0
C      1  0.4637720000000  0.4862460000000  0.4316840000000 1.0
C      1  0.5362300000000  0.5137620000000  0.4316870000000 1.0
C      1  0.5362270000000  0.4862360000000  0.5683140000000 1.0
C      1  0.5137560000000  0.4316830000000  0.5362250000000 1.0
C      1  0.4862430000000  0.5683130000000  0.5362320000000 1.0
C      1  0.4862390000000  0.4316880000000  0.4637670000000 1.0
C      1  0.5683160000000  0.5362270000000  0.4862440000000 1.0
C      1  0.4316850000000  0.4637740000000  0.4862380000000 1.0
C      1  0.4316870000000  0.5362300000000  0.5137600000000 1.0
C      1  0.5362280000000  0.5137540000000  0.5683160000000 1.0
C      1  0.4862440000000  0.5683170000000  0.4637750000000 1.0
C      1  0.4316840000000  0.4637730000000  0.5137560000000 1.0
C      1  0.5362290000000  0.4862440000000  0.4316850000000 1.0
C      1  0.4637730000000  0.5137640000000  0.4316860000000 1.0
C      1  0.4637700000000  0.4862380000000  0.5683130000000 1.0
C      1  0.4862380000000  0.4316840000000  0.5362250000000 1.0
C      1  0.5137610000000  0.5683120000000  0.5362330000000 1.0
C      1  0.5137570000000  0.4316870000000  0.4637680000000 1.0
C      1  0.4316870000000  0.5362310000000  0.4862420000000 1.0
C      1  0.5683130000000  0.4637700000000  0.4862400000000 1.0
C      1  0.5683150000000  0.5362260000000  0.5137620000000 1.0
C      1  0.5504400000000  0.5072180000000  0.4511810000000 1.0
C      1  0.5072150000000  0.4511770000000  0.5504360000000 1.0
C      1  0.4511810000000  0.5504400000000  0.5072190000000 1.0
C      1  0.5504380000000  0.4927790000000  0.5488200000000 1.0
C      1  0.4495610000000  0.5072160000000  0.5488200000000 1.0
C      1  0.4495620000000  0.4927870000000  0.4511790000000 1.0
C      1  0.5072190000000  0.5488220000000  0.4495640000000 1.0
C      1  0.4927820000000  0.4511830000000  0.4495580000000 1.0
C      1  0.4927840000000  0.5488170000000  0.5504410000000 1.0
C      1  0.4511790000000  0.4495630000000  0.4927800000000 1.0
C      1  0.5488220000000  0.5504380000000  0.4927860000000 1.0
C      1  0.5488180000000  0.4495590000000  0.5072150000000 1.0
C      1  0.4495620000000  0.5072210000000  0.4511800000000 1.0
C      1  0.4927810000000  0.4511780000000  0.5504360000000 1.0
C      1  0.5488210000000  0.5504370000000  0.5072200000000 1.0
C      1  0.4495600000000  0.4927820000000  0.5488190000000 1.0
C      1  0.5504380000000  0.5072130000000  0.5488210000000 1.0
C      1  0.5504390000000  0.4927840000000  0.4511800000000 1.0
C      1  0.4927850000000  0.5488230000000  0.4495640000000 1.0
C      1  0.5072160000000  0.4511830000000  0.4495590000000 1.0
C      1  0.5072180000000  0.5488170000000  0.5504420000000 1.0
C      1  0.5488190000000  0.4495600000000  0.4927810000000 1.0
C      1  0.4511820000000  0.5504410000000  0.4927850000000 1.0
C      1  0.4511780000000  0.4495620000000  0.5072140000000 1.0
C      1  0.5141170000000  0.5627740000000  0.5131280000000 1.0
C      1  0.5627750000000  0.5131220000000  0.5141170000000 1.0
C      1  0.5131240000000  0.5141120000000  0.5627760000000 1.0
C      1  0.5141140000000  0.4372250000000  0.4868730000000 1.0
C      1  0.4858860000000  0.5627760000000  0.4868790000000 1.0
C      1  0.4858820000000  0.4372240000000  0.5131210000000 1.0
C      1  0.5627750000000  0.4868750000000  0.4858840000000 1.0
C      1  0.4372250000000  0.5131270000000  0.4858840000000 1.0
C      1  0.4372240000000  0.4868770000000  0.5141140000000 1.0
C      1  0.5131250000000  0.4858870000000  0.4372240000000 1.0
C      1  0.4868770000000  0.5141190000000  0.4372250000000 1.0
C      1  0.4868750000000  0.4858810000000  0.5627740000000 1.0
C      1  0.4858860000000  0.5627750000000  0.5131270000000 1.0
C      1  0.4372250000000  0.5131250000000  0.5141160000000 1.0
C      1  0.4868750000000  0.5141130000000  0.5627760000000 1.0
C      1  0.4858830000000  0.4372260000000  0.4868720000000 1.0
C      1  0.5141180000000  0.5627760000000  0.4868790000000 1.0
C      1  0.5141140000000  0.4372240000000  0.5131210000000 1.0
C      1  0.4372250000000  0.4868780000000  0.4858830000000 1.0
C      1  0.5627760000000  0.5131230000000  0.4858860000000 1.0
C      1  0.5627750000000  0.4868730000000  0.5141160000000 1.0
C      1  0.4868760000000  0.4858880000000  0.4372240000000 1.0
C      1  0.5131250000000  0.5141190000000  0.4372260000000 1.0
C      1  0.5131230000000  0.4858810000000  0.5627750000000 1.0
C      1  0.5071640000000  0.4927740000000  0.4479790000000 1.0
C      1  0.4927700000000  0.4479790000000  0.5071610000000 1.0
C      1  0.4479800000000  0.5071660000000  0.4927710000000 1.0
C      1  0.5071630000000  0.5072250000000  0.5520210000000 1.0
C      1  0.4928350000000  0.4927690000000  0.5520200000000 1.0
C      1  0.4928370000000  0.5072310000000  0.4479800000000 1.0
C      1  0.4927730000000  0.5520210000000  0.4928390000000 1.0
C      1  0.5072270000000  0.4479800000000  0.4928330000000 1.0
C      1  0.5072300000000  0.5520200000000  0.5071670000000 1.0
C      1  0.4479790000000  0.4928370000000  0.5072270000000 1.0
C      1  0.5520200000000  0.5071620000000  0.5072290000000 1.0
C      1  0.5520200000000  0.4928350000000  0.4927720000000 1.0
C      1  0.4928370000000  0.4927750000000  0.4479790000000 1.0
C      1  0.5072270000000  0.4479790000000  0.5071610000000 1.0
C      1  0.5520210000000  0.5071630000000  0.4927730000000 1.0
C      1  0.4928360000000  0.5072260000000  0.5520210000000 1.0
C      1  0.5071630000000  0.4927690000000  0.5520200000000 1.0
C      1  0.5071650000000  0.5072310000000  0.4479800000000 1.0
C      1  0.5072300000000  0.5520210000000  0.4928390000000 1.0
C      1  0.4927700000000  0.4479800000000  0.4928330000000 1.0
C      1  0.4927730000000  0.5520200000000  0.5071670000000 1.0
C      1  0.5520200000000  0.4928340000000  0.5072290000000 1.0
C      1  0.4479800000000  0.5071650000000  0.5072280000000 1.0
C      1  0.4479800000000  0.4928380000000  0.4927710000000 1.0
C      1  0.5566050000000  0.5422480000000  0.5164450000000 1.0
C      1  0.5422500000000  0.5164380000000  0.5566060000000 1.0
C      1  0.5164430000000  0.5566020000000  0.5422540000000 1.0
C      1  0.5566030000000  0.4577490000000  0.4835560000000 1.0
C      1  0.4433970000000  0.5422530000000  0.4835590000000 1.0
C      1  0.4433940000000  0.4577500000000  0.5164390000000 1.0
C      1  0.5422510000000  0.4835600000000  0.4433950000000 1.0
C      1  0.4577510000000  0.5164470000000  0.4433960000000 1.0
C      1  0.4577480000000  0.4835560000000  0.5566030000000 1.0
C      1  0.5164410000000  0.4433970000000  0.4577470000000 1.0
C      1  0.4835600000000  0.5566070000000  0.4577520000000 1.0
C      1  0.4835550000000  0.4433940000000  0.5422470000000 1.0
C      1  0.4433970000000  0.5422510000000  0.5164440000000 1.0
C      1  0.4577490000000  0.5164400000000  0.5566050000000 1.0
C      1  0.4835590000000  0.5566030000000  0.5422530000000 1.0
C      1  0.4433950000000  0.4577520000000  0.4835550000000 1.0
C      1  0.5566060000000  0.5422500000000  0.4835610000000 1.0
C      1  0.5566030000000  0.4577470000000  0.5164410000000 1.0
C      1  0.4577500000000  0.4835620000000  0.4433940000000 1.0
C      1  0.5422520000000  0.5164440000000  0.4433970000000 1.0
C      1  0.5422490000000  0.4835530000000  0.5566040000000 1.0
C      1  0.4835570000000  0.4433980000000  0.4577460000000 1.0
C      1  0.5164450000000  0.5566060000000  0.4577530000000 1.0
C      1  0.5164400000000  0.4433930000000  0.5422480000000 1.0
C      1  0.4925180000000  0.5273010000000  0.4383790000000 1.0
C      1  0.5272960000000  0.4383770000000  0.4925140000000 1.0
C      1  0.4383770000000  0.4925170000000  0.5272960000000 1.0
C      1  0.4925150000000  0.4726990000000  0.5616210000000 1.0
C      1  0.5074830000000  0.5272940000000  0.5616240000000 1.0
C      1  0.5074840000000  0.4727060000000  0.4383760000000 1.0
C      1  0.5272990000000  0.5616210000000  0.5074870000000 1.0
C      1  0.4727010000000  0.4383780000000  0.5074800000000 1.0
C      1  0.4727050000000  0.5616240000000  0.4925190000000 1.0
C      1  0.4383780000000  0.5074870000000  0.4727020000000 1.0
C      1  0.5616230000000  0.4925160000000  0.4727030000000 1.0
C      1  0.5616220000000  0.5074800000000  0.5272990000000 1.0
C      1  0.5074850000000  0.5273010000000  0.4383790000000 1.0
C      1  0.4727010000000  0.4383790000000  0.4925130000000 1.0
C      1  0.5616220000000  0.4925130000000  0.5272980000000 1.0
C      1  0.5074820000000  0.4726990000000  0.5616210000000 1.0
C      1  0.4925160000000  0.5272940000000  0.5616240000000 1.0
C      1  0.4925170000000  0.4727060000000  0.4383760000000 1.0
C      1  0.4727040000000  0.5616230000000  0.5074860000000 1.0
C      1  0.5272950000000  0.4383760000000  0.5074810000000 1.0
C      1  0.5272990000000  0.5616220000000  0.4925200000000 1.0
C      1  0.5616230000000  0.5074830000000  0.4727040000000 1.0
C      1  0.4383780000000  0.4925200000000  0.4727010000000 1.0
C      1  0.4383770000000  0.5074840000000  0.5272970000000 1.0
C      1  0.4624290000000  0.4447330000000  0.5146230000000 1.0
C      1  0.4447330000000  0.5146310000000  0.4624310000000 1.0
C      1  0.5146270000000  0.4624340000000  0.4447310000000 1.0
C      1  0.4624330000000  0.5552700000000  0.4853750000000 1.0
C      1  0.5375670000000  0.4447320000000  0.4853710000000 1.0
C      1  0.5375700000000  0.5552660000000  0.5146300000000 1.0
C      1  0.4447310000000  0.4853730000000  0.5375670000000 1.0
C      1  0.5552680000000  0.5146230000000  0.5375700000000 1.0
C      1  0.5552680000000  0.4853730000000  0.4624310000000 1.0
C      1  0.5146270000000  0.5375660000000  0.5552700000000 1.0
C      1  0.4853710000000  0.4624290000000  0.5552650000000 1.0
C      1  0.4853750000000  0.5375720000000  0.4447340000000 1.0
C      1  0.5375670000000  0.4447300000000  0.5146250000000 1.0
C      1  0.5552690000000  0.5146270000000  0.4624330000000 1.0
C      1  0.4853730000000  0.4624340000000  0.4447300000000 1.0
C      1  0.5375710000000  0.5552670000000  0.4853770000000 1.0
C      1  0.4624300000000  0.4447340000000  0.4853700000000 1.0
C      1  0.4624330000000  0.5552680000000  0.5146290000000 1.0
C      1  0.5552670000000  0.4853690000000  0.5375690000000 1.0
C      1  0.4447320000000  0.5146270000000  0.5375690000000 1.0
C      1  0.4447320000000  0.4853770000000  0.4624300000000 1.0
C      1  0.4853730000000  0.5375660000000  0.5552690000000 1.0
C      1  0.5146250000000  0.4624280000000  0.5552660000000 1.0
C      1  0.5146290000000  0.5375710000000  0.4447350000000 1.0
C      1  0.4518100000000  0.5390680000000  0.5280920000000 1.0
C      1  0.5390700000000  0.5280920000000  0.4518110000000 1.0
C      1  0.5280890000000  0.4518060000000  0.5390660000000 1.0
C      1  0.4518080000000  0.4609350000000  0.4719060000000 1.0
C      1  0.5481920000000  0.5390680000000  0.4719120000000 1.0
C      1  0.5481890000000  0.4609290000000  0.5280900000000 1.0
C      1  0.5390670000000  0.4719050000000  0.5481900000000 1.0
C      1  0.4609320000000  0.5280900000000  0.5481920000000 1.0
C      1  0.4609320000000  0.4719130000000  0.4518070000000 1.0
C      1  0.5280930000000  0.5481920000000  0.4609350000000 1.0
C      1  0.4719080000000  0.4518120000000  0.4609290000000 1.0
C      1  0.4719100000000  0.5481900000000  0.5390700000000 1.0
C      1  0.5481920000000  0.5390650000000  0.5280940000000 1.0
C      1  0.4609330000000  0.5280950000000  0.4518100000000 1.0
C      1  0.4719070000000  0.4518080000000  0.5390650000000 1.0
C      1  0.5481900000000  0.4609320000000  0.4719080000000 1.0
C      1  0.4518110000000  0.5390710000000  0.4719100000000 1.0
C      1  0.4518080000000  0.4609320000000  0.5280880000000 1.0
C      1  0.4609300000000  0.4719080000000  0.5481890000000 1.0
C      1  0.5390680000000  0.5280870000000  0.5481930000000 1.0
C      1  0.5390680000000  0.4719100000000  0.4518080000000 1.0
C      1  0.4719110000000  0.5481940000000  0.4609340000000 1.0
C      1  0.5280900000000  0.4518100000000  0.4609300000000 1.0
C      1  0.5280920000000  0.5481880000000  0.5390710000000 1.0
C      1  0.5072620000000  0.5682490000000  0.5243290000000 1.0
C      1  0.5682510000000  0.5243220000000  0.5072630000000 1.0
C      1  0.5243240000000  0.5072560000000  0.5682520000000 1.0
C      1  0.5072590000000  0.4317500000000  0.4756720000000 1.0
C      1  0.4927420000000  0.5682520000000  0.4756790000000 1.0
C      1  0.4927370000000  0.4317480000000  0.5243210000000 1.0
C      1  0.5682500000000  0.4756730000000  0.4927390000000 1.0
C      1  0.4317500000000  0.5243270000000  0.4927400000000 1.0
C      1  0.4317480000000  0.4756770000000  0.5072580000000 1.0
C      1  0.5243260000000  0.4927430000000  0.4317490000000 1.0
C      1  0.4756760000000  0.5072650000000  0.4317490000000 1.0
C      1  0.4756740000000  0.4927370000000  0.5682500000000 1.0
C      1  0.4927410000000  0.5682500000000  0.5243280000000 1.0
C      1  0.4317500000000  0.5243270000000  0.5072610000000 1.0
C      1  0.4756740000000  0.5072570000000  0.5682510000000 1.0
C      1  0.4927380000000  0.4317510000000  0.4756710000000 1.0
C      1  0.5072630000000  0.5682520000000  0.4756790000000 1.0
C      1  0.5072580000000  0.4317480000000  0.5243210000000 1.0
C      1  0.4317490000000  0.4756780000000  0.4927370000000 1.0
C      1  0.5682520000000  0.5243230000000  0.4927420000000 1.0
C      1  0.5682500000000  0.4756730000000  0.5072600000000 1.0
C      1  0.4756760000000  0.4927440000000  0.4317480000000 1.0
C      1  0.5243260000000  0.5072630000000  0.4317500000000 1.0
C      1  0.5243240000000  0.4927350000000  0.5682510000000 1.0
C      1  0.4718840000000  0.4627020000000  0.5485390000000 1.0
C      1  0.4627060000000  0.5485440000000  0.4718870000000 1.0
C      1  0.5485420000000  0.4718860000000  0.4627030000000 1.0
C      1  0.4718870000000  0.5373000000000  0.4514600000000 1.0
C      1  0.5281140000000  0.4627060000000  0.4514570000000 1.0
C      1  0.5281150000000  0.5372930000000  0.5485440000000 1.0
C      1  0.4627020000000  0.4514580000000  0.5281120000000 1.0
C      1  0.5372970000000  0.5485390000000  0.5281180000000 1.0
C      1  0.5372950000000  0.4514590000000  0.4718830000000 1.0
C      1  0.5485420000000  0.5281110000000  0.5372980000000 1.0
C      1  0.4514570000000  0.4718850000000  0.5372940000000 1.0
C      1  0.4514600000000  0.5281180000000  0.4627050000000 1.0
C      1  0.5281130000000  0.4627000000000  0.5485400000000 1.0
C      1  0.5372980000000  0.5485420000000  0.4718880000000 1.0
C      1  0.4514580000000  0.4718890000000  0.4627020000000 1.0
C      1  0.5281160000000  0.5372980000000  0.4514610000000 1.0
C      1  0.4718850000000  0.4627070000000  0.4514560000000 1.0
C      1  0.4718860000000  0.5372940000000  0.5485430000000 1.0
C      1  0.5372940000000  0.4514560000000  0.5281130000000 1.0
C      1  0.4627050000000  0.5485410000000  0.5281170000000 1.0
C      1  0.4627030000000  0.4514610000000  0.4718820000000 1.0
C      1  0.4514580000000  0.5281140000000  0.5372970000000 1.0
C      1  0.5485400000000  0.4718820000000  0.5372950000000 1.0
C      1  0.5485430000000  0.5281150000000  0.4627060000000 1.0
END
