TITL C240-579269 -0.0297679156956444 1000000 -1773.47904030478 0 0 240 (C1) n - 1
REM
REM in /home/chem/mssmkc/work/CARBON/AIRSS/Generating-Clusters/Str-Search/GAP20/LAMMPS-RUNS
REM
REM
REM
REM
REM
REM C240.cell (60873f7c04303078cd73e63fc18a7159)
REM
REM
REM
REM
REM
CELL 1.54180  100.00000  100.00000  100.00000   90.00000   90.00000   90.00000
LATT -1
SFAC C  
C      1  0.4807920000000  0.4842660000000  0.5653760000000 1.0
C      1  0.5175460000000  0.5662550000000  0.4752480000000 1.0
C      1  0.4619980000000  0.5395680000000  0.4524660000000 1.0
C      1  0.4683270000000  0.5034530000000  0.5646210000000 1.0
C      1  0.5486020000000  0.5413170000000  0.4629720000000 1.0
C      1  0.4994500000000  0.5630800000000  0.5461340000000 1.0
C      1  0.4478700000000  0.4731470000000  0.5354660000000 1.0
C      1  0.5307970000000  0.5358240000000  0.4395030000000 1.0
C      1  0.4365020000000  0.4763390000000  0.4796880000000 1.0
C      1  0.5652910000000  0.4829000000000  0.5104820000000 1.0
C      1  0.4771480000000  0.4833330000000  0.4258200000000 1.0
C      1  0.4934550000000  0.4313540000000  0.5185570000000 1.0
C      1  0.5652840000000  0.4762870000000  0.4787030000000 1.0
C      1  0.5354950000000  0.4431030000000  0.5256700000000 1.0
C      1  0.5195800000000  0.5215260000000  0.5666120000000 1.0
C      1  0.4327390000000  0.5203430000000  0.4759240000000 1.0
C      1  0.4660070000000  0.5581990000000  0.5341620000000 1.0
C      1  0.5163960000000  0.5680830000000  0.5201480000000 1.0
C      1  0.4555430000000  0.5350780000000  0.5407430000000 1.0
C      1  0.4897340000000  0.4320170000000  0.4761970000000 1.0
C      1  0.4589680000000  0.5490800000000  0.4629620000000 1.0
C      1  0.4800240000000  0.4355400000000  0.5195860000000 1.0
C      1  0.5243750000000  0.4615420000000  0.5572000000000 1.0
C      1  0.4368400000000  0.5298100000000  0.4974810000000 1.0
C      1  0.5262990000000  0.4918770000000  0.5671130000000 1.0
C      1  0.4828920000000  0.4299090000000  0.4890750000000 1.0
C      1  0.5500940000000  0.4799770000000  0.4597240000000 1.0
C      1  0.5029220000000  0.5702340000000  0.5169070000000 1.0
C      1  0.5351620000000  0.4612370000000  0.4538270000000 1.0
C      1  0.5438640000000  0.4939090000000  0.5557980000000 1.0
C      1  0.4551320000000  0.4561420000000  0.4553230000000 1.0
C      1  0.5005200000000  0.4458750000000  0.5456260000000 1.0
C      1  0.5545810000000  0.5317400000000  0.5347770000000 1.0
C      1  0.5439770000000  0.4500750000000  0.4762760000000 1.0
C      1  0.5340650000000  0.5031040000000  0.5617430000000 1.0
C      1  0.4684880000000  0.5059360000000  0.4363460000000 1.0
C      1  0.5063640000000  0.4353630000000  0.5244010000000 1.0
C      1  0.4760370000000  0.4584610000000  0.5569160000000 1.0
C      1  0.4808430000000  0.4981390000000  0.5686790000000 1.0
C      1  0.4772040000000  0.5450590000000  0.5517020000000 1.0
C      1  0.4808210000000  0.5222270000000  0.4355890000000 1.0
C      1  0.5130650000000  0.4309590000000  0.5118970000000 1.0
C      1  0.4335980000000  0.4799090000000  0.4933980000000 1.0
C      1  0.4568260000000  0.4648560000000  0.5432110000000 1.0
C      1  0.5185200000000  0.4809880000000  0.4368730000000 1.0
C      1  0.4890470000000  0.5209800000000  0.5714390000000 1.0
C      1  0.5303920000000  0.4547320000000  0.5456970000000 1.0
C      1  0.4648500000000  0.5378790000000  0.5516950000000 1.0
C      1  0.5514220000000  0.4690290000000  0.5376480000000 1.0
C      1  0.4901970000000  0.5678630000000  0.5240030000000 1.0
C      1  0.5365370000000  0.5374380000000  0.5473530000000 1.0
C      1  0.5144550000000  0.5122290000000  0.5752880000000 1.0
C      1  0.5413270000000  0.5055280000000  0.4427580000000 1.0
C      1  0.4526720000000  0.5478690000000  0.4754500000000 1.0
C      1  0.4607840000000  0.4948150000000  0.4394890000000 1.0
C      1  0.4612460000000  0.4938610000000  0.5562300000000 1.0
C      1  0.5690800000000  0.5176850000000  0.4957240000000 1.0
C      1  0.5026830000000  0.4283620000000  0.4821530000000 1.0
C      1  0.4826620000000  0.5080060000000  0.4322320000000 1.0
C      1  0.5257120000000  0.5467720000000  0.5488560000000 1.0
C      1  0.5670470000000  0.5456530000000  0.4923790000000 1.0
C      1  0.4314280000000  0.4896040000000  0.5153190000000 1.0
C      1  0.4534450000000  0.4695800000000  0.4508470000000 1.0
C      1  0.4682620000000  0.4518090000000  0.4529050000000 1.0
C      1  0.5430830000000  0.5534130000000  0.4791780000000 1.0
C      1  0.5479210000000  0.4459680000000  0.5307170000000 1.0
C      1  0.4530740000000  0.4536250000000  0.5225590000000 1.0
C      1  0.5183240000000  0.4956490000000  0.4342490000000 1.0
C      1  0.4759500000000  0.5239620000000  0.5743930000000 1.0
C      1  0.5569900000000  0.4507480000000  0.5049100000000 1.0
C      1  0.4443370000000  0.5388460000000  0.5054380000000 1.0
C      1  0.4760180000000  0.4458390000000  0.5512930000000 1.0
C      1  0.4420950000000  0.4580700000000  0.4937470000000 1.0
C      1  0.5655750000000  0.4601170000000  0.4975880000000 1.0
C      1  0.4921110000000  0.5693690000000  0.4809380000000 1.0
C      1  0.5677340000000  0.5104580000000  0.5151520000000 1.0
C      1  0.5322710000000  0.4958260000000  0.4391490000000 1.0
C      1  0.5257480000000  0.5235850000000  0.4335830000000 1.0
C      1  0.5687990000000  0.5239790000000  0.5088050000000 1.0
C      1  0.4775020000000  0.5676160000000  0.4809640000000 1.0
C      1  0.5121700000000  0.5195530000000  0.4335740000000 1.0
C      1  0.5231440000000  0.4539710000000  0.4492370000000 1.0
C      1  0.4344820000000  0.5073360000000  0.4803830000000 1.0
C      1  0.5663540000000  0.4690570000000  0.5091960000000 1.0
C      1  0.5373100000000  0.4510030000000  0.4640060000000 1.0
C      1  0.4242490000000  0.4782320000000  0.5193340000000 1.0
C      1  0.5501240000000  0.5296190000000  0.4553430000000 1.0
C      1  0.5226940000000  0.5447920000000  0.4462440000000 1.0
C      1  0.5448570000000  0.5416890000000  0.5368260000000 1.0
C      1  0.5160570000000  0.4326010000000  0.4798140000000 1.0
C      1  0.5155940000000  0.5673370000000  0.4883320000000 1.0
C      1  0.4483400000000  0.5191650000000  0.4568750000000 1.0
C      1  0.4743740000000  0.4608020000000  0.4434870000000 1.0
C      1  0.5653460000000  0.5221730000000  0.4830350000000 1.0
C      1  0.4358780000000  0.5168910000000  0.5036080000000 1.0
C      1  0.4900050000000  0.4855260000000  0.4302140000000 1.0
C      1  0.4736310000000  0.5477220000000  0.4485400000000 1.0
C      1  0.5649810000000  0.4890700000000  0.4840040000000 1.0
C      1  0.4407870000000  0.5188310000000  0.5174890000000 1.0
C      1  0.5123910000000  0.4895830000000  0.5689900000000 1.0
C      1  0.4500590000000  0.4490540000000  0.4662240000000 1.0
C      1  0.4590930000000  0.5522190000000  0.5244140000000 1.0
C      1  0.5018810000000  0.5601530000000  0.4586050000000 1.0
C      1  0.5507320000000  0.5196350000000  0.5421480000000 1.0
C      1  0.4874790000000  0.4405550000000  0.5441960000000 1.0
C      1  0.4407680000000  0.5266780000000  0.4657490000000 1.0
C      1  0.4521740000000  0.5221020000000  0.5464540000000 1.0
C      1  0.4924900000000  0.5666670000000  0.4667020000000 1.0
C      1  0.4831020000000  0.5675280000000  0.5106990000000 1.0
C      1  0.5102490000000  0.5713780000000  0.5438790000000 1.0
C      1  0.5565640000000  0.4715010000000  0.4684030000000 1.0
C      1  0.5421770000000  0.4638190000000  0.5469480000000 1.0
C      1  0.5067830000000  0.4326550000000  0.4569280000000 1.0
C      1  0.5378040000000  0.5507850000000  0.4651130000000 1.0
C      1  0.4612320000000  0.4431480000000  0.4734160000000 1.0
C      1  0.5387340000000  0.5524270000000  0.5295460000000 1.0
C      1  0.5598140000000  0.5472220000000  0.5038610000000 1.0
C      1  0.4356450000000  0.4681230000000  0.5012660000000 1.0
C      1  0.4585800000000  0.4525740000000  0.5358340000000 1.0
C      1  0.4960290000000  0.4409730000000  0.4546560000000 1.0
C      1  0.5012990000000  0.5695190000000  0.4913780000000 1.0
C      1  0.5542510000000  0.5442530000000  0.4756830000000 1.0
C      1  0.5652720000000  0.4630310000000  0.4844880000000 1.0
C      1  0.5637050000000  0.5367480000000  0.4825430000000 1.0
C      1  0.4588210000000  0.5261750000000  0.4495030000000 1.0
C      1  0.4440320000000  0.4648610000000  0.5240380000000 1.0
C      1  0.5387010000000  0.5177920000000  0.4367680000000 1.0
C      1  0.5396760000000  0.5240450000000  0.5508790000000 1.0
C      1  0.4855710000000  0.4386160000000  0.4646850000000 1.0
C      1  0.5605290000000  0.4584320000000  0.5168630000000 1.0
C      1  0.5319420000000  0.4819560000000  0.4425960000000 1.0
C      1  0.4961280000000  0.5701210000000  0.5041530000000 1.0
C      1  0.5055380000000  0.5020450000000  0.5727210000000 1.0
C      1  0.5279680000000  0.5565770000000  0.5381910000000 1.0
C      1  0.5002600000000  0.4260410000000  0.5070550000000 1.0
C      1  0.4919040000000  0.5063830000000  0.5717540000000 1.0
C      1  0.4672400000000  0.4429760000000  0.5402910000000 1.0
C      1  0.4599270000000  0.5256670000000  0.5580320000000 1.0
C      1  0.5547960000000  0.4578570000000  0.5292000000000 1.0
C      1  0.4422690000000  0.5384400000000  0.4742510000000 1.0
C      1  0.4663850000000  0.5173570000000  0.5668880000000 1.0
C      1  0.5108640000000  0.4425390000000  0.5355530000000 1.0
C      1  0.5174230000000  0.4348650000000  0.4654420000000 1.0
C      1  0.4673230000000  0.5197500000000  0.4405270000000 1.0
C      1  0.4341080000000  0.5318740000000  0.4842790000000 1.0
C      1  0.4381400000000  0.4619590000000  0.4802670000000 1.0
C      1  0.4683960000000  0.4812580000000  0.5584410000000 1.0
C      1  0.5361700000000  0.4699440000000  0.5586600000000 1.0
C      1  0.4527710000000  0.5397730000000  0.5281160000000 1.0
C      1  0.5551850000000  0.4586640000000  0.4749170000000 1.0
C      1  0.4642190000000  0.4709590000000  0.4413110000000 1.0
C      1  0.4955990000000  0.4249570000000  0.4944480000000 1.0
C      1  0.5080170000000  0.5050740000000  0.4325890000000 1.0
C      1  0.5687780000000  0.5046170000000  0.5020330000000 1.0
C      1  0.5653170000000  0.5369790000000  0.5127370000000 1.0
C      1  0.5191220000000  0.5667820000000  0.5343920000000 1.0
C      1  0.5260720000000  0.5526570000000  0.4578270000000 1.0
C      1  0.4941160000000  0.4998860000000  0.4313170000000 1.0
C      1  0.4326240000000  0.4921240000000  0.5006890000000 1.0
C      1  0.4659290000000  0.4683360000000  0.5535400000000 1.0
C      1  0.5154610000000  0.5603910000000  0.4634880000000 1.0
C      1  0.5433050000000  0.5296860000000  0.4430460000000 1.0
C      1  0.4380250000000  0.4529950000000  0.4705670000000 1.0
C      1  0.4457730000000  0.5326990000000  0.5181530000000 1.0
C      1  0.4340930000000  0.4690680000000  0.5151860000000 1.0
C      1  0.4783940000000  0.4372340000000  0.5332470000000 1.0
C      1  0.4724490000000  0.4435330000000  0.4636500000000 1.0
C      1  0.5669080000000  0.4916450000000  0.4985170000000 1.0
C      1  0.5394590000000  0.4743310000000  0.4515360000000 1.0
C      1  0.4339060000000  0.5051860000000  0.4952170000000 1.0
C      1  0.5634730000000  0.5352780000000  0.5258280000000 1.0
C      1  0.4662280000000  0.4825780000000  0.4340860000000 1.0
C      1  0.5316700000000  0.5166280000000  0.5598670000000 1.0
C      1  0.4768640000000  0.5557910000000  0.5415100000000 1.0
C      1  0.4778780000000  0.5657140000000  0.4663800000000 1.0
C      1  0.4882690000000  0.5632680000000  0.5371000000000 1.0
C      1  0.5368720000000  0.4828470000000  0.5624970000000 1.0
C      1  0.5250080000000  0.4464360000000  0.5357240000000 1.0
C      1  0.5260510000000  0.4436510000000  0.4591870000000 1.0
C      1  0.4699830000000  0.5575910000000  0.4588370000000 1.0
C      1  0.4987940000000  0.5508710000000  0.4482830000000 1.0
C      1  0.5091910000000  0.5429150000000  0.4428950000000 1.0
C      1  0.5614130000000  0.4887500000000  0.5233950000000 1.0
C      1  0.5621860000000  0.5031890000000  0.5254920000000 1.0
C      1  0.4570820000000  0.5537670000000  0.4878810000000 1.0
C      1  0.4888700000000  0.4622700000000  0.5605580000000 1.0
C      1  0.5091420000000  0.4711190000000  0.4377700000000 1.0
C      1  0.5386570000000  0.5567500000000  0.5158390000000 1.0
C      1  0.5259950000000  0.4363820000000  0.4897450000000 1.0
C      1  0.5607870000000  0.4985160000000  0.4737530000000 1.0
C      1  0.5039750000000  0.5309470000000  0.4366790000000 1.0
C      1  0.5010460000000  0.5511890000000  0.5538130000000 1.0
C      1  0.5514270000000  0.4941610000000  0.5441390000000 1.0
C      1  0.5551810000000  0.5067430000000  0.5380570000000 1.0
C      1  0.5008220000000  0.4560380000000  0.5558420000000 1.0
C      1  0.4517660000000  0.4966640000000  0.5458990000000 1.0
C      1  0.4456760000000  0.4871660000000  0.5363920000000 1.0
C      1  0.4605170000000  0.5558400000000  0.5109390000000 1.0
C      1  0.5114580000000  0.4646380000000  0.5603130000000 1.0
C      1  0.4863360000000  0.5446990000000  0.4442360000000 1.0
C      1  0.4915840000000  0.4753450000000  0.5654180000000 1.0
C      1  0.4700410000000  0.4386380000000  0.5094120000000 1.0
C      1  0.4719620000000  0.4358850000000  0.4952740000000 1.0
C      1  0.4954130000000  0.4732870000000  0.4353400000000 1.0
C      1  0.4424370000000  0.5089190000000  0.5275860000000 1.0
C      1  0.4391550000000  0.4951570000000  0.5259050000000 1.0
C      1  0.4964490000000  0.5315270000000  0.5652390000000 1.0
C      1  0.5351280000000  0.4405260000000  0.5114890000000 1.0
C      1  0.4902050000000  0.5427220000000  0.5578340000000 1.0
C      1  0.5110890000000  0.4580000000000  0.4438610000000 1.0
C      1  0.4612160000000  0.4420380000000  0.4875250000000 1.0
C      1  0.4979270000000  0.4523690000000  0.4461950000000 1.0
C      1  0.5502320000000  0.5050270000000  0.4538470000000 1.0
C      1  0.5469960000000  0.5537540000000  0.5042470000000 1.0
C      1  0.5609270000000  0.5131500000000  0.4729310000000 1.0
C      1  0.4711930000000  0.5632800000000  0.5048440000000 1.0
C      1  0.5546010000000  0.5169270000000  0.4603740000000 1.0
C      1  0.4512500000000  0.4940670000000  0.4501570000000 1.0
C      1  0.4522480000000  0.4488070000000  0.4971520000000 1.0
C      1  0.4578090000000  0.4467340000000  0.5107890000000 1.0
C      1  0.4686590000000  0.5625110000000  0.4902360000000 1.0
C      1  0.5393150000000  0.5575400000000  0.4920850000000 1.0
C      1  0.4881560000000  0.4618330000000  0.4408710000000 1.0
C      1  0.4392530000000  0.4990290000000  0.4696690000000 1.0
C      1  0.4402150000000  0.4845830000000  0.4688260000000 1.0
C      1  0.5239870000000  0.4350830000000  0.5045200000000 1.0
C      1  0.4474520000000  0.4813840000000  0.4561870000000 1.0
C      1  0.5449500000000  0.4445720000000  0.5015060000000 1.0
C      1  0.5388400000000  0.4431750000000  0.4880830000000 1.0
C      1  0.4524670000000  0.5496340000000  0.5010120000000 1.0
C      1  0.5137190000000  0.5443670000000  0.5558220000000 1.0
C      1  0.4897790000000  0.5322350000000  0.4375730000000 1.0
C      1  0.5058860000000  0.4771970000000  0.5659760000000 1.0
C      1  0.4486060000000  0.5101010000000  0.5407940000000 1.0
C      1  0.5266540000000  0.5638190000000  0.4968580000000 1.0
C      1  0.5266830000000  0.5636930000000  0.5110730000000 1.0
C      1  0.5107780000000  0.5322540000000  0.5632140000000 1.0
C      1  0.5551570000000  0.4828520000000  0.5352880000000 1.0
C      1  0.5538430000000  0.4936340000000  0.4617260000000 1.0
C      1  0.4459850000000  0.5049550000000  0.4580590000000 1.0
END
