TITL C-102689-8077-60 27.0948637674601 1000000 -1709.58736577267 0 0 240 (C1) n - 1
REM
REM in /home/chem/mssmkc/work/GAP20/Larger-Clusters/Only-C240-new-series
REM
REM
REM
REM
REM
REM ./C.cell (0485df7495ed2a90f93db84a705cd676)
REM
REM compiler GCC version 8.3.0
REM options -cpp -mtune=generic -march=x86-64 -g -O0
REM seed 954044557 -276645909 -1601575430 -1120367712 1154704006 -1139042037 363611357 -84559042 1399815224 -43816739 1550444029 -286581058 441478904 559687237 -1505246567 -728433393 -379971591 1860858746 746436861 583146907 1213297291 -951264047 279158348 328045613 -2079343861 -394963935 -759283109 -1861501207 -1767568987 1587438985 685324211 -1366223705 588414417
REM
CELL 1.54180  100.00000  100.00000  100.00000   90.00000   90.00000   90.00000
LATT -1
SFAC C  
C      1  0.4353090000000  0.4931640000000  0.4805070000000 1.0
C      1  0.4805110000000  0.4353450000000  0.4918110000000 1.0
C      1  0.4925740000000  0.4795230000000  0.4369440000000 1.0
C      1  0.5625010000000  0.4923980000000  0.5204360000000 1.0
C      1  0.4361140000000  0.5070100000000  0.5196520000000 1.0
C      1  0.5626280000000  0.5076060000000  0.4796960000000 1.0
C      1  0.5195790000000  0.4361550000000  0.5078570000000 1.0
C      1  0.4800120000000  0.5640810000000  0.5077400000000 1.0
C      1  0.5198820000000  0.5636370000000  0.4920710000000 1.0
C      1  0.5066600000000  0.4801440000000  0.5640840000000 1.0
C      1  0.4922760000000  0.5206580000000  0.5629440000000 1.0
C      1  0.5071760000000  0.5197110000000  0.4353000000000 1.0
C      1  0.4355300000000  0.5079680000000  0.4805010000000 1.0
C      1  0.4800260000000  0.5640000000000  0.4928090000000 1.0
C      1  0.4923890000000  0.5195450000000  0.4355990000000 1.0
C      1  0.5625060000000  0.5074680000000  0.5204510000000 1.0
C      1  0.4362820000000  0.4920360000000  0.5194020000000 1.0
C      1  0.5626090000000  0.4925360000000  0.4796760000000 1.0
C      1  0.5201790000000  0.5641470000000  0.5070370000000 1.0
C      1  0.4805500000000  0.4351420000000  0.5065940000000 1.0
C      1  0.5199820000000  0.4358920000000  0.4928800000000 1.0
C      1  0.5073450000000  0.5205360000000  0.5632500000000 1.0
C      1  0.4918280000000  0.4802510000000  0.5635550000000 1.0
C      1  0.5076450000000  0.4795330000000  0.4366300000000 1.0
C      1  0.4640860000000  0.5066470000000  0.4447400000000 1.0
C      1  0.4452850000000  0.4634710000000  0.5080410000000 1.0
C      1  0.5086280000000  0.4435460000000  0.4635670000000 1.0
C      1  0.5364600000000  0.5065900000000  0.5566840000000 1.0
C      1  0.4634520000000  0.4937850000000  0.5557820000000 1.0
C      1  0.5367640000000  0.4934090000000  0.4433050000000 1.0
C      1  0.5555860000000  0.4634520000000  0.4910000000000 1.0
C      1  0.4442500000000  0.5368710000000  0.4927020000000 1.0
C      1  0.5556690000000  0.5366190000000  0.5091040000000 1.0
C      1  0.4926160000000  0.4444880000000  0.5358000000000 1.0
C      1  0.5085620000000  0.5565290000000  0.5363280000000 1.0
C      1  0.4924260000000  0.5554190000000  0.4635920000000 1.0
C      1  0.4636940000000  0.4913080000000  0.4451290000000 1.0
C      1  0.4443530000000  0.5361930000000  0.5078140000000 1.0
C      1  0.5081110000000  0.5553340000000  0.4633250000000 1.0
C      1  0.5358830000000  0.4915140000000  0.5565170000000 1.0
C      1  0.4632990000000  0.5092280000000  0.5555140000000 1.0
C      1  0.5362020000000  0.5084730000000  0.4434590000000 1.0
C      1  0.5558180000000  0.5364130000000  0.4936460000000 1.0
C      1  0.4450480000000  0.4641040000000  0.4926700000000 1.0
C      1  0.5556300000000  0.4636740000000  0.5064380000000 1.0
C      1  0.4935000000000  0.5568670000000  0.5368700000000 1.0
C      1  0.5080350000000  0.4446080000000  0.5365620000000 1.0
C      1  0.4936120000000  0.4432350000000  0.4629690000000 1.0
C      1  0.4520620000000  0.4925860000000  0.4543660000000 1.0
C      1  0.4546230000000  0.4525710000000  0.4926200000000 1.0
C      1  0.4943430000000  0.4524770000000  0.4512360000000 1.0
C      1  0.5476020000000  0.4917120000000  0.5471010000000 1.0
C      1  0.4515170000000  0.5081530000000  0.5465270000000 1.0
C      1  0.5478650000000  0.5082760000000  0.4529590000000 1.0
C      1  0.5465210000000  0.4518960000000  0.5059780000000 1.0
C      1  0.4539370000000  0.5478160000000  0.5077680000000 1.0
C      1  0.5468070000000  0.5482450000000  0.4940610000000 1.0
C      1  0.5067100000000  0.4536390000000  0.5483160000000 1.0
C      1  0.4942060000000  0.5477060000000  0.5486490000000 1.0
C      1  0.5070580000000  0.5464310000000  0.4515130000000 1.0
C      1  0.4525320000000  0.5066280000000  0.4542880000000 1.0
C      1  0.4535430000000  0.5485030000000  0.4937080000000 1.0
C      1  0.4929300000000  0.5463190000000  0.4518670000000 1.0
C      1  0.5482790000000  0.5057290000000  0.5475600000000 1.0
C      1  0.4517460000000  0.4941430000000  0.5465870000000 1.0
C      1  0.5485410000000  0.4942610000000  0.4524880000000 1.0
C      1  0.5468900000000  0.5485680000000  0.5080620000000 1.0
C      1  0.4545310000000  0.4518750000000  0.5067670000000 1.0
C      1  0.5467210000000  0.4515710000000  0.4919870000000 1.0
C      1  0.5082270000000  0.5470510000000  0.5480240000000 1.0
C      1  0.4925610000000  0.4538890000000  0.5474360000000 1.0
C      1  0.5083680000000  0.4530590000000  0.4518750000000 1.0
C      1  0.5552200000000  0.5428570000000  0.5326790000000 1.0
C      1  0.5316760000000  0.5583320000000  0.5420910000000 1.0
C      1  0.5434620000000  0.5285140000000  0.5596470000000 1.0
C      1  0.4426500000000  0.5429960000000  0.4700250000000 1.0
C      1  0.5552830000000  0.4571500000000  0.4674470000000 1.0
C      1  0.4454360000000  0.4570960000000  0.5315550000000 1.0
C      1  0.4691100000000  0.5563220000000  0.4577980000000 1.0
C      1  0.5317700000000  0.4417100000000  0.4579340000000 1.0
C      1  0.4692740000000  0.4421130000000  0.5413000000000 1.0
C      1  0.4571160000000  0.5286800000000  0.4418670000000 1.0
C      1  0.5437230000000  0.4714760000000  0.4404060000000 1.0
C      1  0.4565170000000  0.4716000000000  0.5586640000000 1.0
C      1  0.5586330000000  0.4564730000000  0.5285180000000 1.0
C      1  0.5316040000000  0.4447750000000  0.5429370000000 1.0
C      1  0.5414420000000  0.4683540000000  0.5584430000000 1.0
C      1  0.4424610000000  0.4583640000000  0.4694580000000 1.0
C      1  0.5589200000000  0.5435290000000  0.4715250000000 1.0
C      1  0.4420510000000  0.5420620000000  0.5309520000000 1.0
C      1  0.4715540000000  0.4405020000000  0.4564570000000 1.0
C      1  0.5318400000000  0.5551170000000  0.4570460000000 1.0
C      1  0.4714680000000  0.5598100000000  0.5434830000000 1.0
C      1  0.4573110000000  0.4677970000000  0.4455030000000 1.0
C      1  0.5417710000000  0.5316220000000  0.4415700000000 1.0
C      1  0.4570170000000  0.5327880000000  0.5548920000000 1.0
C      1  0.5660080000000  0.5077650000000  0.5068830000000 1.0
C      1  0.5068060000000  0.5681900000000  0.5075530000000 1.0
C      1  0.5072080000000  0.5071110000000  0.5674720000000 1.0
C      1  0.4291190000000  0.5082400000000  0.4931760000000 1.0
C      1  0.5660290000000  0.4922340000000  0.4932660000000 1.0
C      1  0.4308610000000  0.4920380000000  0.5065190000000 1.0
C      1  0.4931570000000  0.5689740000000  0.4923260000000 1.0
C      1  0.5068660000000  0.4311080000000  0.4922150000000 1.0
C      1  0.4932110000000  0.4288170000000  0.5070780000000 1.0
C      1  0.4920410000000  0.5062120000000  0.4310830000000 1.0
C      1  0.5076120000000  0.4928240000000  0.4319780000000 1.0
C      1  0.4915620000000  0.4937280000000  0.5678340000000 1.0
C      1  0.5660900000000  0.4923130000000  0.5068090000000 1.0
C      1  0.5066000000000  0.4310790000000  0.5078210000000 1.0
C      1  0.5070480000000  0.4935700000000  0.5683030000000 1.0
C      1  0.4288020000000  0.4927130000000  0.4930720000000 1.0
C      1  0.5661390000000  0.5076860000000  0.4933420000000 1.0
C      1  0.4309890000000  0.5076160000000  0.5066620000000 1.0
C      1  0.4933690000000  0.4291210000000  0.4916170000000 1.0
C      1  0.5065970000000  0.5677750000000  0.4918200000000 1.0
C      1  0.4932680000000  0.5691410000000  0.5077660000000 1.0
C      1  0.4921810000000  0.4927300000000  0.4323860000000 1.0
C      1  0.5076360000000  0.5063610000000  0.4308300000000 1.0
C      1  0.4917600000000  0.5072650000000  0.5669600000000 1.0
C      1  0.4426160000000  0.4676460000000  0.5215660000000 1.0
C      1  0.5214300000000  0.4398660000000  0.4682440000000 1.0
C      1  0.4682280000000  0.5197520000000  0.4405280000000 1.0
C      1  0.5579460000000  0.4678040000000  0.4774980000000 1.0
C      1  0.4410650000000  0.5322760000000  0.4793460000000 1.0
C      1  0.5578990000000  0.5322190000000  0.5226160000000 1.0
C      1  0.4797820000000  0.4404410000000  0.5311400000000 1.0
C      1  0.5214060000000  0.5602090000000  0.5317220000000 1.0
C      1  0.4790550000000  0.5587360000000  0.4681510000000 1.0
C      1  0.5321530000000  0.5200000000000  0.5600720000000 1.0
C      1  0.4676160000000  0.4803420000000  0.5593740000000 1.0
C      1  0.5324320000000  0.4800140000000  0.4399210000000 1.0
C      1  0.4404040000000  0.5316620000000  0.5206540000000 1.0
C      1  0.5217280000000  0.5577960000000  0.4675900000000 1.0
C      1  0.4679270000000  0.4777610000000  0.4426100000000 1.0
C      1  0.5593810000000  0.5322730000000  0.4801470000000 1.0
C      1  0.4408080000000  0.4686210000000  0.4798860000000 1.0
C      1  0.5591820000000  0.4677550000000  0.5199460000000 1.0
C      1  0.4802010000000  0.5603400000000  0.5323670000000 1.0
C      1  0.5215970000000  0.4421020000000  0.5323500000000 1.0
C      1  0.4803620000000  0.4397560000000  0.4674810000000 1.0
C      1  0.5311810000000  0.4786820000000  0.5602220000000 1.0
C      1  0.4676310000000  0.5227560000000  0.5578050000000 1.0
C      1  0.5315380000000  0.5212840000000  0.4396890000000 1.0
C      1  0.5167060000000  0.4590720000000  0.5561430000000 1.0
C      1  0.5539380000000  0.5192110000000  0.4592280000000 1.0
C      1  0.4598460000000  0.5541680000000  0.5187720000000 1.0
C      1  0.4837350000000  0.4581970000000  0.4442290000000 1.0
C      1  0.5170600000000  0.5408450000000  0.4437450000000 1.0
C      1  0.4836140000000  0.5421390000000  0.5558080000000 1.0
C      1  0.4439430000000  0.5179210000000  0.5405670000000 1.0
C      1  0.5537020000000  0.4807730000000  0.5408640000000 1.0
C      1  0.4444120000000  0.4826660000000  0.4600630000000 1.0
C      1  0.5410650000000  0.5555420000000  0.4836010000000 1.0
C      1  0.4603100000000  0.4461480000000  0.4814930000000 1.0
C      1  0.5407470000000  0.4445380000000  0.5163620000000 1.0
C      1  0.5191020000000  0.5407590000000  0.5542080000000 1.0
C      1  0.5558270000000  0.4837900000000  0.4581340000000 1.0
C      1  0.4600580000000  0.4441930000000  0.5167750000000 1.0
C      1  0.4824270000000  0.5403020000000  0.4447820000000 1.0
C      1  0.5193000000000  0.4593140000000  0.4457690000000 1.0
C      1  0.4813850000000  0.4597980000000  0.5536270000000 1.0
C      1  0.4445680000000  0.4836600000000  0.5407450000000 1.0
C      1  0.5556060000000  0.5161980000000  0.5419520000000 1.0
C      1  0.4456840000000  0.5174560000000  0.4601170000000 1.0
C      1  0.5410480000000  0.4438030000000  0.4822060000000 1.0
C      1  0.4592190000000  0.5558800000000  0.4834680000000 1.0
C      1  0.5411630000000  0.5563300000000  0.5178430000000 1.0
C      1  0.5312300000000  0.4519270000000  0.4480930000000 1.0
C      1  0.4469650000000  0.5285800000000  0.4517970000000 1.0
C      1  0.4528710000000  0.4452340000000  0.5289500000000 1.0
C      1  0.4695520000000  0.4522620000000  0.5511650000000 1.0
C      1  0.5310650000000  0.5481080000000  0.5519230000000 1.0
C      1  0.4706630000000  0.5476980000000  0.4468670000000 1.0
C      1  0.5548790000000  0.5264750000000  0.5511190000000 1.0
C      1  0.4452740000000  0.4733910000000  0.5499210000000 1.0
C      1  0.5551110000000  0.4734990000000  0.4489780000000 1.0
C      1  0.5480480000000  0.4450450000000  0.4699560000000 1.0
C      1  0.4503680000000  0.5545180000000  0.4728670000000 1.0
C      1  0.5480630000000  0.5549990000000  0.5301440000000 1.0
C      1  0.5292830000000  0.5479630000000  0.4449890000000 1.0
C      1  0.4454660000000  0.4704260000000  0.4530250000000 1.0
C      1  0.4522500000000  0.5519100000000  0.5305750000000 1.0
C      1  0.4733190000000  0.5512880000000  0.5549270000000 1.0
C      1  0.5289050000000  0.4518820000000  0.5549790000000 1.0
C      1  0.4733710000000  0.4491280000000  0.4451000000000 1.0
C      1  0.5512950000000  0.4688510000000  0.5482500000000 1.0
C      1  0.4450570000000  0.5302330000000  0.5474510000000 1.0
C      1  0.5515700000000  0.5311190000000  0.4518150000000 1.0
C      1  0.5502660000000  0.5548380000000  0.4733990000000 1.0
C      1  0.4526190000000  0.4484950000000  0.4697310000000 1.0
C      1  0.5499520000000  0.4451930000000  0.5265810000000 1.0
C      1  0.5441620000000  0.4359940000000  0.4602120000000 1.0
C      1  0.4581740000000  0.5423660000000  0.4437540000000 1.0
C      1  0.4457950000000  0.4598580000000  0.5453170000000 1.0
C      1  0.4569140000000  0.4363350000000  0.5388180000000 1.0
C      1  0.5441050000000  0.5640060000000  0.5399020000000 1.0
C      1  0.4552270000000  0.5555510000000  0.4599110000000 1.0
C      1  0.5431600000000  0.5422520000000  0.5554610000000 1.0
C      1  0.4572380000000  0.4578590000000  0.5545220000000 1.0
C      1  0.5433560000000  0.4577470000000  0.4446060000000 1.0
C      1  0.5548010000000  0.4599970000000  0.4537100000000 1.0
C      1  0.4468480000000  0.5427310000000  0.4556360000000 1.0
C      1  0.5546430000000  0.5399850000000  0.5464100000000 1.0
C      1  0.5456300000000  0.5546400000000  0.4598800000000 1.0
C      1  0.4599460000000  0.4540070000000  0.4458460000000 1.0
C      1  0.4360850000000  0.5399320000000  0.5432620000000 1.0
C      1  0.4577670000000  0.5555410000000  0.5428210000000 1.0
C      1  0.5453800000000  0.4453200000000  0.5401260000000 1.0
C      1  0.4579150000000  0.4448960000000  0.4573560000000 1.0
C      1  0.5388090000000  0.4558860000000  0.5638390000000 1.0
C      1  0.4598380000000  0.5465200000000  0.5543720000000 1.0
C      1  0.5392100000000  0.5440740000000  0.4361030000000 1.0
C      1  0.5548310000000  0.5432360000000  0.4577560000000 1.0
C      1  0.4364920000000  0.4606610000000  0.4571490000000 1.0
C      1  0.5545650000000  0.4567330000000  0.5422950000000 1.0
C      1  0.4730500000000  0.5602780000000  0.5192180000000 1.0
C      1  0.5178260000000  0.4724920000000  0.5612640000000 1.0
C      1  0.5594450000000  0.5192790000000  0.4726700000000 1.0
C      1  0.5274750000000  0.5597990000000  0.4810850000000 1.0
C      1  0.4734160000000  0.4397110000000  0.4806750000000 1.0
C      1  0.5271640000000  0.4401270000000  0.5188310000000 1.0
C      1  0.4814180000000  0.4719580000000  0.4405010000000 1.0
C      1  0.5181960000000  0.5274360000000  0.4384870000000 1.0
C      1  0.4811910000000  0.5284280000000  0.5596400000000 1.0
C      1  0.4391890000000  0.5183740000000  0.5270170000000 1.0
C      1  0.5592610000000  0.4807290000000  0.5274460000000 1.0
C      1  0.4392050000000  0.4819050000000  0.4734680000000 1.0
C      1  0.4734390000000  0.4389480000000  0.5178120000000 1.0
C      1  0.5190980000000  0.5274020000000  0.5599380000000 1.0
C      1  0.5596360000000  0.4813960000000  0.4718620000000 1.0
C      1  0.5275710000000  0.4388400000000  0.4816120000000 1.0
C      1  0.4727750000000  0.5603430000000  0.4815430000000 1.0
C      1  0.5276920000000  0.5613260000000  0.5183910000000 1.0
C      1  0.4812750000000  0.5268200000000  0.4394760000000 1.0
C      1  0.5193580000000  0.4726630000000  0.4400440000000 1.0
C      1  0.4806300000000  0.4730480000000  0.5596170000000 1.0
C      1  0.4403520000000  0.4811420000000  0.5270800000000 1.0
C      1  0.5595060000000  0.5186100000000  0.5282490000000 1.0
C      1  0.4400090000000  0.5189380000000  0.4732890000000 1.0
END
