TITL C-102689-8077-17 -43.8045127567914 1000000 -1687.7165588676 0 0 240 (C1) n - 1
REM
REM in /home/chem/mssmkc/work/GAP20/Larger-Clusters/Only-C240-new-series
REM
REM
REM
REM
REM
REM ./C.cell (0485df7495ed2a90f93db84a705cd676)
REM
REM compiler GCC version 8.3.0
REM options -cpp -mtune=generic -march=x86-64 -g -O0
REM seed -182477348 -1442394929 2095321575 570767851 -1532384889 -1095275121 1334892312 -1377604205 789332730 -64674498 -581607869 1936258669 1090888244 -562222247 894614194 -1104380819 -1880253690 -524522321 -2023027356 -345088447 650270418 590626579 172171895 1920007134 1081359391 -764761411 889215206 -979989045 -960477248 1160555894 1336103791 1139834070 1152498124
REM
CELL 1.54180  100.00000  100.00000  100.00000   90.00000   90.00000   90.00000
LATT -1
SFAC C  
C      1  0.5119820000000  0.5670710000000  0.4782660000000 1.0
C      1  0.5655960000000  0.4755590000000  0.5119980000000 1.0
C      1  0.4742630000000  0.5172370000000  0.5625860000000 1.0
C      1  0.4832440000000  0.5647280000000  0.5276400000000 1.0
C      1  0.4814670000000  0.4334130000000  0.4757580000000 1.0
C      1  0.5158080000000  0.4379930000000  0.5233870000000 1.0
C      1  0.4374850000000  0.4748230000000  0.4843570000000 1.0
C      1  0.4416400000000  0.5256440000000  0.5149840000000 1.0
C      1  0.5706870000000  0.5247000000000  0.4842200000000 1.0
C      1  0.5234510000000  0.5157340000000  0.4421000000000 1.0
C      1  0.5232190000000  0.4859990000000  0.5691160000000 1.0
C      1  0.4754720000000  0.4813410000000  0.4287250000000 1.0
C      1  0.4701580000000  0.5614520000000  0.5217720000000 1.0
C      1  0.5131410000000  0.4765510000000  0.5699920000000 1.0
C      1  0.5721920000000  0.5150440000000  0.4744750000000 1.0
C      1  0.5246880000000  0.5616980000000  0.4807390000000 1.0
C      1  0.4691610000000  0.4390110000000  0.4800460000000 1.0
C      1  0.5279750000000  0.4411290000000  0.5161150000000 1.0
C      1  0.4845990000000  0.4711910000000  0.4325100000000 1.0
C      1  0.5148490000000  0.5267490000000  0.4463440000000 1.0
C      1  0.4807290000000  0.5296210000000  0.5588210000000 1.0
C      1  0.4435950000000  0.5197670000000  0.5282490000000 1.0
C      1  0.5598450000000  0.4793580000000  0.5240980000000 1.0
C      1  0.4383440000000  0.4843110000000  0.4735050000000 1.0
C      1  0.5599110000000  0.4920140000000  0.5309250000000 1.0
C      1  0.4936440000000  0.5344340000000  0.5613430000000 1.0
C      1  0.5327450000000  0.5614000000000  0.4925930000000 1.0
C      1  0.4432550000000  0.4794100000000  0.4613710000000 1.0
C      1  0.4396720000000  0.5073600000000  0.5342450000000 1.0
C      1  0.5662850000000  0.5076190000000  0.4630830000000 1.0
C      1  0.5008820000000  0.5295850000000  0.4462930000000 1.0
C      1  0.5062050000000  0.4647220000000  0.5646180000000 1.0
C      1  0.4802710000000  0.4590920000000  0.4387770000000 1.0
C      1  0.4633840000000  0.5659960000000  0.5099860000000 1.0
C      1  0.4636610000000  0.4379380000000  0.4930910000000 1.0
C      1  0.5331370000000  0.4386170000000  0.5029950000000 1.0
C      1  0.5332290000000  0.4930060000000  0.5609190000000 1.0
C      1  0.5618140000000  0.5339300000000  0.4915270000000 1.0
C      1  0.4843510000000  0.5573290000000  0.5398960000000 1.0
C      1  0.4630920000000  0.4887090000000  0.4325510000000 1.0
C      1  0.5370770000000  0.5197640000000  0.4452740000000 1.0
C      1  0.4616310000000  0.5168630000000  0.5561820000000 1.0
C      1  0.4465110000000  0.5388990000000  0.5156570000000 1.0
C      1  0.5618290000000  0.4651320000000  0.5021910000000 1.0
C      1  0.4436860000000  0.4619240000000  0.4828890000000 1.0
C      1  0.5011910000000  0.5620450000000  0.4694940000000 1.0
C      1  0.4901940000000  0.4361570000000  0.4640950000000 1.0
C      1  0.5164450000000  0.4449550000000  0.5361310000000 1.0
C      1  0.4509890000000  0.4906960000000  0.4388590000000 1.0
C      1  0.4928720000000  0.4398130000000  0.4511880000000 1.0
C      1  0.4421900000000  0.4525270000000  0.4932290000000 1.0
C      1  0.5459390000000  0.4942810000000  0.5556740000000 1.0
C      1  0.5472950000000  0.5107180000000  0.4439770000000 1.0
C      1  0.4516900000000  0.5074510000000  0.5574850000000 1.0
C      1  0.5071640000000  0.4446740000000  0.5464360000000 1.0
C      1  0.4961670000000  0.5515860000000  0.4620800000000 1.0
C      1  0.4945300000000  0.5576160000000  0.5493590000000 1.0
C      1  0.5558880000000  0.4533680000000  0.4983780000000 1.0
C      1  0.5572580000000  0.5468290000000  0.4934820000000 1.0
C      1  0.4443510000000  0.5486730000000  0.5064160000000 1.0
C      1  0.4430540000000  0.4881010000000  0.4507480000000 1.0
C      1  0.4503300000000  0.4409910000000  0.4959060000000 1.0
C      1  0.4896550000000  0.4493710000000  0.4403480000000 1.0
C      1  0.5559270000000  0.4943400000000  0.5441680000000 1.0
C      1  0.4405240000000  0.5049670000000  0.5484540000000 1.0
C      1  0.5593150000000  0.5061120000000  0.4515300000000 1.0
C      1  0.5452270000000  0.4434850000000  0.4977960000000 1.0
C      1  0.4503420000000  0.5618290000000  0.5059720000000 1.0
C      1  0.5460410000000  0.5570750000000  0.4941450000000 1.0
C      1  0.5050800000000  0.4519610000000  0.5593260000000 1.0
C      1  0.4968020000000  0.5480890000000  0.5600480000000 1.0
C      1  0.4945540000000  0.5389920000000  0.4546580000000 1.0
C      1  0.4734580000000  0.5478850000000  0.5410490000000 1.0
C      1  0.5426060000000  0.5488080000000  0.4683760000000 1.0
C      1  0.5429710000000  0.4708760000000  0.5406370000000 1.0
C      1  0.5203740000000  0.5470610000000  0.4612080000000 1.0
C      1  0.5281100000000  0.4533150000000  0.5364790000000 1.0
C      1  0.4685710000000  0.4486750000000  0.4579850000000 1.0
C      1  0.4544820000000  0.5409240000000  0.5274150000000 1.0
C      1  0.4520680000000  0.4584580000000  0.4715600000000 1.0
C      1  0.5465720000000  0.4583170000000  0.5214470000000 1.0
C      1  0.4582310000000  0.4660740000000  0.4490180000000 1.0
C      1  0.4605200000000  0.5278270000000  0.5469030000000 1.0
C      1  0.5371200000000  0.5324390000000  0.4520320000000 1.0
C      1  0.5292500000000  0.5531700000000  0.4699230000000 1.0
C      1  0.4717390000000  0.5365010000000  0.5491850000000 1.0
C      1  0.5505970000000  0.4693760000000  0.5289620000000 1.0
C      1  0.4646270000000  0.5503510000000  0.5300170000000 1.0
C      1  0.5355230000000  0.4508110000000  0.5241080000000 1.0
C      1  0.4626230000000  0.4481510000000  0.4701200000000 1.0
C      1  0.5232580000000  0.5363290000000  0.4533800000000 1.0
C      1  0.4687380000000  0.4575540000000  0.4474000000000 1.0
C      1  0.5326660000000  0.4638340000000  0.5442080000000 1.0
C      1  0.4506840000000  0.4672620000000  0.4603450000000 1.0
C      1  0.5459200000000  0.5407570000000  0.4587390000000 1.0
C      1  0.4524090000000  0.5293310000000  0.5355770000000 1.0
C      1  0.4964920000000  0.5179730000000  0.4256390000000 1.0
C      1  0.5190110000000  0.4202120000000  0.4959890000000 1.0
C      1  0.4308910000000  0.4925980000000  0.5156780000000 1.0
C      1  0.5051060000000  0.5241810000000  0.5773030000000 1.0
C      1  0.4994520000000  0.4740960000000  0.4318460000000 1.0
C      1  0.4996250000000  0.4811990000000  0.5750660000000 1.0
C      1  0.4760860000000  0.4232910000000  0.5071400000000 1.0
C      1  0.4782020000000  0.5829390000000  0.5006870000000 1.0
C      1  0.5216260000000  0.5774500000000  0.5069660000000 1.0
C      1  0.5786800000000  0.5019550000000  0.4786590000000 1.0
C      1  0.5778690000000  0.5044290000000  0.5215740000000 1.0
C      1  0.4361420000000  0.4991630000000  0.4748830000000 1.0
C      1  0.4384410000000  0.5213050000000  0.5011570000000 1.0
C      1  0.5026190000000  0.4320490000000  0.5196520000000 1.0
C      1  0.5212940000000  0.5016770000000  0.4376820000000 1.0
C      1  0.5765440000000  0.5208320000000  0.4979620000000 1.0
C      1  0.4312330000000  0.4796520000000  0.4964470000000 1.0
C      1  0.5747120000000  0.4812200000000  0.5019240000000 1.0
C      1  0.4929150000000  0.4259950000000  0.4818420000000 1.0
C      1  0.5026380000000  0.5773300000000  0.4836530000000 1.0
C      1  0.4961710000000  0.5704830000000  0.5226930000000 1.0
C      1  0.4791480000000  0.5051270000000  0.5690720000000 1.0
C      1  0.5195380000000  0.4998420000000  0.5750210000000 1.0
C      1  0.4804080000000  0.4932520000000  0.4220080000000 1.0
C      1  0.4974740000000  0.4926700000000  0.5820230000000 1.0
C      1  0.4902260000000  0.5866540000000  0.5032390000000 1.0
C      1  0.5859890000000  0.5001150000000  0.4900460000000 1.0
C      1  0.5030650000000  0.4863380000000  0.4263740000000 1.0
C      1  0.5000890000000  0.5131610000000  0.5824370000000 1.0
C      1  0.5015520000000  0.5066120000000  0.4219600000000 1.0
C      1  0.5104180000000  0.5840380000000  0.5063300000000 1.0
C      1  0.5073020000000  0.4164720000000  0.4997600000000 1.0
C      1  0.4875770000000  0.4177810000000  0.5048430000000 1.0
C      1  0.4244820000000  0.5004070000000  0.5061990000000 1.0
C      1  0.4288990000000  0.5022280000000  0.4861870000000 1.0
C      1  0.5850950000000  0.5019260000000  0.5109530000000 1.0
C      1  0.5843590000000  0.4908680000000  0.5013590000000 1.0
C      1  0.5022270000000  0.5862230000000  0.4943500000000 1.0
C      1  0.4890930000000  0.5042350000000  0.5793950000000 1.0
C      1  0.4240580000000  0.4918110000000  0.4944740000000 1.0
C      1  0.5863130000000  0.5111610000000  0.4996940000000 1.0
C      1  0.4295050000000  0.5108990000000  0.4978350000000 1.0
C      1  0.4984970000000  0.5823690000000  0.5144420000000 1.0
C      1  0.5001390000000  0.4200770000000  0.5117630000000 1.0
C      1  0.4946630000000  0.4167750000000  0.4920590000000 1.0
C      1  0.5110780000000  0.4980050000000  0.4292430000000 1.0
C      1  0.4936950000000  0.4946010000000  0.4190750000000 1.0
C      1  0.5089490000000  0.5016370000000  0.5838220000000 1.0
C      1  0.4415580000000  0.5492450000000  0.4921140000000 1.0
C      1  0.5438240000000  0.4969100000000  0.4414850000000 1.0
C      1  0.4930970000000  0.4409310000000  0.5463350000000 1.0
C      1  0.5602760000000  0.5497600000000  0.5074020000000 1.0
C      1  0.5596570000000  0.4496090000000  0.4840270000000 1.0
C      1  0.4381860000000  0.4526670000000  0.5073560000000 1.0
C      1  0.4510830000000  0.4934940000000  0.5617620000000 1.0
C      1  0.4472500000000  0.5051120000000  0.4410670000000 1.0
C      1  0.5496480000000  0.5081330000000  0.5582200000000 1.0
C      1  0.5069970000000  0.4423600000000  0.4481980000000 1.0
C      1  0.5089120000000  0.5606990000000  0.5497450000000 1.0
C      1  0.4810010000000  0.5529850000000  0.4611200000000 1.0
C      1  0.4799110000000  0.5397070000000  0.4555140000000 1.0
C      1  0.4396840000000  0.4914740000000  0.5529260000000 1.0
C      1  0.5488310000000  0.4399250000000  0.4839630000000 1.0
C      1  0.5107240000000  0.5513070000000  0.5606900000000 1.0
C      1  0.4911730000000  0.4481280000000  0.5588580000000 1.0
C      1  0.5037610000000  0.4520610000000  0.4383560000000 1.0
C      1  0.5551450000000  0.4923670000000  0.4487000000000 1.0
C      1  0.4402930000000  0.5021780000000  0.4529940000000 1.0
C      1  0.5593900000000  0.5079160000000  0.5476400000000 1.0
C      1  0.4464220000000  0.4410490000000  0.5096490000000 1.0
C      1  0.5498940000000  0.5596490000000  0.5078190000000 1.0
C      1  0.4465680000000  0.5629890000000  0.4922920000000 1.0
C      1  0.5313930000000  0.4911900000000  0.4411690000000 1.0
C      1  0.4916080000000  0.4386470000000  0.5233660000000 1.0
C      1  0.4440470000000  0.5257540000000  0.4896690000000 1.0
C      1  0.4756260000000  0.4929290000000  0.5647220000000 1.0
C      1  0.4697450000000  0.5013460000000  0.4275070000000 1.0
C      1  0.5268330000000  0.5067270000000  0.5652580000000 1.0
C      1  0.5021120000000  0.4314020000000  0.4717930000000 1.0
C      1  0.5073480000000  0.5635110000000  0.5249460000000 1.0
C      1  0.4918140000000  0.5717540000000  0.4756820000000 1.0
C      1  0.5660550000000  0.5266910000000  0.5049090000000 1.0
C      1  0.5695110000000  0.4723930000000  0.4918020000000 1.0
C      1  0.4340540000000  0.4796080000000  0.5105510000000 1.0
C      1  0.4369210000000  0.4947650000000  0.5277870000000 1.0
C      1  0.5260180000000  0.4309010000000  0.4926780000000 1.0
C      1  0.4914140000000  0.5238110000000  0.4369210000000 1.0
C      1  0.5708710000000  0.4946850000000  0.4691960000000 1.0
C      1  0.4415760000000  0.5087610000000  0.4651270000000 1.0
C      1  0.5650280000000  0.5049320000000  0.5248580000000 1.0
C      1  0.4705960000000  0.4351830000000  0.5060040000000 1.0
C      1  0.5268910000000  0.5654370000000  0.5059200000000 1.0
C      1  0.4693130000000  0.5732840000000  0.4984970000000 1.0
C      1  0.5065150000000  0.5272610000000  0.5644860000000 1.0
C      1  0.4929080000000  0.4711650000000  0.5677880000000 1.0
C      1  0.5090710000000  0.4648730000000  0.4378100000000 1.0
C      1  0.5530420000000  0.5188670000000  0.5406970000000 1.0
C      1  0.5203600000000  0.5433270000000  0.5532000000000 1.0
C      1  0.5430960000000  0.5527400000000  0.5185970000000 1.0
C      1  0.4579070000000  0.5237170000000  0.4536820000000 1.0
C      1  0.4467360000000  0.4809250000000  0.5456090000000 1.0
C      1  0.5549730000000  0.4813270000000  0.4571410000000 1.0
C      1  0.4712830000000  0.5299310000000  0.4508380000000 1.0
C      1  0.4808410000000  0.4564990000000  0.5536510000000 1.0
C      1  0.5250110000000  0.4554400000000  0.4540500000000 1.0
C      1  0.4559940000000  0.5603290000000  0.4820790000000 1.0
C      1  0.4547130000000  0.4477000000000  0.5195260000000 1.0
C      1  0.5396730000000  0.4375570000000  0.4745360000000 1.0
C      1  0.5424390000000  0.5189290000000  0.5524940000000 1.0
C      1  0.5543740000000  0.5421330000000  0.5179740000000 1.0
C      1  0.5191430000000  0.5538640000000  0.5421420000000 1.0
C      1  0.4565640000000  0.5150130000000  0.4421340000000 1.0
C      1  0.5431610000000  0.4736910000000  0.4538780000000 1.0
C      1  0.4580540000000  0.4823460000000  0.5557760000000 1.0
C      1  0.4497750000000  0.5451740000000  0.4812140000000 1.0
C      1  0.5635600000000  0.4580940000000  0.4747510000000 1.0
C      1  0.4449720000000  0.4592790000000  0.5186620000000 1.0
C      1  0.4744670000000  0.5643550000000  0.4624720000000 1.0
C      1  0.5169610000000  0.4441770000000  0.4576660000000 1.0
C      1  0.4818150000000  0.4481060000000  0.5408980000000 1.0
C      1  0.5153930000000  0.4357840000000  0.4697050000000 1.0
C      1  0.4414480000000  0.4724660000000  0.5209950000000 1.0
C      1  0.4683680000000  0.5134840000000  0.4343210000000 1.0
C      1  0.4795860000000  0.4438110000000  0.5273660000000 1.0
C      1  0.4777750000000  0.5706290000000  0.4749620000000 1.0
C      1  0.5193330000000  0.5579470000000  0.5283340000000 1.0
C      1  0.5671490000000  0.4714990000000  0.4777810000000 1.0
C      1  0.5593810000000  0.5287510000000  0.5175780000000 1.0
C      1  0.4484580000000  0.5308300000000  0.4777630000000 1.0
C      1  0.5292910000000  0.5192790000000  0.5582980000000 1.0
C      1  0.5317540000000  0.4770660000000  0.4462220000000 1.0
C      1  0.4716460000000  0.4808000000000  0.5599660000000 1.0
C      1  0.4680640000000  0.4433990000000  0.5184510000000 1.0
C      1  0.5219310000000  0.4661280000000  0.4454180000000 1.0
C      1  0.4494380000000  0.5219600000000  0.4653480000000 1.0
C      1  0.5266330000000  0.4346440000000  0.4784710000000 1.0
C      1  0.4673870000000  0.5687470000000  0.4846590000000 1.0
C      1  0.5299750000000  0.5575320000000  0.5184450000000 1.0
C      1  0.4809660000000  0.4693420000000  0.5602560000000 1.0
C      1  0.5194240000000  0.5298540000000  0.5576700000000 1.0
C      1  0.4776360000000  0.5227460000000  0.4398890000000 1.0
C      1  0.5581990000000  0.5183480000000  0.5276090000000 1.0
C      1  0.4426570000000  0.4817550000000  0.5321530000000 1.0
C      1  0.5650640000000  0.4820480000000  0.4679230000000 1.0
END
