TITL C-102689-8077-85 0.0394092577128002 1000000 -1753.70330484049 0 0 240 (Td) n - 1
REM
REM in /home/chem/mssmkc/work/GAP20/Larger-Clusters/Only-C240-new-series
REM
REM
REM
REM
REM
REM ./C.cell (0485df7495ed2a90f93db84a705cd676)
REM
REM compiler GCC version 8.3.0
REM options -cpp -mtune=generic -march=x86-64 -g -O0
REM seed 252440328 938099521 1220728055 2014225662 1903380722 1248789718 1001951907 1401537585 -1847043119 -584257340 335318614 1838644236 -470286450 1107205509 124674054 1384981691 -145138312 452506609 726670036 1283349471 -2128766243 -355529085 -473551594 1089877046 -1729511618 1289984007 -2085392696 788686527 1686084279 -117721906 -942504502 1197600924 656955137
REM
CELL 1.54180  100.00000  100.00000  100.00000   90.00000   90.00000   90.00000
LATT -1
SFAC C  
C      1  0.4734600000000  0.4635570000000  0.5164790000000 1.0
C      1  0.4635550000000  0.5165740000000  0.4735210000000 1.0
C      1  0.5164700000000  0.4735130000000  0.4635140000000 1.0
C      1  0.5264990000000  0.4635770000000  0.4834110000000 1.0
C      1  0.5265660000000  0.5363930000000  0.5165470000000 1.0
C      1  0.4734750000000  0.5364730000000  0.4835630000000 1.0
C      1  0.5364630000000  0.5164530000000  0.5265290000000 1.0
C      1  0.5364030000000  0.4835060000000  0.4734140000000 1.0
C      1  0.4635790000000  0.4834670000000  0.5265360000000 1.0
C      1  0.4835010000000  0.4734220000000  0.5364060000000 1.0
C      1  0.4834730000000  0.5265970000000  0.4636200000000 1.0
C      1  0.5165570000000  0.5264680000000  0.5364600000000 1.0
C      1  0.5164720000000  0.4635980000000  0.4733990000000 1.0
C      1  0.4734480000000  0.5165830000000  0.4636130000000 1.0
C      1  0.4635650000000  0.4734630000000  0.5165020000000 1.0
C      1  0.4834870000000  0.4635360000000  0.5264910000000 1.0
C      1  0.5165550000000  0.5363840000000  0.5265750000000 1.0
C      1  0.4834860000000  0.5364820000000  0.4735350000000 1.0
C      1  0.5265700000000  0.5164430000000  0.5364370000000 1.0
C      1  0.4734870000000  0.4834470000000  0.5364290000000 1.0
C      1  0.5264950000000  0.4835270000000  0.4635210000000 1.0
C      1  0.5364050000000  0.4734720000000  0.4834180000000 1.0
C      1  0.4635690000000  0.5265780000000  0.4835560000000 1.0
C      1  0.5364610000000  0.5264870000000  0.5165250000000 1.0
C      1  0.4891980000000  0.4698820000000  0.5507760000000 1.0
C      1  0.4699730000000  0.5508460000000  0.4892750000000 1.0
C      1  0.5507830000000  0.4891920000000  0.4698970000000 1.0
C      1  0.5107680000000  0.4700240000000  0.4491340000000 1.0
C      1  0.5108820000000  0.5299640000000  0.5508490000000 1.0
C      1  0.4891520000000  0.5301300000000  0.4492410000000 1.0
C      1  0.5300840000000  0.5507790000000  0.5108780000000 1.0
C      1  0.5300100000000  0.4491870000000  0.4890750000000 1.0
C      1  0.4699330000000  0.4491880000000  0.5107720000000 1.0
C      1  0.4492050000000  0.4891580000000  0.5300710000000 1.0
C      1  0.4491700000000  0.5108990000000  0.4700090000000 1.0
C      1  0.5508420000000  0.5107510000000  0.5300230000000 1.0
C      1  0.5507870000000  0.4699410000000  0.4890900000000 1.0
C      1  0.4891800000000  0.5508640000000  0.4700380000000 1.0
C      1  0.4699870000000  0.4891150000000  0.5508200000000 1.0
C      1  0.4491790000000  0.4699650000000  0.5108200000000 1.0
C      1  0.5508380000000  0.5300020000000  0.5108300000000 1.0
C      1  0.4491960000000  0.5300920000000  0.4892600000000 1.0
C      1  0.5108770000000  0.5507610000000  0.5301150000000 1.0
C      1  0.4891700000000  0.4491480000000  0.5299790000000 1.0
C      1  0.5107730000000  0.4492270000000  0.4698680000000 1.0
C      1  0.5300010000000  0.4892350000000  0.4491480000000 1.0
C      1  0.4699190000000  0.5109180000000  0.4492280000000 1.0
C      1  0.5300930000000  0.5107310000000  0.5508050000000 1.0
C      1  0.4509590000000  0.4986250000000  0.4608740000000 1.0
C      1  0.4984780000000  0.4609130000000  0.4509330000000 1.0
C      1  0.4608090000000  0.4510150000000  0.4984960000000 1.0
C      1  0.5490390000000  0.4984520000000  0.5391210000000 1.0
C      1  0.5489790000000  0.5014930000000  0.4608020000000 1.0
C      1  0.4510220000000  0.5014300000000  0.5392030000000 1.0
C      1  0.5014780000000  0.4607630000000  0.5489490000000 1.0
C      1  0.5014450000000  0.5392350000000  0.4510490000000 1.0
C      1  0.4985990000000  0.5390890000000  0.5490690000000 1.0
C      1  0.5391360000000  0.4509670000000  0.5013560000000 1.0
C      1  0.5391880000000  0.5489900000000  0.4985820000000 1.0
C      1  0.4608670000000  0.5490290000000  0.5015660000000 1.0
C      1  0.4607990000000  0.4986350000000  0.4510190000000 1.0
C      1  0.4509680000000  0.4608680000000  0.4985180000000 1.0
C      1  0.4984800000000  0.4510510000000  0.4607650000000 1.0
C      1  0.5392000000000  0.4984430000000  0.5489760000000 1.0
C      1  0.4608770000000  0.5014090000000  0.5490420000000 1.0
C      1  0.5391240000000  0.5015130000000  0.4509620000000 1.0
C      1  0.5489880000000  0.4608080000000  0.5013640000000 1.0
C      1  0.4510140000000  0.5391870000000  0.5015590000000 1.0
C      1  0.5490300000000  0.5391370000000  0.4985590000000 1.0
C      1  0.5014650000000  0.4509310000000  0.5390870000000 1.0
C      1  0.4985970000000  0.5489510000000  0.5392370000000 1.0
C      1  0.5014580000000  0.5490680000000  0.4609110000000 1.0
C      1  0.5439820000000  0.4664770000000  0.4459840000000 1.0
C      1  0.4664250000000  0.4460220000000  0.5439880000000 1.0
C      1  0.4460680000000  0.5441240000000  0.4665300000000 1.0
C      1  0.4559810000000  0.4663640000000  0.5539140000000 1.0
C      1  0.4559330000000  0.5336850000000  0.4461550000000 1.0
C      1  0.5441040000000  0.5334730000000  0.5539460000000 1.0
C      1  0.5335150000000  0.4461170000000  0.4558490000000 1.0
C      1  0.5336440000000  0.5538450000000  0.5440980000000 1.0
C      1  0.4664160000000  0.5540150000000  0.4560650000000 1.0
C      1  0.5539810000000  0.5439620000000  0.5336030000000 1.0
C      1  0.5538790000000  0.4559780000000  0.4663120000000 1.0
C      1  0.4460720000000  0.4559370000000  0.5335550000000 1.0
C      1  0.4460860000000  0.4663840000000  0.5440350000000 1.0
C      1  0.5439860000000  0.4460960000000  0.4663050000000 1.0
C      1  0.4664030000000  0.5441430000000  0.4461630000000 1.0
C      1  0.5538770000000  0.4664570000000  0.4558640000000 1.0
C      1  0.4460540000000  0.5336760000000  0.4560500000000 1.0
C      1  0.5539840000000  0.5334830000000  0.5440510000000 1.0
C      1  0.4559530000000  0.4460440000000  0.5335330000000 1.0
C      1  0.5441000000000  0.5538550000000  0.5336260000000 1.0
C      1  0.4559610000000  0.5540060000000  0.4665370000000 1.0
C      1  0.5336470000000  0.5439430000000  0.5539700000000 1.0
C      1  0.4664380000000  0.4558940000000  0.5538900000000 1.0
C      1  0.5335120000000  0.4560200000000  0.4459770000000 1.0
C      1  0.5468150000000  0.4732690000000  0.5368430000000 1.0
C      1  0.4734080000000  0.5368640000000  0.5468770000000 1.0
C      1  0.5369250000000  0.5468200000000  0.4733920000000 1.0
C      1  0.4531550000000  0.4734320000000  0.4630770000000 1.0
C      1  0.4532430000000  0.5266200000000  0.5369970000000 1.0
C      1  0.5467860000000  0.5266790000000  0.4630830000000 1.0
C      1  0.5266330000000  0.5369760000000  0.4532340000000 1.0
C      1  0.5266660000000  0.4629940000000  0.5467240000000 1.0
C      1  0.4732930000000  0.4631660000000  0.4531650000000 1.0
C      1  0.4631270000000  0.5467810000000  0.5267490000000 1.0
C      1  0.4630330000000  0.4532600000000  0.4733090000000 1.0
C      1  0.5369150000000  0.4531390000000  0.5265500000000 1.0
C      1  0.5369420000000  0.4732590000000  0.5467310000000 1.0
C      1  0.5468000000000  0.5369340000000  0.4733690000000 1.0
C      1  0.4734060000000  0.5467600000000  0.5370120000000 1.0
C      1  0.4630280000000  0.4734420000000  0.4531880000000 1.0
C      1  0.5368980000000  0.5267000000000  0.4532110000000 1.0
C      1  0.4631320000000  0.5266000000000  0.5468700000000 1.0
C      1  0.4532410000000  0.5369060000000  0.5267420000000 1.0
C      1  0.5468010000000  0.4630140000000  0.5265570000000 1.0
C      1  0.4531580000000  0.4631460000000  0.4733320000000 1.0
C      1  0.5266470000000  0.5468410000000  0.4631300000000 1.0
C      1  0.4732950000000  0.4532700000000  0.4630300000000 1.0
C      1  0.5266520000000  0.4531290000000  0.5368280000000 1.0
C      1  0.5540940000000  0.4647610000000  0.5142180000000 1.0
C      1  0.4648630000000  0.5142520000000  0.5541510000000 1.0
C      1  0.5143160000000  0.5541470000000  0.4648830000000 1.0
C      1  0.4458670000000  0.4648650000000  0.4856760000000 1.0
C      1  0.4459290000000  0.5351960000000  0.5144090000000 1.0
C      1  0.5541100000000  0.5351790000000  0.4856970000000 1.0
C      1  0.5351530000000  0.5143760000000  0.4458920000000 1.0
C      1  0.5352220000000  0.4855850000000  0.5540530000000 1.0
C      1  0.4647620000000  0.4857880000000  0.4459040000000 1.0
C      1  0.4857440000000  0.5540570000000  0.5352800000000 1.0
C      1  0.4856280000000  0.4459590000000  0.4647420000000 1.0
C      1  0.5143110000000  0.4458370000000  0.5350940000000 1.0
C      1  0.5143370000000  0.4647230000000  0.5540380000000 1.0
C      1  0.5540820000000  0.5143360000000  0.4647920000000 1.0
C      1  0.4648540000000  0.5541000000000  0.5144230000000 1.0
C      1  0.4856240000000  0.4649020000000  0.4458560000000 1.0
C      1  0.5142910000000  0.5352610000000  0.4459400000000 1.0
C      1  0.4857490000000  0.5351140000000  0.5541660000000 1.0
C      1  0.4459340000000  0.5142910000000  0.5352510000000 1.0
C      1  0.5541220000000  0.4856030000000  0.5351230000000 1.0
C      1  0.4458620000000  0.4857700000000  0.4648340000000 1.0
C      1  0.5352060000000  0.5541040000000  0.4857400000000 1.0
C      1  0.4647710000000  0.4459390000000  0.4856320000000 1.0
C      1  0.5351680000000  0.4458570000000  0.5142040000000 1.0
C      1  0.4850080000000  0.5643830000000  0.5046860000000 1.0
C      1  0.5643720000000  0.5045640000000  0.4849250000000 1.0
C      1  0.5046190000000  0.4848690000000  0.5643550000000 1.0
C      1  0.5150640000000  0.5643800000000  0.4955080000000 1.0
C      1  0.5149990000000  0.4356030000000  0.5044680000000 1.0
C      1  0.4849290000000  0.4356340000000  0.4953380000000 1.0
C      1  0.4356330000000  0.5045900000000  0.5150890000000 1.0
C      1  0.4356040000000  0.4954820000000  0.4850130000000 1.0
C      1  0.5643910000000  0.4953640000000  0.5149740000000 1.0
C      1  0.4953640000000  0.4850680000000  0.4355990000000 1.0
C      1  0.4954820000000  0.5149370000000  0.5644080000000 1.0
C      1  0.5045350000000  0.5151260000000  0.4356370000000 1.0
C      1  0.5046010000000  0.5644020000000  0.4850620000000 1.0
C      1  0.4850220000000  0.5044880000000  0.5644000000000 1.0
C      1  0.5643770000000  0.4849260000000  0.5045040000000 1.0
C      1  0.4954710000000  0.5643620000000  0.5151320000000 1.0
C      1  0.5045530000000  0.4355930000000  0.5149300000000 1.0
C      1  0.4953750000000  0.4356440000000  0.4848750000000 1.0
C      1  0.5149830000000  0.5046660000000  0.4356130000000 1.0
C      1  0.4849150000000  0.4955290000000  0.4356230000000 1.0
C      1  0.5150790000000  0.4953170000000  0.5643630000000 1.0
C      1  0.4356060000000  0.4850120000000  0.4954510000000 1.0
C      1  0.5643870000000  0.5150020000000  0.4953950000000 1.0
C      1  0.4356300000000  0.5150600000000  0.5046500000000 1.0
C      1  0.4659710000000  0.5576740000000  0.4763540000000 1.0
C      1  0.5575790000000  0.4762590000000  0.4658760000000 1.0
C      1  0.4762660000000  0.4658830000000  0.5575860000000 1.0
C      1  0.5340940000000  0.5575640000000  0.5238200000000 1.0
C      1  0.5339920000000  0.4423980000000  0.4761260000000 1.0
C      1  0.4659440000000  0.4423640000000  0.5237000000000 1.0
C      1  0.4423940000000  0.4762210000000  0.5340520000000 1.0
C      1  0.4423670000000  0.5238440000000  0.4660380000000 1.0
C      1  0.5576590000000  0.5236760000000  0.5340330000000 1.0
C      1  0.5236960000000  0.4660310000000  0.4423110000000 1.0
C      1  0.5238240000000  0.5339430000000  0.5576520000000 1.0
C      1  0.4762140000000  0.5341430000000  0.4424510000000 1.0
C      1  0.4762450000000  0.5576840000000  0.4660630000000 1.0
C      1  0.4659890000000  0.4761720000000  0.5576100000000 1.0
C      1  0.5575810000000  0.4659610000000  0.4761430000000 1.0
C      1  0.5238190000000  0.5575540000000  0.5341110000000 1.0
C      1  0.4762340000000  0.4423430000000  0.5339750000000 1.0
C      1  0.5237010000000  0.4424190000000  0.4658510000000 1.0
C      1  0.5339840000000  0.4763080000000  0.4423180000000 1.0
C      1  0.4659250000000  0.5238660000000  0.4424440000000 1.0
C      1  0.5341020000000  0.5236540000000  0.5576280000000 1.0
C      1  0.4423810000000  0.4659530000000  0.5237540000000 1.0
C      1  0.5576570000000  0.5339750000000  0.5237660000000 1.0
C      1  0.4423810000000  0.5341110000000  0.4763370000000 1.0
C      1  0.4826330000000  0.5077110000000  0.4416620000000 1.0
C      1  0.5075660000000  0.4416590000000  0.4825800000000 1.0
C      1  0.4416330000000  0.4826950000000  0.5076330000000 1.0
C      1  0.5173760000000  0.5075150000000  0.5583610000000 1.0
C      1  0.5172760000000  0.4924660000000  0.4416120000000 1.0
C      1  0.4827160000000  0.4923090000000  0.5583650000000 1.0
C      1  0.4923680000000  0.4416150000000  0.5172440000000 1.0
C      1  0.4924060000000  0.5583930000000  0.4827680000000 1.0
C      1  0.5076590000000  0.5583320000000  0.5174080000000 1.0
C      1  0.5583470000000  0.4826530000000  0.4923150000000 1.0
C      1  0.5583780000000  0.5172820000000  0.5075930000000 1.0
C      1  0.4416410000000  0.5173700000000  0.4924590000000 1.0
C      1  0.4416280000000  0.5076720000000  0.4827320000000 1.0
C      1  0.4826480000000  0.4416350000000  0.5075380000000 1.0
C      1  0.5075570000000  0.4827580000000  0.4416050000000 1.0
C      1  0.5583810000000  0.5075540000000  0.5172910000000 1.0
C      1  0.4416470000000  0.4923940000000  0.5173600000000 1.0
C      1  0.5583450000000  0.4923810000000  0.4826170000000 1.0
C      1  0.5172870000000  0.4416390000000  0.4922850000000 1.0
C      1  0.4827010000000  0.5583840000000  0.4924890000000 1.0
C      1  0.5173640000000  0.5583420000000  0.5076870000000 1.0
C      1  0.4924230000000  0.4825900000000  0.5583430000000 1.0
C      1  0.5076680000000  0.5172330000000  0.5583830000000 1.0
C      1  0.4923510000000  0.5174180000000  0.4416690000000 1.0
C      1  0.4749670000000  0.5634800000000  0.5150160000000 1.0
C      1  0.5634770000000  0.5149030000000  0.4748920000000 1.0
C      1  0.5149360000000  0.4748150000000  0.5634380000000 1.0
C      1  0.5251040000000  0.5634960000000  0.4851760000000 1.0
C      1  0.5250570000000  0.4364750000000  0.5147850000000 1.0
C      1  0.4748720000000  0.4365490000000  0.4850230000000 1.0
C      1  0.4365400000000  0.5148980000000  0.5251530000000 1.0
C      1  0.4364840000000  0.4851730000000  0.4749470000000 1.0
C      1  0.5634990000000  0.4850260000000  0.5250080000000 1.0
C      1  0.4850350000000  0.4750240000000  0.4364860000000 1.0
C      1  0.4851640000000  0.5249930000000  0.5635380000000 1.0
C      1  0.5148650000000  0.5251680000000  0.4365380000000 1.0
C      1  0.5149160000000  0.5635180000000  0.4750040000000 1.0
C      1  0.4749780000000  0.5148190000000  0.5635300000000 1.0
C      1  0.5634860000000  0.4748620000000  0.5148130000000 1.0
C      1  0.4851550000000  0.5634580000000  0.5251880000000 1.0
C      1  0.5148850000000  0.4364660000000  0.5249730000000 1.0
C      1  0.4850440000000  0.4365580000000  0.4748360000000 1.0
C      1  0.5250390000000  0.5149820000000  0.4365150000000 1.0
C      1  0.4748610000000  0.4852090000000  0.4365090000000 1.0
C      1  0.5251220000000  0.4849900000000  0.5634460000000 1.0
C      1  0.4364860000000  0.4749780000000  0.4851120000000 1.0
C      1  0.5634900000000  0.5250670000000  0.4850870000000 1.0
C      1  0.4365380000000  0.5250930000000  0.5149880000000 1.0
END
