TITL C-102689-8077-133 -0.0112749909174874 1000000 -1609.9730786787 0 0 240 (Th) n - 1
REM
REM in /home/chem/mssmkc/work/GAP20/Larger-Clusters/Only-C240-new-series
REM
REM
REM
REM
REM
REM ./C.cell (0485df7495ed2a90f93db84a705cd676)
REM
REM compiler GCC version 8.3.0
REM options -cpp -mtune=generic -march=x86-64 -g -O0
REM seed 412807186 755450711 -1872546518 1318734445 -833794886 -75302940 -1098218042 293745585 1923951659 1537918875 1625815333 -1184446078 1186287152 -1075893933 -428591578 -1347941556 -106485282 -438991581 1239059631 2052040793 1567841778 -1865517429 -819502401 1642055906 -1045493668 390136430 -682580843 -180936010 768832792 992794467 1037877862 730035356 576022125
REM
CELL 1.54180  100.00000  100.00000  100.00000   90.00000   90.00000   90.00000
LATT -1
SFAC C  
C      1  0.4760330000000  0.4491150000000  0.4601080000000 1.0
C      1  0.4601110000000  0.4760390000000  0.4491090000000 1.0
C      1  0.4491100000000  0.4601140000000  0.4760320000000 1.0
C      1  0.4760360000000  0.5508880000000  0.5398910000000 1.0
C      1  0.5239680000000  0.5508890000000  0.4601140000000 1.0
C      1  0.5239620000000  0.4491080000000  0.5398870000000 1.0
C      1  0.4601110000000  0.5239650000000  0.5508890000000 1.0
C      1  0.5398910000000  0.5239660000000  0.4491140000000 1.0
C      1  0.5398870000000  0.4760300000000  0.5508880000000 1.0
C      1  0.4491130000000  0.5398900000000  0.5239660000000 1.0
C      1  0.5508910000000  0.5398880000000  0.4760380000000 1.0
C      1  0.5508860000000  0.4601070000000  0.5239640000000 1.0
C      1  0.5239640000000  0.4491120000000  0.4601090000000 1.0
C      1  0.5398890000000  0.4760350000000  0.4491110000000 1.0
C      1  0.5508870000000  0.4601100000000  0.4760340000000 1.0
C      1  0.5239670000000  0.5508850000000  0.5398920000000 1.0
C      1  0.4760380000000  0.5508920000000  0.4601130000000 1.0
C      1  0.4760320000000  0.4491110000000  0.5398860000000 1.0
C      1  0.5398890000000  0.5239610000000  0.5508910000000 1.0
C      1  0.4601130000000  0.5239700000000  0.4491120000000 1.0
C      1  0.4601090000000  0.4760340000000  0.5508860000000 1.0
C      1  0.5508900000000  0.5398860000000  0.5239680000000 1.0
C      1  0.4491140000000  0.5398930000000  0.4760360000000 1.0
C      1  0.4491090000000  0.4601120000000  0.5239620000000 1.0
C      1  0.4934210000000  0.4656530000000  0.5177340000000 1.0
C      1  0.5177360000000  0.4934240000000  0.4656540000000 1.0
C      1  0.4656550000000  0.5177370000000  0.4934230000000 1.0
C      1  0.4934250000000  0.5343470000000  0.4822660000000 1.0
C      1  0.5065780000000  0.5343450000000  0.5177380000000 1.0
C      1  0.5065760000000  0.4656550000000  0.4822630000000 1.0
C      1  0.5177350000000  0.5065750000000  0.5343470000000 1.0
C      1  0.4822650000000  0.5065800000000  0.4656540000000 1.0
C      1  0.4822630000000  0.4934220000000  0.5343450000000 1.0
C      1  0.4656530000000  0.4822660000000  0.5065760000000 1.0
C      1  0.5343450000000  0.4822630000000  0.4934230000000 1.0
C      1  0.5343470000000  0.5177340000000  0.5065790000000 1.0
C      1  0.5065750000000  0.4656530000000  0.5177340000000 1.0
C      1  0.4822650000000  0.4934250000000  0.4656530000000 1.0
C      1  0.5343470000000  0.5177340000000  0.4934240000000 1.0
C      1  0.5065790000000  0.5343470000000  0.4822660000000 1.0
C      1  0.4934240000000  0.5343450000000  0.5177370000000 1.0
C      1  0.4934220000000  0.4656550000000  0.4822620000000 1.0
C      1  0.4822640000000  0.5065760000000  0.5343460000000 1.0
C      1  0.5177370000000  0.5065780000000  0.4656550000000 1.0
C      1  0.5177350000000  0.4934200000000  0.5343460000000 1.0
C      1  0.5343450000000  0.4822630000000  0.5065770000000 1.0
C      1  0.4656530000000  0.4822660000000  0.4934210000000 1.0
C      1  0.4656550000000  0.5177370000000  0.5065770000000 1.0
C      1  0.5284620000000  0.5212490000000  0.5585300000000 1.0
C      1  0.5585300000000  0.5284580000000  0.5212560000000 1.0
C      1  0.5212550000000  0.5585260000000  0.5284650000000 1.0
C      1  0.5284620000000  0.4787490000000  0.4414710000000 1.0
C      1  0.4715360000000  0.4787450000000  0.5585270000000 1.0
C      1  0.4715400000000  0.5212570000000  0.4414720000000 1.0
C      1  0.5585280000000  0.4715360000000  0.4787470000000 1.0
C      1  0.4414700000000  0.4715390000000  0.5212500000000 1.0
C      1  0.4414730000000  0.5284660000000  0.4787470000000 1.0
C      1  0.5212510000000  0.4414720000000  0.4715360000000 1.0
C      1  0.4787440000000  0.4414710000000  0.5284590000000 1.0
C      1  0.4787500000000  0.5585310000000  0.4715400000000 1.0
C      1  0.4715380000000  0.5212510000000  0.5585290000000 1.0
C      1  0.4414720000000  0.5284640000000  0.5212530000000 1.0
C      1  0.4787490000000  0.5585280000000  0.5284640000000 1.0
C      1  0.4715380000000  0.4787510000000  0.4414700000000 1.0
C      1  0.5284600000000  0.4787430000000  0.5585280000000 1.0
C      1  0.5284640000000  0.5212550000000  0.4414730000000 1.0
C      1  0.4414700000000  0.4715420000000  0.4787440000000 1.0
C      1  0.5585270000000  0.4715340000000  0.5212530000000 1.0
C      1  0.5585300000000  0.5284610000000  0.4787500000000 1.0
C      1  0.4787450000000  0.4414740000000  0.4715350000000 1.0
C      1  0.5212500000000  0.4414690000000  0.5284600000000 1.0
C      1  0.5212560000000  0.5585290000000  0.4715410000000 1.0
C      1  0.4610810000000  0.4431140000000  0.4922810000000 1.0
C      1  0.4922840000000  0.4610860000000  0.4431100000000 1.0
C      1  0.4431130000000  0.4922890000000  0.4610810000000 1.0
C      1  0.4610850000000  0.5568890000000  0.5077180000000 1.0
C      1  0.5389200000000  0.5568870000000  0.4922880000000 1.0
C      1  0.5389140000000  0.4431100000000  0.5077140000000 1.0
C      1  0.4922850000000  0.5389150000000  0.5568900000000 1.0
C      1  0.5077190000000  0.5389200000000  0.4431140000000 1.0
C      1  0.5077130000000  0.4610800000000  0.5568860000000 1.0
C      1  0.4431110000000  0.5077160000000  0.5389160000000 1.0
C      1  0.5568890000000  0.5077150000000  0.4610850000000 1.0
C      1  0.5568870000000  0.4922800000000  0.5389180000000 1.0
C      1  0.5389150000000  0.4431110000000  0.4922820000000 1.0
C      1  0.5077150000000  0.4610850000000  0.4431100000000 1.0
C      1  0.5568890000000  0.4922840000000  0.4610840000000 1.0
C      1  0.5389190000000  0.5568860000000  0.5077190000000 1.0
C      1  0.4610860000000  0.5568900000000  0.4922860000000 1.0
C      1  0.4610800000000  0.4431130000000  0.5077120000000 1.0
C      1  0.5077160000000  0.5389140000000  0.5568900000000 1.0
C      1  0.4922870000000  0.5389200000000  0.4431140000000 1.0
C      1  0.4922810000000  0.4610800000000  0.5568860000000 1.0
C      1  0.5568870000000  0.5077110000000  0.5389190000000 1.0
C      1  0.4431130000000  0.5077200000000  0.4610820000000 1.0
C      1  0.4431110000000  0.4922850000000  0.5389150000000 1.0
C      1  0.5581570000000  0.4929200000000  0.5152010000000 1.0
C      1  0.5152020000000  0.5581570000000  0.4929270000000 1.0
C      1  0.4929230000000  0.5151970000000  0.5581580000000 1.0
C      1  0.5581580000000  0.5070740000000  0.4848020000000 1.0
C      1  0.4418420000000  0.5070780000000  0.5151990000000 1.0
C      1  0.4418420000000  0.4929270000000  0.4847990000000 1.0
C      1  0.5151970000000  0.4418410000000  0.5070740000000 1.0
C      1  0.4847980000000  0.4418430000000  0.4929210000000 1.0
C      1  0.4848030000000  0.5581580000000  0.5070790000000 1.0
C      1  0.4929240000000  0.4848030000000  0.4418410000000 1.0
C      1  0.5070740000000  0.4847970000000  0.5581570000000 1.0
C      1  0.5070780000000  0.5152020000000  0.4418430000000 1.0
C      1  0.4418420000000  0.4929260000000  0.5151980000000 1.0
C      1  0.4848030000000  0.5581590000000  0.4929260000000 1.0
C      1  0.5070760000000  0.5151970000000  0.5581590000000 1.0
C      1  0.4418430000000  0.5070800000000  0.4847990000000 1.0
C      1  0.5581580000000  0.5070730000000  0.5152010000000 1.0
C      1  0.5581580000000  0.4929220000000  0.4848010000000 1.0
C      1  0.4847980000000  0.4418430000000  0.5070730000000 1.0
C      1  0.5151970000000  0.4418420000000  0.4929210000000 1.0
C      1  0.5152020000000  0.5581570000000  0.5070790000000 1.0
C      1  0.5070770000000  0.4848030000000  0.4418420000000 1.0
C      1  0.4929220000000  0.4847980000000  0.5581570000000 1.0
C      1  0.4929260000000  0.5152030000000  0.4418430000000 1.0
C      1  0.5150050000000  0.5267360000000  0.5594000000000 1.0
C      1  0.5593980000000  0.5150010000000  0.5267420000000 1.0
C      1  0.5267420000000  0.5593960000000  0.5150090000000 1.0
C      1  0.5150050000000  0.4732620000000  0.4406010000000 1.0
C      1  0.4849920000000  0.4732580000000  0.5593960000000 1.0
C      1  0.4849970000000  0.5267440000000  0.4406030000000 1.0
C      1  0.5593980000000  0.4849930000000  0.4732610000000 1.0
C      1  0.4406010000000  0.4849960000000  0.5267380000000 1.0
C      1  0.4406030000000  0.5150090000000  0.4732590000000 1.0
C      1  0.5267380000000  0.4406010000000  0.4849920000000 1.0
C      1  0.4732570000000  0.4406020000000  0.5150020000000 1.0
C      1  0.4732630000000  0.5594000000000  0.4849970000000 1.0
C      1  0.4849950000000  0.5267380000000  0.5593990000000 1.0
C      1  0.4406020000000  0.5150070000000  0.5267390000000 1.0
C      1  0.4732620000000  0.5593990000000  0.5150080000000 1.0
C      1  0.4849950000000  0.4732640000000  0.4406000000000 1.0
C      1  0.5150030000000  0.4732560000000  0.5593970000000 1.0
C      1  0.5150080000000  0.5267420000000  0.4406040000000 1.0
C      1  0.4406020000000  0.4849990000000  0.4732580000000 1.0
C      1  0.5593970000000  0.4849910000000  0.5267410000000 1.0
C      1  0.5593990000000  0.5150040000000  0.4732620000000 1.0
C      1  0.4732580000000  0.4406040000000  0.4849910000000 1.0
C      1  0.5267370000000  0.4406000000000  0.5150030000000 1.0
C      1  0.5267430000000  0.5593980000000  0.4849980000000 1.0
C      1  0.5076510000000  0.4542990000000  0.5080450000000 1.0
C      1  0.5080490000000  0.5076550000000  0.4543010000000 1.0
C      1  0.4543000000000  0.5080490000000  0.5076530000000 1.0
C      1  0.5076560000000  0.5457000000000  0.4919550000000 1.0
C      1  0.4923480000000  0.5457000000000  0.5080500000000 1.0
C      1  0.4923450000000  0.4543010000000  0.4919500000000 1.0
C      1  0.5080460000000  0.4923440000000  0.5457000000000 1.0
C      1  0.4919530000000  0.4923490000000  0.4543000000000 1.0
C      1  0.4919520000000  0.5076520000000  0.5457000000000 1.0
C      1  0.4543000000000  0.4919550000000  0.4923450000000 1.0
C      1  0.5456990000000  0.4919500000000  0.5076540000000 1.0
C      1  0.5457000000000  0.5080460000000  0.4923480000000 1.0
C      1  0.4923440000000  0.4543000000000  0.5080450000000 1.0
C      1  0.4919540000000  0.5076560000000  0.4543000000000 1.0
C      1  0.5457000000000  0.5080450000000  0.5076550000000 1.0
C      1  0.4923490000000  0.5457010000000  0.4919550000000 1.0
C      1  0.5076550000000  0.5456990000000  0.5080500000000 1.0
C      1  0.5076520000000  0.4543000000000  0.4919500000000 1.0
C      1  0.4919510000000  0.4923450000000  0.5456990000000 1.0
C      1  0.5080480000000  0.4923480000000  0.4543000000000 1.0
C      1  0.5080470000000  0.5076510000000  0.5457000000000 1.0
C      1  0.5457000000000  0.4919510000000  0.4923470000000 1.0
C      1  0.4543000000000  0.4919540000000  0.5076520000000 1.0
C      1  0.4543010000000  0.5080500000000  0.4923460000000 1.0
C      1  0.4384650000000  0.4534280000000  0.5069290000000 1.0
C      1  0.5069310000000  0.4384690000000  0.4534230000000 1.0
C      1  0.4534270000000  0.5069380000000  0.4384670000000 1.0
C      1  0.4384690000000  0.5465780000000  0.4930680000000 1.0
C      1  0.5615350000000  0.5465710000000  0.5069370000000 1.0
C      1  0.5615310000000  0.4534230000000  0.4930660000000 1.0
C      1  0.5069350000000  0.5615300000000  0.5465780000000 1.0
C      1  0.4930710000000  0.5615350000000  0.4534280000000 1.0
C      1  0.4930630000000  0.4384650000000  0.5465710000000 1.0
C      1  0.4534240000000  0.4930660000000  0.5615310000000 1.0
C      1  0.5465760000000  0.4930680000000  0.4384680000000 1.0
C      1  0.5465730000000  0.5069280000000  0.5615340000000 1.0
C      1  0.5615310000000  0.4534220000000  0.5069320000000 1.0
C      1  0.4930650000000  0.4384700000000  0.4534220000000 1.0
C      1  0.5465760000000  0.5069340000000  0.4384690000000 1.0
C      1  0.5615350000000  0.5465720000000  0.4930710000000 1.0
C      1  0.4384690000000  0.5465770000000  0.5069340000000 1.0
C      1  0.4384650000000  0.4534290000000  0.4930630000000 1.0
C      1  0.4930690000000  0.5615310000000  0.5465770000000 1.0
C      1  0.5069370000000  0.5615350000000  0.4534290000000 1.0
C      1  0.5069290000000  0.4384650000000  0.5465720000000 1.0
C      1  0.5465730000000  0.4930620000000  0.5615330000000 1.0
C      1  0.4534270000000  0.4930720000000  0.4384660000000 1.0
C      1  0.4534240000000  0.5069320000000  0.5615320000000 1.0
C      1  0.5502000000000  0.5143040000000  0.4499220000000 1.0
C      1  0.4499220000000  0.5502000000000  0.5143050000000 1.0
C      1  0.5143000000000  0.4499170000000  0.5501960000000 1.0
C      1  0.5501960000000  0.4856920000000  0.5500800000000 1.0
C      1  0.4498020000000  0.4857010000000  0.4499180000000 1.0
C      1  0.4498010000000  0.5143030000000  0.5500790000000 1.0
C      1  0.4499180000000  0.4498050000000  0.4856930000000 1.0
C      1  0.5500770000000  0.4497990000000  0.5143020000000 1.0
C      1  0.5500820000000  0.5501970000000  0.4857000000000 1.0
C      1  0.5143070000000  0.5500820000000  0.4498050000000 1.0
C      1  0.4856980000000  0.5500780000000  0.5502000000000 1.0
C      1  0.4856950000000  0.4499230000000  0.4497990000000 1.0
C      1  0.4498040000000  0.5143080000000  0.4499200000000 1.0
C      1  0.5500820000000  0.5501950000000  0.5143070000000 1.0
C      1  0.4856930000000  0.4499180000000  0.5501950000000 1.0
C      1  0.4498000000000  0.4856960000000  0.5500780000000 1.0
C      1  0.5501990000000  0.4856970000000  0.4499210000000 1.0
C      1  0.5501980000000  0.5142990000000  0.5500820000000 1.0
C      1  0.5500780000000  0.4498000000000  0.4856950000000 1.0
C      1  0.4499180000000  0.4498030000000  0.5143000000000 1.0
C      1  0.4499230000000  0.5502010000000  0.4856980000000 1.0
C      1  0.4857000000000  0.5500830000000  0.4498040000000 1.0
C      1  0.5143050000000  0.5500770000000  0.5502010000000 1.0
C      1  0.5143020000000  0.4499220000000  0.4498000000000 1.0
C      1  0.5318170000000  0.5075080000000  0.4358470000000 1.0
C      1  0.4358470000000  0.5318180000000  0.5075060000000 1.0
C      1  0.5075030000000  0.4358440000000  0.5318120000000 1.0
C      1  0.5318130000000  0.4924890000000  0.5641550000000 1.0
C      1  0.4681860000000  0.4924980000000  0.4358450000000 1.0
C      1  0.4681840000000  0.5075040000000  0.5641540000000 1.0
C      1  0.4358450000000  0.4681880000000  0.4924910000000 1.0
C      1  0.5641530000000  0.4681820000000  0.5075060000000 1.0
C      1  0.5641560000000  0.5318130000000  0.4924970000000 1.0
C      1  0.5075100000000  0.5641550000000  0.4681880000000 1.0
C      1  0.4924960000000  0.5641530000000  0.5318180000000 1.0
C      1  0.4924920000000  0.4358480000000  0.4681810000000 1.0
C      1  0.4681870000000  0.5075110000000  0.4358450000000 1.0
C      1  0.5641550000000  0.5318120000000  0.5075090000000 1.0
C      1  0.4924900000000  0.4358450000000  0.5318120000000 1.0
C      1  0.4681830000000  0.4924920000000  0.5641530000000 1.0
C      1  0.5318160000000  0.4924960000000  0.4358460000000 1.0
C      1  0.5318140000000  0.5075020000000  0.5641550000000 1.0
C      1  0.5641530000000  0.4681820000000  0.4924940000000 1.0
C      1  0.4358440000000  0.4681870000000  0.5075030000000 1.0
C      1  0.4358470000000  0.5318180000000  0.4924940000000 1.0
C      1  0.4924970000000  0.5641560000000  0.4681880000000 1.0
C      1  0.5075080000000  0.5641520000000  0.5318190000000 1.0
C      1  0.5075040000000  0.4358470000000  0.4681820000000 1.0
END
