TITL C240-987247 4.12011237596754 1000000 -1554.59473289716 0 0 240 (S10) n - 1
REM
REM in /home/chem/mssmkc/work/CARBON/AIRSS/Generating-Clusters/Str-Search/GAP20/LAMMPS-RUNS
REM
REM
REM
REM
REM
REM C240.cell (487bd637cd685f9c7bad7ce3a2eb59ae)
REM
REM
REM
REM
REM
CELL 1.54180  100.00000  100.00000  100.00000   90.00000   90.00000   90.00000
LATT -1
SFAC C  
C      1  0.4920070000000  0.4927010000000  0.5547540000000 1.0
C      1  0.5064280000000  0.5558310000000  0.4925970000000 1.0
C      1  0.4802630000000  0.5380460000000  0.4642500000000 1.0
C      1  0.4680520000000  0.4924730000000  0.5450210000000 1.0
C      1  0.5361920000000  0.5200320000000  0.4619720000000 1.0
C      1  0.5083380000000  0.5466770000000  0.5311740000000 1.0
C      1  0.4638080000000  0.4799680000000  0.5380280000000 1.0
C      1  0.5191970000000  0.5387960000000  0.4648440000000 1.0
C      1  0.4440730000000  0.4930400000000  0.4933730000000 1.0
C      1  0.5512650000000  0.4809330000000  0.5143040000000 1.0
C      1  0.4934510000000  0.4918300000000  0.4452770000000 1.0
C      1  0.4860080000000  0.4489530000000  0.5188590000000 1.0
C      1  0.5549610000000  0.4921180000000  0.4914690000000 1.0
C      1  0.5394790000000  0.4645960000000  0.5200280000000 1.0
C      1  0.5065490000000  0.5081700000000  0.5547230000000 1.0
C      1  0.4439480000000  0.5078820000000  0.4936510000000 1.0
C      1  0.4621120000000  0.5368180000000  0.5190950000000 1.0
C      1  0.5072620000000  0.5557200000000  0.5074380000000 1.0
C      1  0.4636390000000  0.5199510000000  0.5384190000000 1.0
C      1  0.4927380000000  0.4442800000000  0.4925620000000 1.0
C      1  0.4605210000000  0.5354040000000  0.4799720000000 1.0
C      1  0.4935720000000  0.4441690000000  0.5074030000000 1.0
C      1  0.5197370000000  0.4619540000000  0.5357510000000 1.0
C      1  0.4544430000000  0.5320650000000  0.5070050000000 1.0
C      1  0.5069960000000  0.4931430000000  0.5548960000000 1.0
C      1  0.4846340000000  0.4492760000000  0.4814620000000 1.0
C      1  0.5433680000000  0.4746750000000  0.4731270000000 1.0
C      1  0.5153660000000  0.5507240000000  0.5185380000000 1.0
C      1  0.5186600000000  0.4616460000000  0.4634830000000 1.0
C      1  0.5308270000000  0.5080480000000  0.5468840000000 1.0
C      1  0.4639670000000  0.4803960000000  0.4608830000000 1.0
C      1  0.4931950000000  0.4539620000000  0.5308100000000 1.0
C      1  0.5360330000000  0.5196040000000  0.5391170000000 1.0
C      1  0.5262260000000  0.4561870000000  0.4752460000000 1.0
C      1  0.5310150000000  0.4935190000000  0.5464040000000 1.0
C      1  0.4691730000000  0.4919520000000  0.4531160000000 1.0
C      1  0.5085000000000  0.4451830000000  0.5067780000000 1.0
C      1  0.4808030000000  0.4612040000000  0.5351560000000 1.0
C      1  0.4802600000000  0.4852680000000  0.5500280000000 1.0
C      1  0.4757160000000  0.5268650000000  0.5436050000000 1.0
C      1  0.4930040000000  0.5068570000000  0.4451040000000 1.0
C      1  0.5156970000000  0.4499290000000  0.5187260000000 1.0
C      1  0.4489580000000  0.4818570000000  0.4851260000000 1.0
C      1  0.4565480000000  0.4749970000000  0.5264550000000 1.0
C      1  0.5083760000000  0.4924890000000  0.4449480000000 1.0
C      1  0.4795730000000  0.5144760000000  0.5508560000000 1.0
C      1  0.5240640000000  0.4739470000000  0.5430320000000 1.0
C      1  0.4813410000000  0.5383540000000  0.5365170000000 1.0
C      1  0.5359950000000  0.4818760000000  0.5384720000000 1.0
C      1  0.4924310000000  0.5554280000000  0.5081690000000 1.0
C      1  0.5205230000000  0.5394430000000  0.5355990000000 1.0
C      1  0.5184360000000  0.5157040000000  0.5503640000000 1.0
C      1  0.5321900000000  0.4927960000000  0.4548900000000 1.0
C      1  0.4724560000000  0.5426720000000  0.4759640000000 1.0
C      1  0.4689850000000  0.5064810000000  0.4535960000000 1.0
C      1  0.4678100000000  0.5072040000000  0.5451110000000 1.0
C      1  0.5510410000000  0.5196870000000  0.4851680000000 1.0
C      1  0.5141190000000  0.4487500000000  0.4795450000000 1.0
C      1  0.4809980000000  0.5141030000000  0.4494520000000 1.0
C      1  0.5241140000000  0.5275200000000  0.5430980000000 1.0
C      1  0.5473260000000  0.5307270000000  0.5077710000000 1.0
C      1  0.4489580000000  0.4803130000000  0.5148320000000 1.0
C      1  0.4564790000000  0.4770120000000  0.4729790000000 1.0
C      1  0.4758860000000  0.4724800000000  0.4569020000000 1.0
C      1  0.5262940000000  0.5435220000000  0.4772260000000 1.0
C      1  0.5275440000000  0.4573280000000  0.5240360000000 1.0
C      1  0.4737060000000  0.4564780000000  0.5227740000000 1.0
C      1  0.5204270000000  0.4855240000000  0.4491440000000 1.0
C      1  0.4916240000000  0.5075110000000  0.5550520000000 1.0
C      1  0.5455570000000  0.4679350000000  0.4929950000000 1.0
C      1  0.4534470000000  0.5314370000000  0.4924290000000 1.0
C      1  0.4760570000000  0.4729640000000  0.5425550000000 1.0
C      1  0.4534130000000  0.4686870000000  0.5067340000000 1.0
C      1  0.5465530000000  0.4685630000000  0.5075710000000 1.0
C      1  0.4843030000000  0.5500710000000  0.4812740000000 1.0
C      1  0.5510420000000  0.5181430000000  0.5148740000000 1.0
C      1  0.5319480000000  0.5075270000000  0.4549790000000 1.0
C      1  0.5079930000000  0.5072990000000  0.4452460000000 1.0
C      1  0.5559270000000  0.5069600000000  0.5066270000000 1.0
C      1  0.4915000000000  0.5548170000000  0.4932220000000 1.0
C      1  0.5197400000000  0.5147320000000  0.4499710000000 1.0
C      1  0.5242840000000  0.4731350000000  0.4563950000000 1.0
C      1  0.4487350000000  0.5190670000000  0.4856960000000 1.0
C      1  0.5560520000000  0.4921180000000  0.5063490000000 1.0
C      1  0.5378880000000  0.4631820000000  0.4809050000000 1.0
C      1  0.4449460000000  0.4927970000000  0.5083600000000 1.0
C      1  0.5434520000000  0.5250030000000  0.4735450000000 1.0
C      1  0.5239430000000  0.5270360000000  0.4574450000000 1.0
C      1  0.5276260000000  0.5431600000000  0.5230160000000 1.0
C      1  0.5075690000000  0.4445730000000  0.4918310000000 1.0
C      1  0.5139920000000  0.5510480000000  0.4811410000000 1.0
C      1  0.4564160000000  0.5226270000000  0.4733260000000 1.0
C      1  0.4794770000000  0.4605570000000  0.4644010000000 1.0
C      1  0.5550540000000  0.5072030000000  0.4916400000000 1.0
C      1  0.4492270000000  0.5204510000000  0.5149650000000 1.0
C      1  0.4815640000000  0.4842960000000  0.4496360000000 1.0
C      1  0.4759370000000  0.5260530000000  0.4569680000000 1.0
C      1  0.5507730000000  0.4795490000000  0.4850350000000 1.0
C      1  0.4450380000000  0.5078820000000  0.5085310000000 1.0
C      1  0.5190020000000  0.4858970000000  0.5505480000000 1.0
C      1  0.4723740000000  0.4568400000000  0.4769840000000 1.0
C      1  0.4737740000000  0.5438130000000  0.5247540000000 1.0
C      1  0.4921250000000  0.5457930000000  0.4691680000000 1.0
C      1  0.5435210000000  0.5229880000000  0.5270210000000 1.0
C      1  0.5078750000000  0.4542080000000  0.5308320000000 1.0
C      1  0.4640050000000  0.5181240000000  0.4615280000000 1.0
C      1  0.4566320000000  0.5253250000000  0.5268730000000 1.0
C      1  0.5068050000000  0.5460390000000  0.4691900000000 1.0
C      1  0.4858810000000  0.5512500000000  0.5204550000000 1.0
C      1  0.4936580000000  0.5457690000000  0.5319480000000 1.0
C      1  0.5363620000000  0.4800490000000  0.4615810000000 1.0
C      1  0.5435840000000  0.4773730000000  0.5266740000000 1.0
C      1  0.4916620000000  0.4533230000000  0.4688250000000 1.0
C      1  0.5383310000000  0.5363800000000  0.4818270000000 1.0
C      1  0.4602820000000  0.4645250000000  0.4803990000000 1.0
C      1  0.5397180000000  0.5354750000000  0.5196010000000 1.0
C      1  0.5465870000000  0.5313130000000  0.4932660000000 1.0
C      1  0.4526740000000  0.4692730000000  0.4922290000000 1.0
C      1  0.4616690000000  0.4636200000000  0.5181730000000 1.0
C      1  0.5063420000000  0.4542310000000  0.4680520000000 1.0
C      1  0.5537210000000  0.4545060000000  0.5074320000000 1.0
C      1  0.5446020000000  0.5077370000000  0.5547040000000 1.0
C      1  0.5639110000000  0.5188160000000  0.4760810000000 1.0
C      1  0.4429590000000  0.4791310000000  0.4645130000000 1.0
C      1  0.5228550000000  0.4354920000000  0.4803050000000 1.0
C      1  0.5226360000000  0.4656330000000  0.5565680000000 1.0
C      1  0.4771450000000  0.5645080000000  0.5196950000000 1.0
C      1  0.4356550000000  0.5181050000000  0.4767050000000 1.0
C      1  0.4925240000000  0.5529780000000  0.4549340000000 1.0
C      1  0.4918970000000  0.5166680000000  0.5680780000000 1.0
C      1  0.5522540000000  0.4533220000000  0.4937390000000 1.0
C      1  0.4309020000000  0.5076780000000  0.4845710000000 1.0
C      1  0.5063680000000  0.5531630000000  0.4550390000000 1.0
C      1  0.5198290000000  0.4769520000000  0.4358340000000 1.0
C      1  0.4477460000000  0.5466780000000  0.5062610000000 1.0
C      1  0.4919310000000  0.4460900000000  0.4546970000000 1.0
C      1  0.4821620000000  0.5231320000000  0.4364780000000 1.0
C      1  0.5463210000000  0.5071450000000  0.4480880000000 1.0
C      1  0.4771840000000  0.4357220000000  0.5180480000000 1.0
C      1  0.4536790000000  0.4928550000000  0.5519120000000 1.0
C      1  0.4801710000000  0.5230480000000  0.5641660000000 1.0
C      1  0.4553980000000  0.4922630000000  0.4452960000000 1.0
C      1  0.4360890000000  0.4811840000000  0.5239200000000 1.0
C      1  0.5360150000000  0.5565710000000  0.5209790000000 1.0
C      1  0.4460900000000  0.4545760000000  0.5064090000000 1.0
C      1  0.4326140000000  0.5073330000000  0.5185170000000 1.0
C      1  0.5474830000000  0.5492750000000  0.5184710000000 1.0
C      1  0.5673860000000  0.4926670000000  0.4814830000000 1.0
C      1  0.4360950000000  0.4835550000000  0.4758500000000 1.0
C      1  0.5568570000000  0.5243460000000  0.4651270000000 1.0
C      1  0.4749960000000  0.5629510000000  0.4825790000000 1.0
C      1  0.4769880000000  0.5349050000000  0.5571230000000 1.0
C      1  0.5250040000000  0.4370490000000  0.5174210000000 1.0
C      1  0.4819840000000  0.4535360000000  0.5490910000000 1.0
C      1  0.5568310000000  0.4755610000000  0.4647220000000 1.0
C      1  0.4431420000000  0.4756540000000  0.5348730000000 1.0
C      1  0.5464880000000  0.4933490000000  0.4480670000000 1.0
C      1  0.5643450000000  0.4818950000000  0.5232950000000 1.0
C      1  0.5168840000000  0.4316930000000  0.4922670000000 1.0
C      1  0.5499440000000  0.4833690000000  0.5460500000000 1.0
C      1  0.5539100000000  0.5454240000000  0.4935900000000 1.0
C      1  0.5675480000000  0.5066380000000  0.4815160000000 1.0
C      1  0.5075360000000  0.5167640000000  0.4325420000000 1.0
C      1  0.4526060000000  0.5491200000000  0.4804370000000 1.0
C      1  0.4450270000000  0.4553420000000  0.4925720000000 1.0
C      1  0.5153110000000  0.5689480000000  0.4926930000000 1.0
C      1  0.4497970000000  0.5189210000000  0.5461780000000 1.0
C      1  0.5639050000000  0.5164450000000  0.5241500000000 1.0
C      1  0.5247460000000  0.5636780000000  0.5167690000000 1.0
C      1  0.4549800000000  0.5061480000000  0.4460240000000 1.0
C      1  0.4362270000000  0.5194840000000  0.5240250000000 1.0
C      1  0.4817660000000  0.5673140000000  0.4937820000000 1.0
C      1  0.5569830000000  0.4791720000000  0.5349500000000 1.0
C      1  0.5198490000000  0.5472940000000  0.5494050000000 1.0
C      1  0.4431700000000  0.5244390000000  0.5352780000000 1.0
C      1  0.4430170000000  0.5208280000000  0.4650500000000 1.0
C      1  0.4941380000000  0.4821400000000  0.4326340000000 1.0
C      1  0.5687600000000  0.5064280000000  0.5159570000000 1.0
C      1  0.5164880000000  0.5685050000000  0.5067910000000 1.0
C      1  0.4499720000000  0.4807410000000  0.5458720000000 1.0
C      1  0.4655740000000  0.5573440000000  0.5234580000000 1.0
C      1  0.5058620000000  0.5178600000000  0.5673660000000 1.0
C      1  0.4548730000000  0.5509400000000  0.5174980000000 1.0
C      1  0.5500280000000  0.5192590000000  0.4541280000000 1.0
C      1  0.4829990000000  0.5456150000000  0.5507810000000 1.0
C      1  0.4801510000000  0.4527060000000  0.4505950000000 1.0
C      1  0.5170010000000  0.4543850000000  0.4492190000000 1.0
C      1  0.4846890000000  0.4310520000000  0.5073070000000 1.0
C      1  0.5549730000000  0.5446580000000  0.5074280000000 1.0
C      1  0.4639850000000  0.4434290000000  0.4790210000000 1.0
C      1  0.5344910000000  0.5570880000000  0.4789560000000 1.0
C      1  0.5496890000000  0.5184170000000  0.5469330000000 1.0
C      1  0.5359270000000  0.4438240000000  0.5230560000000 1.0
C      1  0.4655090000000  0.4429120000000  0.5210440000000 1.0
C      1  0.4324520000000  0.4933620000000  0.5184850000000 1.0
C      1  0.4924640000000  0.4832360000000  0.5674580000000 1.0
C      1  0.5570410000000  0.5208690000000  0.5354870000000 1.0
C      1  0.4462790000000  0.5454940000000  0.4925680000000 1.0
C      1  0.5074760000000  0.4470220000000  0.5450660000000 1.0
C      1  0.4535120000000  0.5066510000000  0.5519330000000 1.0
C      1  0.4831160000000  0.5683070000000  0.5077330000000 1.0
C      1  0.4500560000000  0.5166310000000  0.4539500000000 1.0
C      1  0.5081030000000  0.4833320000000  0.4319230000000 1.0
C      1  0.5080690000000  0.5539100000000  0.5453030000000 1.0
C      1  0.5178390000000  0.4768680000000  0.5635220000000 1.0
C      1  0.4943680000000  0.5524600000000  0.5464090000000 1.0
C      1  0.5473940000000  0.4508800000000  0.5195630000000 1.0
C      1  0.4503110000000  0.4815830000000  0.4530670000000 1.0
C      1  0.4814400000000  0.5456280000000  0.4503820000000 1.0
C      1  0.5450200000000  0.4938520000000  0.5539760000000 1.0
C      1  0.5690980000000  0.4923220000000  0.5154290000000 1.0
C      1  0.4542860000000  0.4496690000000  0.5167140000000 1.0
C      1  0.5637730000000  0.4805160000000  0.4759750000000 1.0
C      1  0.5056320000000  0.4475400000000  0.4535910000000 1.0
C      1  0.5065130000000  0.4836480000000  0.5677030000000 1.0
C      1  0.5182340000000  0.4326860000000  0.5062180000000 1.0
C      1  0.5502030000000  0.4810800000000  0.4538220000000 1.0
C      1  0.4934870000000  0.5163520000000  0.4322970000000 1.0
C      1  0.4936320000000  0.4468370000000  0.5449610000000 1.0
C      1  0.4835120000000  0.4314950000000  0.4932090000000 1.0
C      1  0.5185600000000  0.4543720000000  0.5496180000000 1.0
C      1  0.5180160000000  0.5464640000000  0.4509080000000 1.0
C      1  0.4771170000000  0.4641960000000  0.4433860000000 1.0
C      1  0.5451270000000  0.4490600000000  0.4825020000000 1.0
C      1  0.5228830000000  0.5358040000000  0.5566140000000 1.0
C      1  0.4752540000000  0.4363220000000  0.4832310000000 1.0
C      1  0.4525170000000  0.4507250000000  0.4815280000000 1.0
C      1  0.5230120000000  0.4650950000000  0.4428770000000 1.0
C      1  0.4312400000000  0.4935720000000  0.4840430000000 1.0
C      1  0.4775030000000  0.4646760000000  0.5559860000000 1.0
C      1  0.5228160000000  0.5642780000000  0.4819520000000 1.0
C      1  0.5457140000000  0.5503310000000  0.4832860000000 1.0
C      1  0.4773640000000  0.5343670000000  0.4434320000000 1.0
C      1  0.5169830000000  0.5248860000000  0.5632040000000 1.0
C      1  0.4813890000000  0.4761710000000  0.5630820000000 1.0
C      1  0.5186110000000  0.5238290000000  0.4369180000000 1.0
C      1  0.4640730000000  0.5561760000000  0.4769440000000 1.0
C      1  0.5344260000000  0.4426560000000  0.4765420000000 1.0
C      1  0.4830170000000  0.4751140000000  0.4367960000000 1.0
C      1  0.5224970000000  0.5353240000000  0.4440140000000 1.0
END
