TITL C-102689-8077-105 0.0144475777620839 1000000 -1670.41160720255 0 0 240 (Th) n - 1
REM
REM in /home/chem/mssmkc/work/GAP20/Larger-Clusters/Only-C240-new-series
REM
REM
REM
REM
REM
REM ./C.cell (0485df7495ed2a90f93db84a705cd676)
REM
REM compiler GCC version 8.3.0
REM options -cpp -mtune=generic -march=x86-64 -g -O0
REM seed -173438569 1576191367 -760057368 2063991480 -1098997265 -997466321 -1365793358 -861860315 750252686 -258072283 160935421 674336995 824867302 -1377067633 -2114558327 -1871447610 1876296200 519490946 -326327444 366231242 1042298859 -48577720 704161732 930152679 -524990780 -1518519475 -442026775 158453851 826310363 -655757865 1951309461 -1531660472 -1713256602
REM
CELL 1.54180  100.00000  100.00000  100.00000   90.00000   90.00000   90.00000
LATT -1
SFAC C  
C      1  0.4705590000000  0.4698310000000  0.5569830000000 1.0
C      1  0.4698200000000  0.5569720000000  0.4705490000000 1.0
C      1  0.5569810000000  0.4705570000000  0.4698290000000 1.0
C      1  0.4705950000000  0.5301780000000  0.4430030000000 1.0
C      1  0.5294320000000  0.4697790000000  0.4430400000000 1.0
C      1  0.5294140000000  0.5302120000000  0.5569740000000 1.0
C      1  0.4697890000000  0.4430370000000  0.5294370000000 1.0
C      1  0.5301970000000  0.5569850000000  0.5294090000000 1.0
C      1  0.5301940000000  0.4430060000000  0.4706060000000 1.0
C      1  0.5569760000000  0.5294260000000  0.5301980000000 1.0
C      1  0.4430100000000  0.4705970000000  0.5301920000000 1.0
C      1  0.4430330000000  0.5294200000000  0.4697800000000 1.0
C      1  0.5294050000000  0.4698220000000  0.5569970000000 1.0
C      1  0.5302110000000  0.5569630000000  0.4705630000000 1.0
C      1  0.4430240000000  0.4705740000000  0.4698020000000 1.0
C      1  0.5294410000000  0.5301690000000  0.4430170000000 1.0
C      1  0.4705860000000  0.4697880000000  0.4430260000000 1.0
C      1  0.4705680000000  0.5302210000000  0.5569600000000 1.0
C      1  0.5301800000000  0.4430280000000  0.5294510000000 1.0
C      1  0.4698060000000  0.5569940000000  0.5293940000000 1.0
C      1  0.4698030000000  0.4430150000000  0.4705910000000 1.0
C      1  0.4430190000000  0.5294430000000  0.5301710000000 1.0
C      1  0.5569670000000  0.4705800000000  0.5302200000000 1.0
C      1  0.5569900000000  0.5294030000000  0.4698080000000 1.0
C      1  0.5363120000000  0.4631630000000  0.5468600000000 1.0
C      1  0.4631500000000  0.5468560000000  0.5363020000000 1.0
C      1  0.5468510000000  0.5363080000000  0.4631490000000 1.0
C      1  0.5363450000000  0.5368260000000  0.4531580000000 1.0
C      1  0.4636770000000  0.4631390000000  0.4531680000000 1.0
C      1  0.4636660000000  0.5368710000000  0.5468150000000 1.0
C      1  0.4631530000000  0.4531550000000  0.4636800000000 1.0
C      1  0.5368640000000  0.5468180000000  0.4636630000000 1.0
C      1  0.5368330000000  0.4531710000000  0.5363550000000 1.0
C      1  0.5468230000000  0.4636780000000  0.5368730000000 1.0
C      1  0.4531600000000  0.5363490000000  0.5368240000000 1.0
C      1  0.4531660000000  0.4636650000000  0.4631540000000 1.0
C      1  0.4636550000000  0.4631740000000  0.5468420000000 1.0
C      1  0.5368470000000  0.5468450000000  0.5363200000000 1.0
C      1  0.4531770000000  0.5363220000000  0.4631270000000 1.0
C      1  0.4636880000000  0.5368370000000  0.4531400000000 1.0
C      1  0.5363340000000  0.4631290000000  0.4531850000000 1.0
C      1  0.5363230000000  0.5368610000000  0.5468320000000 1.0
C      1  0.5368500000000  0.4531440000000  0.4636980000000 1.0
C      1  0.4631670000000  0.5468290000000  0.4636450000000 1.0
C      1  0.4631360000000  0.4531820000000  0.5363370000000 1.0
C      1  0.4531490000000  0.4636920000000  0.5368510000000 1.0
C      1  0.5468340000000  0.5363350000000  0.5368460000000 1.0
C      1  0.5468400000000  0.4636510000000  0.4631760000000 1.0
C      1  0.5143050000000  0.5577820000000  0.5527650000000 1.0
C      1  0.5577690000000  0.5527800000000  0.5143030000000 1.0
C      1  0.5527720000000  0.5143230000000  0.5577720000000 1.0
C      1  0.5143130000000  0.4422130000000  0.4472420000000 1.0
C      1  0.4857120000000  0.5577470000000  0.4471920000000 1.0
C      1  0.4856700000000  0.4422570000000  0.5528010000000 1.0
C      1  0.5577600000000  0.4472030000000  0.4857240000000 1.0
C      1  0.4422460000000  0.5527870000000  0.4856580000000 1.0
C      1  0.4422240000000  0.4472310000000  0.5143150000000 1.0
C      1  0.5527950000000  0.4856620000000  0.4422530000000 1.0
C      1  0.4472330000000  0.5142950000000  0.4422170000000 1.0
C      1  0.4472010000000  0.4857200000000  0.5577580000000 1.0
C      1  0.4856870000000  0.5577870000000  0.5527580000000 1.0
C      1  0.4422400000000  0.5527970000000  0.5142760000000 1.0
C      1  0.4472050000000  0.5143380000000  0.5577470000000 1.0
C      1  0.4856950000000  0.4422180000000  0.4472350000000 1.0
C      1  0.5143300000000  0.5577430000000  0.4471990000000 1.0
C      1  0.5142880000000  0.4422530000000  0.5528080000000 1.0
C      1  0.4422310000000  0.4472200000000  0.4856970000000 1.0
C      1  0.5577760000000  0.5527690000000  0.4856850000000 1.0
C      1  0.5577540000000  0.4472130000000  0.5143420000000 1.0
C      1  0.4472280000000  0.4856770000000  0.4422280000000 1.0
C      1  0.5527990000000  0.5142800000000  0.4422420000000 1.0
C      1  0.5527670000000  0.4857050000000  0.5577830000000 1.0
C      1  0.5309410000000  0.5651570000000  0.4830340000000 1.0
C      1  0.5651580000000  0.4830530000000  0.5309490000000 1.0
C      1  0.4830400000000  0.5309540000000  0.5651530000000 1.0
C      1  0.5309130000000  0.4348340000000  0.5169800000000 1.0
C      1  0.4690790000000  0.5651790000000  0.5169170000000 1.0
C      1  0.4690670000000  0.4348300000000  0.4830680000000 1.0
C      1  0.5651780000000  0.5169280000000  0.4690820000000 1.0
C      1  0.4348370000000  0.4830490000000  0.4690640000000 1.0
C      1  0.4348270000000  0.5169700000000  0.5309050000000 1.0
C      1  0.4830620000000  0.4690510000000  0.4348390000000 1.0
C      1  0.5169690000000  0.5309000000000  0.4348240000000 1.0
C      1  0.5169290000000  0.4690950000000  0.5651840000000 1.0
C      1  0.4690870000000  0.5651660000000  0.4830200000000 1.0
C      1  0.4348220000000  0.4830720000000  0.5309180000000 1.0
C      1  0.5169380000000  0.5309490000000  0.5651610000000 1.0
C      1  0.4690590000000  0.4348430000000  0.5169660000000 1.0
C      1  0.5309330000000  0.5651700000000  0.5169320000000 1.0
C      1  0.5309210000000  0.4348210000000  0.4830830000000 1.0
C      1  0.4348420000000  0.5169470000000  0.4690510000000 1.0
C      1  0.5651730000000  0.4830300000000  0.4690950000000 1.0
C      1  0.5651630000000  0.5169510000000  0.5309360000000 1.0
C      1  0.5169600000000  0.4690460000000  0.4348470000000 1.0
C      1  0.4830710000000  0.5309050000000  0.4348160000000 1.0
C      1  0.4830310000000  0.4691000000000  0.5651760000000 1.0
C      1  0.4365270000000  0.4924850000000  0.4463660000000 1.0
C      1  0.4925030000000  0.4463560000000  0.4365340000000 1.0
C      1  0.4463710000000  0.4365210000000  0.4925070000000 1.0
C      1  0.4365040000000  0.5075340000000  0.5536040000000 1.0
C      1  0.5634710000000  0.4925060000000  0.5536400000000 1.0
C      1  0.5634990000000  0.5074750000000  0.4463910000000 1.0
C      1  0.4924890000000  0.5536470000000  0.5634630000000 1.0
C      1  0.5074810000000  0.4464010000000  0.5635060000000 1.0
C      1  0.5075270000000  0.5535970000000  0.4364970000000 1.0
C      1  0.4463860000000  0.5634950000000  0.5074680000000 1.0
C      1  0.5536100000000  0.4365100000000  0.5075410000000 1.0
C      1  0.5536330000000  0.5634740000000  0.4924850000000 1.0
C      1  0.5634960000000  0.4924660000000  0.4463960000000 1.0
C      1  0.5075110000000  0.4463530000000  0.4365370000000 1.0
C      1  0.5536140000000  0.4365050000000  0.4925320000000 1.0
C      1  0.5634730000000  0.5075150000000  0.5536340000000 1.0
C      1  0.4365010000000  0.4925250000000  0.5536090000000 1.0
C      1  0.4365290000000  0.5074940000000  0.4463600000000 1.0
C      1  0.5074970000000  0.5536440000000  0.5634660000000 1.0
C      1  0.4924730000000  0.4464030000000  0.5635030000000 1.0
C      1  0.4925190000000  0.5535990000000  0.4364940000000 1.0
C      1  0.5536290000000  0.5634790000000  0.5074930000000 1.0
C      1  0.4463670000000  0.4365260000000  0.5075150000000 1.0
C      1  0.4463900000000  0.5634900000000  0.4924590000000 1.0
C      1  0.4380040000000  0.5304040000000  0.4836710000000 1.0
C      1  0.5304130000000  0.4836690000000  0.4380090000000 1.0
C      1  0.4836800000000  0.4380100000000  0.5304200000000 1.0
C      1  0.4379870000000  0.4696150000000  0.5163000000000 1.0
C      1  0.5620050000000  0.5303980000000  0.5163070000000 1.0
C      1  0.5620030000000  0.4695840000000  0.4837230000000 1.0
C      1  0.5303880000000  0.5163220000000  0.5620050000000 1.0
C      1  0.4695820000000  0.4837250000000  0.5620030000000 1.0
C      1  0.4696160000000  0.5162850000000  0.4379830000000 1.0
C      1  0.4837130000000  0.5619950000000  0.4695720000000 1.0
C      1  0.5163010000000  0.4379820000000  0.4696260000000 1.0
C      1  0.5163050000000  0.5620130000000  0.5303820000000 1.0
C      1  0.5620130000000  0.5303850000000  0.4837000000000 1.0
C      1  0.4696120000000  0.4836780000000  0.4379950000000 1.0
C      1  0.5162870000000  0.4380050000000  0.5304280000000 1.0
C      1  0.5619960000000  0.4695960000000  0.5163290000000 1.0
C      1  0.4379970000000  0.5304160000000  0.5162770000000 1.0
C      1  0.4379950000000  0.4696020000000  0.4836930000000 1.0
C      1  0.4695870000000  0.5163310000000  0.5619910000000 1.0
C      1  0.5303840000000  0.4837150000000  0.5620170000000 1.0
C      1  0.5304180000000  0.5162750000000  0.4379970000000 1.0
C      1  0.5163200000000  0.5619900000000  0.4695800000000 1.0
C      1  0.4836950000000  0.4379870000000  0.4696180000000 1.0
C      1  0.4836990000000  0.5620180000000  0.5303740000000 1.0
C      1  0.5073540000000  0.4926040000000  0.5710540000000 1.0
C      1  0.4925880000000  0.5710530000000  0.5073440000000 1.0
C      1  0.5710520000000  0.5073580000000  0.4925930000000 1.0
C      1  0.5073900000000  0.5073940000000  0.4289500000000 1.0
C      1  0.4926440000000  0.4925530000000  0.4289520000000 1.0
C      1  0.4926120000000  0.5074490000000  0.5710450000000 1.0
C      1  0.4925700000000  0.4289490000000  0.4926530000000 1.0
C      1  0.5074340000000  0.5710450000000  0.4926040000000 1.0
C      1  0.5074090000000  0.4289520000000  0.5074000000000 1.0
C      1  0.5710460000000  0.4926200000000  0.5074410000000 1.0
C      1  0.4289500000000  0.5073850000000  0.5074020000000 1.0
C      1  0.4289520000000  0.4926360000000  0.4925650000000 1.0
C      1  0.4926100000000  0.4926060000000  0.5710500000000 1.0
C      1  0.5074300000000  0.5710510000000  0.5073470000000 1.0
C      1  0.4289540000000  0.5073800000000  0.4925590000000 1.0
C      1  0.4926460000000  0.5073960000000  0.4289460000000 1.0
C      1  0.5073880000000  0.4925510000000  0.4289550000000 1.0
C      1  0.5073560000000  0.5074470000000  0.5710480000000 1.0
C      1  0.5074120000000  0.4289470000000  0.4926560000000 1.0
C      1  0.4925910000000  0.5710480000000  0.4926000000000 1.0
C      1  0.4925660000000  0.4289550000000  0.5073960000000 1.0
C      1  0.4289480000000  0.4926420000000  0.5074070000000 1.0
C      1  0.5710480000000  0.5073640000000  0.5074350000000 1.0
C      1  0.5710500000000  0.4926150000000  0.4925980000000 1.0
C      1  0.4386690000000  0.4588950000000  0.5075290000000 1.0
C      1  0.4588990000000  0.5075110000000  0.4386640000000 1.0
C      1  0.5075290000000  0.4386600000000  0.4589080000000 1.0
C      1  0.4386850000000  0.5411230000000  0.4924420000000 1.0
C      1  0.5613190000000  0.4588710000000  0.4925020000000 1.0
C      1  0.5613280000000  0.5411100000000  0.5075270000000 1.0
C      1  0.4588680000000  0.4925010000000  0.5613160000000 1.0
C      1  0.5411030000000  0.5075450000000  0.5613300000000 1.0
C      1  0.5411300000000  0.4924430000000  0.4386890000000 1.0
C      1  0.5075280000000  0.5613370000000  0.5410960000000 1.0
C      1  0.4924530000000  0.4386930000000  0.5411380000000 1.0
C      1  0.4924910000000  0.5613090000000  0.4588590000000 1.0
C      1  0.5613150000000  0.4588770000000  0.5075580000000 1.0
C      1  0.5411320000000  0.5074990000000  0.4386840000000 1.0
C      1  0.4924720000000  0.4386630000000  0.4589040000000 1.0
C      1  0.5613310000000  0.5411050000000  0.4924710000000 1.0
C      1  0.4386720000000  0.4588900000000  0.4924730000000 1.0
C      1  0.4386810000000  0.5411290000000  0.5074980000000 1.0
C      1  0.5411010000000  0.4924890000000  0.5613360000000 1.0
C      1  0.4588700000000  0.5075570000000  0.5613110000000 1.0
C      1  0.4588970000000  0.4924550000000  0.4386700000000 1.0
C      1  0.4924710000000  0.5613400000000  0.5410920000000 1.0
C      1  0.5075090000000  0.4386910000000  0.5411410000000 1.0
C      1  0.5075470000000  0.5613070000000  0.4588620000000 1.0
C      1  0.4322690000000  0.4828610000000  0.5166000000000 1.0
C      1  0.4828630000000  0.5165870000000  0.4322650000000 1.0
C      1  0.5166030000000  0.4322670000000  0.4828740000000 1.0
C      1  0.4322820000000  0.5171590000000  0.4833680000000 1.0
C      1  0.5677260000000  0.4828280000000  0.4834130000000 1.0
C      1  0.5677230000000  0.5171510000000  0.5166190000000 1.0
C      1  0.4828260000000  0.4834180000000  0.5677260000000 1.0
C      1  0.5171420000000  0.5166320000000  0.5677220000000 1.0
C      1  0.5171690000000  0.4833630000000  0.4322860000000 1.0
C      1  0.5166160000000  0.5677280000000  0.5171340000000 1.0
C      1  0.4833760000000  0.4322850000000  0.5171770000000 1.0
C      1  0.4834050000000  0.5677200000000  0.4828150000000 1.0
C      1  0.5677180000000  0.4828410000000  0.5166320000000 1.0
C      1  0.5171740000000  0.5165820000000  0.4322740000000 1.0
C      1  0.4833840000000  0.4322720000000  0.4828660000000 1.0
C      1  0.5677310000000  0.5171390000000  0.4834000000000 1.0
C      1  0.4322770000000  0.4828490000000  0.4833810000000 1.0
C      1  0.4322740000000  0.5171720000000  0.5165870000000 1.0
C      1  0.5171370000000  0.4834130000000  0.5677350000000 1.0
C      1  0.4828310000000  0.5166370000000  0.5677140000000 1.0
C      1  0.4828580000000  0.4833680000000  0.4322780000000 1.0
C      1  0.4833970000000  0.5677330000000  0.5171260000000 1.0
C      1  0.5165950000000  0.4322800000000  0.5171850000000 1.0
C      1  0.5166240000000  0.5677150000000  0.4828230000000 1.0
C      1  0.4599820000000  0.5689100000000  0.4925270000000 1.0
C      1  0.5689150000000  0.4925370000000  0.4599890000000 1.0
C      1  0.4925390000000  0.4599970000000  0.5689200000000 1.0
C      1  0.4599580000000  0.4311020000000  0.5074540000000 1.0
C      1  0.5400390000000  0.5689030000000  0.5074220000000 1.0
C      1  0.5400210000000  0.4310850000000  0.4925970000000 1.0
C      1  0.5688980000000  0.5074430000000  0.5400440000000 1.0
C      1  0.4310830000000  0.4925870000000  0.5400160000000 1.0
C      1  0.4311040000000  0.5074340000000  0.4599510000000 1.0
C      1  0.4925840000000  0.5400050000000  0.4310770000000 1.0
C      1  0.5074490000000  0.4599430000000  0.4311100000000 1.0
C      1  0.5074280000000  0.5400550000000  0.5688930000000 1.0
C      1  0.5400420000000  0.5688980000000  0.4925460000000 1.0
C      1  0.4311020000000  0.4925570000000  0.4599560000000 1.0
C      1  0.5074160000000  0.4599950000000  0.5689230000000 1.0
C      1  0.5400180000000  0.4310900000000  0.5074730000000 1.0
C      1  0.4599790000000  0.5689150000000  0.5074030000000 1.0
C      1  0.4599610000000  0.4310970000000  0.4925780000000 1.0
C      1  0.4310850000000  0.5074630000000  0.5400110000000 1.0
C      1  0.5688960000000  0.4925660000000  0.5400490000000 1.0
C      1  0.5689170000000  0.5074130000000  0.4599840000000 1.0
C      1  0.5074610000000  0.5400030000000  0.4310800000000 1.0
C      1  0.4925720000000  0.4599450000000  0.4311070000000 1.0
C      1  0.4925510000000  0.5400570000000  0.5688900000000 1.0
END
