TITL C-102688-8074-83 0.0074688807109184 1000000 -1759.22229872806 0 0 240 (Td) n - 1
REM
REM in /home/chem/mssmkc/work/GAP20/Larger-Clusters/Only-C240-new-series
REM
REM
REM
REM
REM
REM ./C.cell (0485df7495ed2a90f93db84a705cd676)
REM
REM compiler GCC version 8.3.0
REM options -cpp -mtune=generic -march=x86-64 -g -O0
REM seed -821346193 557020099 -1412041731 -14887634 -1742650460 1939187122 -581767200 2025806148 -1215279749 -368142733 -628483845 -1255935897 1349692270 1847308966 -207487754 -1081026034 569042117 2073399241 169884074 482749242 -240892197 -877196996 -2045145904 1700940623 -1148351644 -717564908 283942128 -422979678 -91756259 1581898919 -185111152 -763758065 964683344
REM
CELL 1.54180  100.00000  100.00000  100.00000   90.00000   90.00000   90.00000
LATT -1
SFAC C  
C      1  0.5396670000000  0.5496310000000  0.5012430000000 1.0
C      1  0.5496250000000  0.5012400000000  0.5396740000000 1.0
C      1  0.5012320000000  0.5396690000000  0.5496300000000 1.0
C      1  0.5396690000000  0.4503700000000  0.4987670000000 1.0
C      1  0.4603310000000  0.5496300000000  0.4987550000000 1.0
C      1  0.4603320000000  0.4503690000000  0.5012350000000 1.0
C      1  0.5496350000000  0.4987610000000  0.4603380000000 1.0
C      1  0.4503750000000  0.5012370000000  0.4603260000000 1.0
C      1  0.4503650000000  0.4987610000000  0.5396620000000 1.0
C      1  0.5012460000000  0.4603310000000  0.4503710000000 1.0
C      1  0.4987670000000  0.5396670000000  0.4503690000000 1.0
C      1  0.4987550000000  0.4603330000000  0.5496310000000 1.0
C      1  0.5396620000000  0.5012400000000  0.5496350000000 1.0
C      1  0.5496300000000  0.5396690000000  0.5012440000000 1.0
C      1  0.5012330000000  0.5496310000000  0.5396670000000 1.0
C      1  0.5396740000000  0.4987610000000  0.4503750000000 1.0
C      1  0.4603260000000  0.4987620000000  0.5496250000000 1.0
C      1  0.4603380000000  0.5012370000000  0.4503650000000 1.0
C      1  0.5496310000000  0.4603330000000  0.4987680000000 1.0
C      1  0.4503700000000  0.4603310000000  0.5012330000000 1.0
C      1  0.4503690000000  0.5396670000000  0.4987540000000 1.0
C      1  0.5012450000000  0.4503690000000  0.4603330000000 1.0
C      1  0.4987570000000  0.4503700000000  0.5396690000000 1.0
C      1  0.4987660000000  0.5496300000000  0.4603310000000 1.0
C      1  0.5283600000000  0.4916730000000  0.4813350000000 1.0
C      1  0.4916690000000  0.4813320000000  0.5283570000000 1.0
C      1  0.4813320000000  0.5283580000000  0.4916700000000 1.0
C      1  0.5283560000000  0.5083280000000  0.5186720000000 1.0
C      1  0.4716400000000  0.4916730000000  0.5186650000000 1.0
C      1  0.4716440000000  0.5083270000000  0.4813280000000 1.0
C      1  0.4916760000000  0.5186680000000  0.4716410000000 1.0
C      1  0.5083310000000  0.4813310000000  0.4716430000000 1.0
C      1  0.5083240000000  0.5186690000000  0.5283590000000 1.0
C      1  0.4813310000000  0.4716420000000  0.5083260000000 1.0
C      1  0.5186670000000  0.5283580000000  0.5083290000000 1.0
C      1  0.5186700000000  0.4716420000000  0.4916760000000 1.0
C      1  0.5283590000000  0.4813320000000  0.4916770000000 1.0
C      1  0.4916750000000  0.5283580000000  0.4813300000000 1.0
C      1  0.4813280000000  0.4916730000000  0.5283560000000 1.0
C      1  0.5283570000000  0.5186690000000  0.5083310000000 1.0
C      1  0.4716430000000  0.5186680000000  0.4916690000000 1.0
C      1  0.4716410000000  0.4813310000000  0.5083240000000 1.0
C      1  0.4916710000000  0.4716420000000  0.5186680000000 1.0
C      1  0.5083300000000  0.4716420000000  0.4813330000000 1.0
C      1  0.5083250000000  0.5283580000000  0.5186690000000 1.0
C      1  0.4813350000000  0.5083270000000  0.4716390000000 1.0
C      1  0.5186650000000  0.5083280000000  0.5283600000000 1.0
C      1  0.5186720000000  0.4916720000000  0.4716450000000 1.0
C      1  0.5100020000000  0.4497150000000  0.5307800000000 1.0
C      1  0.4497120000000  0.5307770000000  0.5099980000000 1.0
C      1  0.5307840000000  0.5100040000000  0.4497180000000 1.0
C      1  0.5100080000000  0.5502860000000  0.4692230000000 1.0
C      1  0.4900000000000  0.4497130000000  0.4692220000000 1.0
C      1  0.4899910000000  0.5502870000000  0.5307750000000 1.0
C      1  0.4497160000000  0.4692220000000  0.4899890000000 1.0
C      1  0.5502870000000  0.5307780000000  0.4900010000000 1.0
C      1  0.5502850000000  0.4692230000000  0.5100120000000 1.0
C      1  0.5307710000000  0.4899960000000  0.5502900000000 1.0
C      1  0.4692160000000  0.5100060000000  0.5502820000000 1.0
C      1  0.4692290000000  0.4899940000000  0.4497100000000 1.0
C      1  0.5100110000000  0.5307770000000  0.4497150000000 1.0
C      1  0.4497100000000  0.5100050000000  0.5307710000000 1.0
C      1  0.5307770000000  0.4497150000000  0.5100100000000 1.0
C      1  0.5099990000000  0.4692230000000  0.5502880000000 1.0
C      1  0.4900020000000  0.4692210000000  0.4497130000000 1.0
C      1  0.4899880000000  0.5307790000000  0.5502840000000 1.0
C      1  0.4497180000000  0.4899940000000  0.4692160000000 1.0
C      1  0.5502820000000  0.4899960000000  0.5307840000000 1.0
C      1  0.5502900000000  0.5100050000000  0.4692290000000 1.0
C      1  0.5307780000000  0.5502860000000  0.4899980000000 1.0
C      1  0.4692200000000  0.5502860000000  0.5100000000000 1.0
C      1  0.4692240000000  0.4497130000000  0.4899920000000 1.0
C      1  0.4649070000000  0.5143150000000  0.4456550000000 1.0
C      1  0.5143220000000  0.4456590000000  0.4649040000000 1.0
C      1  0.4456580000000  0.4649000000000  0.5143100000000 1.0
C      1  0.4648940000000  0.4856840000000  0.5543360000000 1.0
C      1  0.5350920000000  0.5143180000000  0.5543450000000 1.0
C      1  0.5351060000000  0.4856830000000  0.4456640000000 1.0
C      1  0.5143110000000  0.5543420000000  0.5351000000000 1.0
C      1  0.4856800000000  0.4456600000000  0.5350990000000 1.0
C      1  0.4856870000000  0.5543400000000  0.4648980000000 1.0
C      1  0.4456610000000  0.5350980000000  0.4856760000000 1.0
C      1  0.5543430000000  0.4649010000000  0.4856910000000 1.0
C      1  0.5543380000000  0.5351000000000  0.5143230000000 1.0
C      1  0.4649000000000  0.4456590000000  0.5143130000000 1.0
C      1  0.5143240000000  0.4649000000000  0.4456620000000 1.0
C      1  0.4456640000000  0.5143150000000  0.4648930000000 1.0
C      1  0.4649020000000  0.5543400000000  0.4856780000000 1.0
C      1  0.5350970000000  0.5543410000000  0.5143200000000 1.0
C      1  0.5351020000000  0.4456600000000  0.4856890000000 1.0
C      1  0.5143090000000  0.5351010000000  0.5543420000000 1.0
C      1  0.4856900000000  0.5350980000000  0.4456570000000 1.0
C      1  0.4856770000000  0.4649020000000  0.5543400000000 1.0
C      1  0.4456550000000  0.4856840000000  0.5350930000000 1.0
C      1  0.5543450000000  0.4856840000000  0.4649080000000 1.0
C      1  0.5543360000000  0.5143180000000  0.5351060000000 1.0
C      1  0.4955350000000  0.4851820000000  0.5631990000000 1.0
C      1  0.4851810000000  0.5631990000000  0.4955400000000 1.0
C      1  0.5632020000000  0.4955440000000  0.4851890000000 1.0
C      1  0.4955510000000  0.5148170000000  0.4368000000000 1.0
C      1  0.5044650000000  0.4851800000000  0.4368010000000 1.0
C      1  0.5044490000000  0.5148200000000  0.5632000000000 1.0
C      1  0.4851810000000  0.4368000000000  0.5044560000000 1.0
C      1  0.5148170000000  0.5632000000000  0.5044570000000 1.0
C      1  0.5148200000000  0.4368010000000  0.4955460000000 1.0
C      1  0.5631980000000  0.5044580000000  0.5148270000000 1.0
C      1  0.4367990000000  0.4955430000000  0.5148110000000 1.0
C      1  0.4368020000000  0.5044560000000  0.4851730000000 1.0
C      1  0.4955440000000  0.5631990000000  0.4851790000000 1.0
C      1  0.4851730000000  0.4955440000000  0.5631980000000 1.0
C      1  0.5632000000000  0.4851820000000  0.4955520000000 1.0
C      1  0.4955420000000  0.4368010000000  0.5148190000000 1.0
C      1  0.5044600000000  0.4368000000000  0.4851830000000 1.0
C      1  0.5044540000000  0.5632000000000  0.5148180000000 1.0
C      1  0.4851890000000  0.5044550000000  0.4367980000000 1.0
C      1  0.5148110000000  0.5044580000000  0.5632010000000 1.0
C      1  0.5148270000000  0.4955420000000  0.4368020000000 1.0
C      1  0.5631990000000  0.5148200000000  0.5044650000000 1.0
C      1  0.4368010000000  0.5148180000000  0.4955350000000 1.0
C      1  0.4368000000000  0.4851810000000  0.5044490000000 1.0
C      1  0.5142870000000  0.4584620000000  0.4957000000000 1.0
C      1  0.4584600000000  0.4956970000000  0.5142810000000 1.0
C      1  0.4957020000000  0.5142850000000  0.4584610000000 1.0
C      1  0.5142850000000  0.5415390000000  0.5043040000000 1.0
C      1  0.4857140000000  0.4584610000000  0.5043020000000 1.0
C      1  0.4857140000000  0.5415380000000  0.4956940000000 1.0
C      1  0.4584630000000  0.5043020000000  0.4857080000000 1.0
C      1  0.5415400000000  0.4956970000000  0.4857190000000 1.0
C      1  0.5415370000000  0.5043040000000  0.5142920000000 1.0
C      1  0.4956920000000  0.4857140000000  0.5415380000000 1.0
C      1  0.5042970000000  0.5142870000000  0.5415390000000 1.0
C      1  0.5043080000000  0.4857130000000  0.4584620000000 1.0
C      1  0.5142920000000  0.4956960000000  0.4584630000000 1.0
C      1  0.4584620000000  0.5142860000000  0.4956910000000 1.0
C      1  0.4956960000000  0.4584620000000  0.5142870000000 1.0
C      1  0.5142810000000  0.5043040000000  0.5415400000000 1.0
C      1  0.4857190000000  0.5043020000000  0.4584600000000 1.0
C      1  0.4857080000000  0.4956980000000  0.5415370000000 1.0
C      1  0.4584610000000  0.4857130000000  0.5042980000000 1.0
C      1  0.5415390000000  0.4857140000000  0.4957030000000 1.0
C      1  0.5415380000000  0.5142870000000  0.5043080000000 1.0
C      1  0.4956980000000  0.5415380000000  0.4857120000000 1.0
C      1  0.5043010000000  0.5415390000000  0.5142860000000 1.0
C      1  0.5043050000000  0.4584610000000  0.4857150000000 1.0
C      1  0.5470630000000  0.4630040000000  0.4732920000000 1.0
C      1  0.4629980000000  0.4732860000000  0.5470550000000 1.0
C      1  0.4732890000000  0.5470580000000  0.4630000000000 1.0
C      1  0.5470550000000  0.5369970000000  0.5267200000000 1.0
C      1  0.4529380000000  0.4630040000000  0.5267090000000 1.0
C      1  0.4529440000000  0.5369950000000  0.4732790000000 1.0
C      1  0.4630100000000  0.5267130000000  0.4529360000000 1.0
C      1  0.5370020000000  0.4732850000000  0.4529460000000 1.0
C      1  0.5369900000000  0.5267160000000  0.5470630000000 1.0
C      1  0.4732810000000  0.4529410000000  0.5369930000000 1.0
C      1  0.5267090000000  0.5470600000000  0.5369980000000 1.0
C      1  0.5267200000000  0.4529400000000  0.4630080000000 1.0
C      1  0.5470640000000  0.4732850000000  0.4630110000000 1.0
C      1  0.4630070000000  0.5470580000000  0.4732800000000 1.0
C      1  0.4732800000000  0.4630050000000  0.5470570000000 1.0
C      1  0.5470540000000  0.5267160000000  0.5370010000000 1.0
C      1  0.4529450000000  0.5267130000000  0.4629970000000 1.0
C      1  0.4529360000000  0.4732850000000  0.5369900000000 1.0
C      1  0.4630010000000  0.4529410000000  0.5267110000000 1.0
C      1  0.5370000000000  0.4529410000000  0.4732910000000 1.0
C      1  0.5369920000000  0.5470600000000  0.5267180000000 1.0
C      1  0.4732910000000  0.5369950000000  0.4529370000000 1.0
C      1  0.5267080000000  0.5369970000000  0.5470620000000 1.0
C      1  0.5267210000000  0.4630030000000  0.4529450000000 1.0
C      1  0.4780190000000  0.4675860000000  0.4574030000000 1.0
C      1  0.4675900000000  0.4574040000000  0.4780100000000 1.0
C      1  0.4574090000000  0.4780120000000  0.4675820000000 1.0
C      1  0.4780080000000  0.5324140000000  0.5425920000000 1.0
C      1  0.5219820000000  0.4675880000000  0.5425990000000 1.0
C      1  0.5219920000000  0.5324130000000  0.4574070000000 1.0
C      1  0.4675840000000  0.5425950000000  0.5219820000000 1.0
C      1  0.5324110000000  0.4574060000000  0.5219920000000 1.0
C      1  0.5324150000000  0.5425950000000  0.4780170000000 1.0
C      1  0.4574000000000  0.5219870000000  0.5324070000000 1.0
C      1  0.5425910000000  0.4780150000000  0.5324190000000 1.0
C      1  0.5425990000000  0.5219870000000  0.4675920000000 1.0
C      1  0.4780180000000  0.4574040000000  0.4675850000000 1.0
C      1  0.4675930000000  0.4780120000000  0.4574010000000 1.0
C      1  0.4574080000000  0.4675860000000  0.4780090000000 1.0
C      1  0.4780090000000  0.5425960000000  0.5324090000000 1.0
C      1  0.5219900000000  0.5425950000000  0.4675890000000 1.0
C      1  0.5219830000000  0.4574060000000  0.5324170000000 1.0
C      1  0.4675810000000  0.5219870000000  0.5425910000000 1.0
C      1  0.5324180000000  0.5219860000000  0.4574080000000 1.0
C      1  0.5324080000000  0.4780150000000  0.5426000000000 1.0
C      1  0.4574020000000  0.5324130000000  0.5219810000000 1.0
C      1  0.5425980000000  0.5324130000000  0.4780180000000 1.0
C      1  0.5425930000000  0.4675880000000  0.5219930000000 1.0
C      1  0.4472200000000  0.4940800000000  0.4834530000000 1.0
C      1  0.4940870000000  0.4834580000000  0.4472170000000 1.0
C      1  0.4834610000000  0.4472170000000  0.4940790000000 1.0
C      1  0.4472150000000  0.5059190000000  0.5165340000000 1.0
C      1  0.5527800000000  0.4940820000000  0.5165470000000 1.0
C      1  0.5527850000000  0.5059200000000  0.4834660000000 1.0
C      1  0.4940740000000  0.5165420000000  0.5527810000000 1.0
C      1  0.5059130000000  0.4834610000000  0.5527840000000 1.0
C      1  0.5059260000000  0.5165400000000  0.4472180000000 1.0
C      1  0.4834580000000  0.5527820000000  0.5059160000000 1.0
C      1  0.5165400000000  0.4472180000000  0.5059230000000 1.0
C      1  0.5165410000000  0.5527830000000  0.4940820000000 1.0
C      1  0.4472180000000  0.4834590000000  0.4940740000000 1.0
C      1  0.4940830000000  0.4472170000000  0.4834600000000 1.0
C      1  0.4834660000000  0.4940790000000  0.4472160000000 1.0
C      1  0.4472170000000  0.5165400000000  0.5059120000000 1.0
C      1  0.5527830000000  0.5165410000000  0.4940870000000 1.0
C      1  0.5527820000000  0.4834600000000  0.5059270000000 1.0
C      1  0.4940780000000  0.5527830000000  0.5165390000000 1.0
C      1  0.5059210000000  0.5527820000000  0.4834590000000 1.0
C      1  0.5059180000000  0.4472180000000  0.5165420000000 1.0
C      1  0.4834530000000  0.5059200000000  0.5527800000000 1.0
C      1  0.5165470000000  0.5059190000000  0.4472200000000 1.0
C      1  0.5165340000000  0.4940820000000  0.5527850000000 1.0
C      1  0.4363580000000  0.4752470000000  0.5145560000000 1.0
C      1  0.4752550000000  0.5145620000000  0.4363560000000 1.0
C      1  0.5145680000000  0.4363600000000  0.4752500000000 1.0
C      1  0.4363610000000  0.5247520000000  0.4854280000000 1.0
C      1  0.5636420000000  0.4752480000000  0.4854450000000 1.0
C      1  0.5636380000000  0.5247540000000  0.5145710000000 1.0
C      1  0.4752390000000  0.4854370000000  0.5636370000000 1.0
C      1  0.5247450000000  0.5145650000000  0.5636430000000 1.0
C      1  0.5247610000000  0.4854350000000  0.4363630000000 1.0
C      1  0.5145600000000  0.5636410000000  0.5247530000000 1.0
C      1  0.4854340000000  0.4363600000000  0.5247520000000 1.0
C      1  0.4854390000000  0.5636390000000  0.4752440000000 1.0
C      1  0.4363630000000  0.5145620000000  0.4752390000000 1.0
C      1  0.4752460000000  0.4363600000000  0.5145620000000 1.0
C      1  0.5145720000000  0.4752460000000  0.4363620000000 1.0
C      1  0.4363570000000  0.4854360000000  0.5247450000000 1.0
C      1  0.5636430000000  0.4854370000000  0.4752560000000 1.0
C      1  0.5636370000000  0.5145650000000  0.5247610000000 1.0
C      1  0.4752480000000  0.5636390000000  0.4854320000000 1.0
C      1  0.5247500000000  0.5636410000000  0.5145660000000 1.0
C      1  0.5247560000000  0.4363600000000  0.4854410000000 1.0
C      1  0.5145550000000  0.5247540000000  0.5636410000000 1.0
C      1  0.4854440000000  0.5247510000000  0.4363580000000 1.0
C      1  0.4854280000000  0.4752480000000  0.5636390000000 1.0
END
