TITL C240-776908 11.1553193653389 1000000 -1611.82493623764 0 0 240 (C1) n - 1
REM
REM in /home/chem/mssmkc/work/CARBON/AIRSS/Generating-Clusters/Str-Search/GAP20/LAMMPS-RUNS
REM
REM
REM
REM
REM
REM C240.cell (eea91711cd2737dce18d0cc4f421483d)
REM
REM
REM
REM
REM
CELL 1.54180  100.00000  100.00000  100.00000   90.00000   90.00000   90.00000
LATT -1
SFAC C  
C      1  0.4443830000000  0.4588980000000  0.5578780000000 1.0
C      1  0.5384390000000  0.5590390000000  0.4433200000000 1.0
C      1  0.4550830000000  0.5060810000000  0.4184910000000 1.0
C      1  0.4533710000000  0.5459710000000  0.5630720000000 1.0
C      1  0.5637930000000  0.5381370000000  0.4925990000000 1.0
C      1  0.4527810000000  0.5590990000000  0.5424770000000 1.0
C      1  0.4476760000000  0.4684700000000  0.5040530000000 1.0
C      1  0.5361150000000  0.5050630000000  0.4431720000000 1.0
C      1  0.4406070000000  0.4451490000000  0.4573720000000 1.0
C      1  0.5713580000000  0.5150250000000  0.4924100000000 1.0
C      1  0.4420130000000  0.4598850000000  0.4377850000000 1.0
C      1  0.5066750000000  0.4421680000000  0.4877730000000 1.0
C      1  0.5603390000000  0.4408230000000  0.4606630000000 1.0
C      1  0.5086040000000  0.4223220000000  0.5445820000000 1.0
C      1  0.5580910000000  0.5401020000000  0.5586050000000 1.0
C      1  0.4430270000000  0.5537150000000  0.4617040000000 1.0
C      1  0.4950290000000  0.5600110000000  0.5368610000000 1.0
C      1  0.5417860000000  0.5586630000000  0.5569280000000 1.0
C      1  0.4169900000000  0.5449160000000  0.5072350000000 1.0
C      1  0.4590460000000  0.4419160000000  0.4412480000000 1.0
C      1  0.4928520000000  0.5788410000000  0.4549210000000 1.0
C      1  0.4615070000000  0.4409450000000  0.5560910000000 1.0
C      1  0.5385760000000  0.4928440000000  0.5611760000000 1.0
C      1  0.4400080000000  0.5404210000000  0.4556860000000 1.0
C      1  0.5579990000000  0.4577440000000  0.5587720000000 1.0
C      1  0.5088580000000  0.4190670000000  0.5199590000000 1.0
C      1  0.5243600000000  0.4834210000000  0.4387560000000 1.0
C      1  0.4927620000000  0.5861530000000  0.4785070000000 1.0
C      1  0.5365240000000  0.4911330000000  0.4426210000000 1.0
C      1  0.5460550000000  0.4506580000000  0.5633170000000 1.0
C      1  0.4456050000000  0.4677830000000  0.4902880000000 1.0
C      1  0.5506210000000  0.4329270000000  0.5468400000000 1.0
C      1  0.5644340000000  0.5383260000000  0.5070550000000 1.0
C      1  0.5841410000000  0.4651640000000  0.4862170000000 1.0
C      1  0.5460940000000  0.5473720000000  0.5634750000000 1.0
C      1  0.4586070000000  0.5433250000000  0.4398840000000 1.0
C      1  0.5430020000000  0.4381030000000  0.5582530000000 1.0
C      1  0.4556350000000  0.4919770000000  0.5771950000000 1.0
C      1  0.5159380000000  0.5068560000000  0.5700480000000 1.0
C      1  0.4880010000000  0.5621710000000  0.5243240000000 1.0
C      1  0.4471500000000  0.5354910000000  0.4449610000000 1.0
C      1  0.4920960000000  0.4408870000000  0.4874730000000 1.0
C      1  0.4103470000000  0.5209890000000  0.5078850000000 1.0
C      1  0.4676010000000  0.4846030000000  0.5819190000000 1.0
C      1  0.5584060000000  0.4572830000000  0.4420790000000 1.0
C      1  0.5152310000000  0.4923370000000  0.5685320000000 1.0
C      1  0.5159170000000  0.4199570000000  0.5318000000000 1.0
C      1  0.4554010000000  0.5057410000000  0.5770420000000 1.0
C      1  0.5776870000000  0.4537660000000  0.5075450000000 1.0
C      1  0.4593370000000  0.5556740000000  0.5550170000000 1.0
C      1  0.5396370000000  0.5068860000000  0.5621840000000 1.0
C      1  0.4789210000000  0.4919040000000  0.5852770000000 1.0
C      1  0.5421260000000  0.5472620000000  0.4371190000000 1.0
C      1  0.4144470000000  0.5321040000000  0.4864150000000 1.0
C      1  0.4540760000000  0.4522790000000  0.4334930000000 1.0
C      1  0.4556370000000  0.4512240000000  0.5633190000000 1.0
C      1  0.5847560000000  0.4775070000000  0.5073550000000 1.0
C      1  0.4944510000000  0.4175170000000  0.5199560000000 1.0
C      1  0.5123520000000  0.4901070000000  0.4363620000000 1.0
C      1  0.5165050000000  0.5671560000000  0.5260440000000 1.0
C      1  0.5611720000000  0.5447970000000  0.4522380000000 1.0
C      1  0.4097830000000  0.5209930000000  0.4933260000000 1.0
C      1  0.4670490000000  0.4848840000000  0.4140450000000 1.0
C      1  0.4852660000000  0.4424480000000  0.4754020000000 1.0
C      1  0.5673910000000  0.5260230000000  0.4847350000000 1.0
C      1  0.5811480000000  0.4663180000000  0.5146210000000 1.0
C      1  0.4428280000000  0.4800200000000  0.5117740000000 1.0
C      1  0.4794890000000  0.5060000000000  0.4142350000000 1.0
C      1  0.4416250000000  0.5385680000000  0.5582350000000 1.0
C      1  0.5658840000000  0.4521150000000  0.5488080000000 1.0
C      1  0.4352850000000  0.5421380000000  0.5464360000000 1.0
C      1  0.4878700000000  0.4172650000000  0.5322150000000 1.0
C      1  0.4359050000000  0.4567520000000  0.4498660000000 1.0
C      1  0.5654850000000  0.4525110000000  0.4530130000000 1.0
C      1  0.5090280000000  0.5700370000000  0.5144610000000 1.0
C      1  0.5860060000000  0.4773080000000  0.4928040000000 1.0
C      1  0.5467670000000  0.4498520000000  0.4373770000000 1.0
C      1  0.5546790000000  0.5405680000000  0.4407550000000 1.0
C      1  0.5601210000000  0.5567770000000  0.5403590000000 1.0
C      1  0.4613210000000  0.5558380000000  0.4451980000000 1.0
C      1  0.4792810000000  0.4914470000000  0.4136190000000 1.0
C      1  0.5138630000000  0.4436810000000  0.4759350000000 1.0
C      1  0.4362820000000  0.4904930000000  0.5052680000000 1.0
C      1  0.5618060000000  0.4397040000000  0.5421490000000 1.0
C      1  0.5068560000000  0.4456480000000  0.4631270000000 1.0
C      1  0.4462170000000  0.4462430000000  0.5370880000000 1.0
C      1  0.5233980000000  0.5120160000000  0.4404650000000 1.0
C      1  0.5139560000000  0.5854710000000  0.4663000000000 1.0
C      1  0.5685450000000  0.5264360000000  0.5145780000000 1.0
C      1  0.5418960000000  0.4388290000000  0.4444860000000 1.0
C      1  0.4947520000000  0.5672790000000  0.5135000000000 1.0
C      1  0.4676010000000  0.5130710000000  0.4154510000000 1.0
C      1  0.4547170000000  0.4922400000000  0.4173030000000 1.0
C      1  0.5568350000000  0.5566850000000  0.4597080000000 1.0
C      1  0.4347700000000  0.4901650000000  0.4905550000000 1.0
C      1  0.5118920000000  0.5047320000000  0.4374800000000 1.0
C      1  0.4855230000000  0.5824940000000  0.4673040000000 1.0
C      1  0.5715590000000  0.5152390000000  0.5068450000000 1.0
C      1  0.4408330000000  0.5534090000000  0.5385290000000 1.0
C      1  0.4788100000000  0.5064190000000  0.5852650000000 1.0
C      1  0.4393920000000  0.4792420000000  0.4832230000000 1.0
C      1  0.4124820000000  0.5330340000000  0.5144600000000 1.0
C      1  0.5461230000000  0.5640740000000  0.4551250000000 1.0
C      1  0.5274320000000  0.5143850000000  0.5670410000000 1.0
C      1  0.4556510000000  0.4378840000000  0.5427590000000 1.0
C      1  0.4184310000000  0.5445830000000  0.4934120000000 1.0
C      1  0.4673130000000  0.5133330000000  0.5815980000000 1.0
C      1  0.4533680000000  0.5612190000000  0.4563190000000 1.0
C      1  0.5072250000000  0.5877020000000  0.4783280000000 1.0
C      1  0.5491380000000  0.5636190000000  0.5450030000000 1.0
C      1  0.5792980000000  0.4534780000000  0.4937690000000 1.0
C      1  0.5263530000000  0.4854950000000  0.5641610000000 1.0
C      1  0.5482840000000  0.4350740000000  0.4570820000000 1.0
C      1  0.5065760000000  0.5806600000000  0.4545960000000 1.0
C      1  0.4928830000000  0.4454000000000  0.4629360000000 1.0
C      1  0.5089470000000  0.5619150000000  0.5381740000000 1.0
C      1  0.5648650000000  0.5447000000000  0.5475760000000 1.0
C      1  0.4405880000000  0.4572860000000  0.5446120000000 1.0
C      1  0.4947770000000  0.4209330000000  0.5446370000000 1.0
C      1  0.4517750000000  0.4379530000000  0.4532460000000 1.0
C      1  0.5762150000000  0.5022180000000  0.5078320000000 1.0
C      1  0.4931330000000  0.5068960000000  0.5846580000000 1.0
C      1  0.5640910000000  0.5508180000000  0.5275940000000 1.0
C      1  0.4733950000000  0.4404560000000  0.4682580000000 1.0
C      1  0.4715210000000  0.4385530000000  0.4476230000000 1.0
C      1  0.5756360000000  0.4617490000000  0.5265850000000 1.0
C      1  0.5291370000000  0.5628640000000  0.5509040000000 1.0
C      1  0.4325330000000  0.5507020000000  0.5276070000000 1.0
C      1  0.4938020000000  0.5735090000000  0.5010500000000 1.0
C      1  0.4573250000000  0.4607090000000  0.5737810000000 1.0
C      1  0.5763660000000  0.5019530000000  0.4917230000000 1.0
C      1  0.4270220000000  0.5385780000000  0.5356670000000 1.0
C      1  0.5094860000000  0.5761580000000  0.5019010000000 1.0
C      1  0.5495280000000  0.5276180000000  0.4367630000000 1.0
C      1  0.4277360000000  0.5015880000000  0.5064160000000 1.0
C      1  0.4936460000000  0.4225560000000  0.5064320000000 1.0
C      1  0.4459150000000  0.4710630000000  0.4302960000000 1.0
C      1  0.4931090000000  0.5058770000000  0.4189230000000 1.0
C      1  0.5324010000000  0.4286380000000  0.5561420000000 1.0
C      1  0.5025000000000  0.4918290000000  0.5742870000000 1.0
C      1  0.4453170000000  0.4684900000000  0.5684380000000 1.0
C      1  0.4994740000000  0.4897710000000  0.4302840000000 1.0
C      1  0.4381300000000  0.4516190000000  0.4699020000000 1.0
C      1  0.5283890000000  0.5282020000000  0.5689730000000 1.0
C      1  0.4153670000000  0.5073840000000  0.5075580000000 1.0
C      1  0.4297540000000  0.5381410000000  0.4648170000000 1.0
C      1  0.5513130000000  0.5142610000000  0.5599190000000 1.0
C      1  0.5750790000000  0.4551080000000  0.5383420000000 1.0
C      1  0.4431470000000  0.4525130000000  0.5245720000000 1.0
C      1  0.5264010000000  0.5821260000000  0.4601530000000 1.0
C      1  0.5273630000000  0.5668330000000  0.4467380000000 1.0
C      1  0.4166820000000  0.5385650000000  0.5269430000000 1.0
C      1  0.4730370000000  0.4333820000000  0.5530540000000 1.0
C      1  0.4497330000000  0.4609730000000  0.5159210000000 1.0
C      1  0.5261390000000  0.4413780000000  0.4696440000000 1.0
C      1  0.4752250000000  0.4195150000000  0.5382990000000 1.0
C      1  0.4929980000000  0.4907470000000  0.4181480000000 1.0
C      1  0.5674330000000  0.4446040000000  0.4721290000000 1.0
C      1  0.4639440000000  0.4348310000000  0.4602040000000 1.0
C      1  0.5202620000000  0.4277290000000  0.5502100000000 1.0
C      1  0.5852650000000  0.4917290000000  0.4924570000000 1.0
C      1  0.5688720000000  0.5386980000000  0.5348730000000 1.0
C      1  0.5402250000000  0.4618950000000  0.4330190000000 1.0
C      1  0.4497420000000  0.5180510000000  0.4245800000000 1.0
C      1  0.4141560000000  0.5072720000000  0.4925540000000 1.0
C      1  0.4621800000000  0.5722430000000  0.4575890000000 1.0
C      1  0.4831680000000  0.5573060000000  0.5438840000000 1.0
C      1  0.5609880000000  0.5505830000000  0.4722030000000 1.0
C      1  0.4717780000000  0.5613680000000  0.5502820000000 1.0
C      1  0.4991690000000  0.5053040000000  0.4312970000000 1.0
C      1  0.4330930000000  0.5518360000000  0.4715090000000 1.0
C      1  0.5352940000000  0.5719780000000  0.4591930000000 1.0
C      1  0.5280570000000  0.4241660000000  0.5372510000000 1.0
C      1  0.5614800000000  0.5499290000000  0.5144240000000 1.0
C      1  0.4754980000000  0.5597930000000  0.5301740000000 1.0
C      1  0.4740000000000  0.5757120000000  0.4631600000000 1.0
C      1  0.4626860000000  0.5327350000000  0.4317330000000 1.0
C      1  0.5651110000000  0.5381450000000  0.4644300000000 1.0
C      1  0.4648340000000  0.5645650000000  0.5371490000000 1.0
C      1  0.4823450000000  0.4235900000000  0.5512450000000 1.0
C      1  0.4624700000000  0.5249580000000  0.5756270000000 1.0
C      1  0.5403110000000  0.4630310000000  0.5679650000000 1.0
C      1  0.4499690000000  0.5169170000000  0.5706970000000 1.0
C      1  0.5185990000000  0.5770620000000  0.4479860000000 1.0
C      1  0.4218730000000  0.5507220000000  0.5192450000000 1.0
C      1  0.4444840000000  0.4595060000000  0.4790330000000 1.0
C      1  0.5767810000000  0.4463700000000  0.4817570000000 1.0
C      1  0.5399450000000  0.4239540000000  0.5437790000000 1.0
C      1  0.5846710000000  0.4917330000000  0.5076500000000 1.0
C      1  0.4606420000000  0.4723830000000  0.4164190000000 1.0
C      1  0.5295960000000  0.5245260000000  0.4398530000000 1.0
C      1  0.5161260000000  0.5599010000000  0.5499750000000 1.0
C      1  0.5326800000000  0.4730460000000  0.5627230000000 1.0
C      1  0.4631770000000  0.4726780000000  0.5761570000000 1.0
C      1  0.4329270000000  0.4635670000000  0.4622070000000 1.0
C      1  0.4555310000000  0.5363130000000  0.5733360000000 1.0
C      1  0.5302380000000  0.5693820000000  0.5272290000000 1.0
C      1  0.4262090000000  0.5012290000000  0.4906700000000 1.0
C      1  0.5074520000000  0.4366110000000  0.5008170000000 1.0
C      1  0.5031740000000  0.5076720000000  0.5755550000000 1.0
C      1  0.5365640000000  0.5678410000000  0.5389090000000 1.0
C      1  0.4818530000000  0.5712980000000  0.4505800000000 1.0
C      1  0.5364340000000  0.5345660000000  0.4335900000000 1.0
C      1  0.5077370000000  0.5860540000000  0.4927030000000 1.0
C      1  0.5520750000000  0.5273580000000  0.5625640000000 1.0
C      1  0.4927110000000  0.5841050000000  0.4926560000000 1.0
C      1  0.5459680000000  0.4811180000000  0.5592080000000 1.0
C      1  0.4814820000000  0.4441570000000  0.4549900000000 1.0
C      1  0.4272160000000  0.5478430000000  0.4829230000000 1.0
C      1  0.4931850000000  0.4916660000000  0.5841360000000 1.0
C      1  0.5726800000000  0.4568110000000  0.4641960000000 1.0
C      1  0.4507700000000  0.4805510000000  0.5709910000000 1.0
C      1  0.5708090000000  0.4423010000000  0.5312250000000 1.0
C      1  0.5087910000000  0.4241590000000  0.5066230000000 1.0
C      1  0.5399670000000  0.5347180000000  0.5674540000000 1.0
C      1  0.4664460000000  0.4296900000000  0.5396030000000 1.0
C      1  0.5186340000000  0.4438190000000  0.4557410000000 1.0
C      1  0.4586100000000  0.4631870000000  0.4261090000000 1.0
C      1  0.4920950000000  0.4349950000000  0.5005140000000 1.0
C      1  0.5353230000000  0.4336130000000  0.4631090000000 1.0
C      1  0.5716080000000  0.4485210000000  0.5191400000000 1.0
C      1  0.5602330000000  0.5497640000000  0.4855180000000 1.0
C      1  0.4385370000000  0.4721760000000  0.4711610000000 1.0
C      1  0.5446080000000  0.4797940000000  0.4420230000000 1.0
C      1  0.5700850000000  0.5270370000000  0.5285070000000 1.0
C      1  0.5287320000000  0.4368640000000  0.4498850000000 1.0
C      1  0.4480130000000  0.4799990000000  0.4203030000000 1.0
C      1  0.5820180000000  0.4584390000000  0.4738470000000 1.0
C      1  0.4376010000000  0.4643260000000  0.5323860000000 1.0
C      1  0.4444240000000  0.4730390000000  0.5240920000000 1.0
C      1  0.4701420000000  0.5670090000000  0.4454130000000 1.0
C      1  0.5434690000000  0.5170060000000  0.4428050000000 1.0
C      1  0.4232220000000  0.5343620000000  0.4758180000000 1.0
C      1  0.5529070000000  0.4702850000000  0.5637630000000 1.0
C      1  0.4434290000000  0.5284940000000  0.5681610000000 1.0
C      1  0.5524700000000  0.4696330000000  0.4376220000000 1.0
C      1  0.4623410000000  0.5254870000000  0.4203110000000 1.0
C      1  0.5317450000000  0.4716040000000  0.4374210000000 1.0
C      1  0.4500330000000  0.5245410000000  0.4366330000000 1.0
C      1  0.5672990000000  0.5265650000000  0.4706920000000 1.0
END
