TITL C-102688-8074-187 22.8359969343959 1000000 -1723.82163816815 0 0 240 (Td) n - 1
REM
REM in /home/chem/mssmkc/work/GAP20/Larger-Clusters/Only-C240-new-series
REM
REM
REM
REM
REM
REM ./C.cell (0485df7495ed2a90f93db84a705cd676)
REM
REM compiler GCC version 8.3.0
REM options -cpp -mtune=generic -march=x86-64 -g -O0
REM seed 140582589 757195305 1843279098 2101783239 -1219266783 -1682064020 612874546 -1686033851 -574346584 730351054 -143943490 2114036745 2051633291 1967076949 -341226294 127214872 688561608 47717307 -1022333805 604715192 1837102471 -1225340 1919669570 1514247627 1209253504 -106266686 1113272756 -130716482 -1063948173 688543 -2052687610 995112180 -636432566
REM
CELL 1.54180  100.00000  100.00000  100.00000   90.00000   90.00000   90.00000
LATT -1
SFAC C  
C      1  0.5180960000000  0.4908670000000  0.5411030000000 1.0
C      1  0.4908840000000  0.5411090000000  0.5180920000000 1.0
C      1  0.5411090000000  0.5180810000000  0.4908640000000 1.0
C      1  0.5180960000000  0.5091210000000  0.4588940000000 1.0
C      1  0.4818980000000  0.4908700000000  0.4588980000000 1.0
C      1  0.4819110000000  0.5091420000000  0.5411040000000 1.0
C      1  0.4908540000000  0.4588970000000  0.4819090000000 1.0
C      1  0.5091440000000  0.5410990000000  0.4818990000000 1.0
C      1  0.5091190000000  0.4588950000000  0.5180990000000 1.0
C      1  0.5410980000000  0.4818920000000  0.5091300000000 1.0
C      1  0.4589030000000  0.5181100000000  0.5091320000000 1.0
C      1  0.4588890000000  0.4819170000000  0.4908740000000 1.0
C      1  0.5181090000000  0.5410970000000  0.4908630000000 1.0
C      1  0.4908780000000  0.5181030000000  0.5411030000000 1.0
C      1  0.5411020000000  0.4908570000000  0.5180930000000 1.0
C      1  0.5180820000000  0.4588910000000  0.5091340000000 1.0
C      1  0.4818900000000  0.4589010000000  0.4908740000000 1.0
C      1  0.4819190000000  0.5411110000000  0.5091280000000 1.0
C      1  0.4908600000000  0.4819030000000  0.4588990000000 1.0
C      1  0.5091280000000  0.4819060000000  0.5411050000000 1.0
C      1  0.5091340000000  0.5180880000000  0.4588940000000 1.0
C      1  0.5411060000000  0.5091160000000  0.4819000000000 1.0
C      1  0.4589010000000  0.5091470000000  0.5180980000000 1.0
C      1  0.4588920000000  0.4908810000000  0.4819080000000 1.0
C      1  0.4431590000000  0.4912390000000  0.5189490000000 1.0
C      1  0.4912200000000  0.5189410000000  0.4431590000000 1.0
C      1  0.5189240000000  0.4431530000000  0.4912220000000 1.0
C      1  0.4431620000000  0.5088000000000  0.4810590000000 1.0
C      1  0.5568350000000  0.4911960000000  0.4810520000000 1.0
C      1  0.5568440000000  0.5087650000000  0.5189390000000 1.0
C      1  0.4912150000000  0.4810650000000  0.5568420000000 1.0
C      1  0.5087930000000  0.5189470000000  0.5568370000000 1.0
C      1  0.5087720000000  0.4810470000000  0.4431620000000 1.0
C      1  0.5189640000000  0.5568340000000  0.5087750000000 1.0
C      1  0.4810370000000  0.4431680000000  0.5087900000000 1.0
C      1  0.4810740000000  0.5568450000000  0.4912130000000 1.0
C      1  0.4431660000000  0.5189630000000  0.4912200000000 1.0
C      1  0.4912000000000  0.4431650000000  0.5189510000000 1.0
C      1  0.5189370000000  0.4912050000000  0.4431600000000 1.0
C      1  0.4431550000000  0.4810760000000  0.5087890000000 1.0
C      1  0.5568330000000  0.4810360000000  0.4912150000000 1.0
C      1  0.5568470000000  0.5189260000000  0.5087760000000 1.0
C      1  0.4912350000000  0.5568410000000  0.4810500000000 1.0
C      1  0.5088030000000  0.5568390000000  0.5189380000000 1.0
C      1  0.5087620000000  0.4431550000000  0.4810610000000 1.0
C      1  0.5189510000000  0.5087820000000  0.5568370000000 1.0
C      1  0.4810540000000  0.5087830000000  0.4431610000000 1.0
C      1  0.4810570000000  0.4912300000000  0.5568420000000 1.0
C      1  0.4403940000000  0.5198320000000  0.5396480000000 1.0
C      1  0.5198170000000  0.5396320000000  0.4403790000000 1.0
C      1  0.5396270000000  0.4403730000000  0.5198110000000 1.0
C      1  0.4403750000000  0.4802080000000  0.4603610000000 1.0
C      1  0.5596190000000  0.5197830000000  0.4603480000000 1.0
C      1  0.5596120000000  0.4801760000000  0.5396430000000 1.0
C      1  0.5197990000000  0.4603540000000  0.5596180000000 1.0
C      1  0.4802100000000  0.5396580000000  0.5596130000000 1.0
C      1  0.4801750000000  0.4603550000000  0.4403900000000 1.0
C      1  0.5396640000000  0.5596000000000  0.4801830000000 1.0
C      1  0.4603330000000  0.4403960000000  0.4802020000000 1.0
C      1  0.4603760000000  0.5596310000000  0.5198040000000 1.0
C      1  0.4403990000000  0.5396680000000  0.5198080000000 1.0
C      1  0.5197910000000  0.4403820000000  0.5396500000000 1.0
C      1  0.5396480000000  0.5197880000000  0.4403800000000 1.0
C      1  0.4403700000000  0.4603730000000  0.4802010000000 1.0
C      1  0.5596030000000  0.4603370000000  0.5198070000000 1.0
C      1  0.5596270000000  0.5396230000000  0.4801840000000 1.0
C      1  0.5198250000000  0.5596050000000  0.4603470000000 1.0
C      1  0.4802150000000  0.5596260000000  0.5396410000000 1.0
C      1  0.4801690000000  0.4403870000000  0.4603620000000 1.0
C      1  0.5396430000000  0.4801850000000  0.5596150000000 1.0
C      1  0.4603440000000  0.4801990000000  0.4403900000000 1.0
C      1  0.4603660000000  0.5198270000000  0.5596160000000 1.0
C      1  0.5563570000000  0.4943160000000  0.5175070000000 1.0
C      1  0.4943430000000  0.5175190000000  0.5563560000000 1.0
C      1  0.5175290000000  0.5563510000000  0.4943260000000 1.0
C      1  0.5563580000000  0.5056460000000  0.4824850000000 1.0
C      1  0.4436400000000  0.4943500000000  0.4824940000000 1.0
C      1  0.4436460000000  0.5056880000000  0.5175140000000 1.0
C      1  0.4943230000000  0.4824850000000  0.4436450000000 1.0
C      1  0.5056690000000  0.5175030000000  0.4436410000000 1.0
C      1  0.5056650000000  0.4824930000000  0.5563590000000 1.0
C      1  0.5174920000000  0.4436380000000  0.5056720000000 1.0
C      1  0.4825090000000  0.5563640000000  0.5056620000000 1.0
C      1  0.4824700000000  0.4436480000000  0.4943400000000 1.0
C      1  0.5563630000000  0.5174910000000  0.4943270000000 1.0
C      1  0.4943530000000  0.5563610000000  0.5175050000000 1.0
C      1  0.5175130000000  0.4943330000000  0.5563560000000 1.0
C      1  0.5563520000000  0.4824710000000  0.5056650000000 1.0
C      1  0.4436370000000  0.4825080000000  0.4943390000000 1.0
C      1  0.4436490000000  0.5175300000000  0.5056690000000 1.0
C      1  0.4943130000000  0.4436430000000  0.4824960000000 1.0
C      1  0.5056490000000  0.4436430000000  0.5175160000000 1.0
C      1  0.5056850000000  0.5563530000000  0.4824830000000 1.0
C      1  0.5175080000000  0.5056550000000  0.4436410000000 1.0
C      1  0.4824950000000  0.5056790000000  0.5563580000000 1.0
C      1  0.4824830000000  0.4943330000000  0.4436450000000 1.0
C      1  0.4949310000000  0.4457920000000  0.5439420000000 1.0
C      1  0.4458000000000  0.5439530000000  0.4949450000000 1.0
C      1  0.5439300000000  0.4949250000000  0.4457830000000 1.0
C      1  0.4949610000000  0.5542110000000  0.4560590000000 1.0
C      1  0.5050330000000  0.4457790000000  0.4560700000000 1.0
C      1  0.5050760000000  0.5542170000000  0.5439300000000 1.0
C      1  0.4457710000000  0.4560830000000  0.5050630000000 1.0
C      1  0.5542300000000  0.5439180000000  0.5050460000000 1.0
C      1  0.5541990000000  0.4560460000000  0.4949460000000 1.0
C      1  0.5439410000000  0.5050450000000  0.5542110000000 1.0
C      1  0.4560670000000  0.4949660000000  0.5542180000000 1.0
C      1  0.4560620000000  0.5050640000000  0.4457880000000 1.0
C      1  0.4949560000000  0.5439320000000  0.4457810000000 1.0
C      1  0.4457870000000  0.4949680000000  0.5439400000000 1.0
C      1  0.5439170000000  0.4457700000000  0.4949480000000 1.0
C      1  0.4949350000000  0.4560720000000  0.5542190000000 1.0
C      1  0.5050360000000  0.4560570000000  0.4457900000000 1.0
C      1  0.5050730000000  0.5439400000000  0.5542090000000 1.0
C      1  0.4457840000000  0.5050680000000  0.4560680000000 1.0
C      1  0.5542190000000  0.5050410000000  0.5439310000000 1.0
C      1  0.5542090000000  0.4949230000000  0.4560610000000 1.0
C      1  0.5439540000000  0.5542000000000  0.5050460000000 1.0
C      1  0.4560820000000  0.5542290000000  0.4949430000000 1.0
C      1  0.4560460000000  0.4458010000000  0.5050630000000 1.0
C      1  0.4523180000000  0.5579510000000  0.5085710000000 1.0
C      1  0.5579340000000  0.5085490000000  0.4522920000000 1.0
C      1  0.5085620000000  0.4523010000000  0.5579390000000 1.0
C      1  0.4522770000000  0.4420810000000  0.4914360000000 1.0
C      1  0.5477210000000  0.5579170000000  0.4914170000000 1.0
C      1  0.5476840000000  0.4420500000000  0.5085760000000 1.0
C      1  0.5579350000000  0.4914120000000  0.5476990000000 1.0
C      1  0.4420720000000  0.5085980000000  0.5477060000000 1.0
C      1  0.4420590000000  0.4914410000000  0.4523030000000 1.0
C      1  0.5085860000000  0.5476930000000  0.4420600000000 1.0
C      1  0.4914060000000  0.4522940000000  0.4420710000000 1.0
C      1  0.4914460000000  0.5477110000000  0.5579300000000 1.0
C      1  0.4523050000000  0.5085960000000  0.5579370000000 1.0
C      1  0.5579190000000  0.4522790000000  0.5085750000000 1.0
C      1  0.5085900000000  0.5579270000000  0.4522910000000 1.0
C      1  0.4522900000000  0.4914360000000  0.4420700000000 1.0
C      1  0.5477040000000  0.4914160000000  0.5579320000000 1.0
C      1  0.5477010000000  0.5085520000000  0.4420610000000 1.0
C      1  0.5579500000000  0.5476820000000  0.4914170000000 1.0
C      1  0.4420820000000  0.5477230000000  0.5085730000000 1.0
C      1  0.4420490000000  0.4523160000000  0.4914350000000 1.0
C      1  0.5085580000000  0.4420680000000  0.5477080000000 1.0
C      1  0.4914030000000  0.4420630000000  0.4523040000000 1.0
C      1  0.4914490000000  0.5579420000000  0.5476970000000 1.0
C      1  0.4571930000000  0.5529830000000  0.5326890000000 1.0
C      1  0.5529730000000  0.5326690000000  0.4571650000000 1.0
C      1  0.5326810000000  0.4571670000000  0.5529670000000 1.0
C      1  0.4571520000000  0.4470460000000  0.4673170000000 1.0
C      1  0.5428430000000  0.5529470000000  0.4673000000000 1.0
C      1  0.5428120000000  0.4470240000000  0.5326940000000 1.0
C      1  0.5529570000000  0.4672950000000  0.5428270000000 1.0
C      1  0.4470490000000  0.5327140000000  0.5428280000000 1.0
C      1  0.4470210000000  0.4673220000000  0.4571800000000 1.0
C      1  0.5327020000000  0.5428110000000  0.4470280000000 1.0
C      1  0.4672900000000  0.4571780000000  0.4470420000000 1.0
C      1  0.4673270000000  0.5428440000000  0.5529630000000 1.0
C      1  0.4571870000000  0.5327110000000  0.5529650000000 1.0
C      1  0.5529530000000  0.4571580000000  0.5326920000000 1.0
C      1  0.5327060000000  0.5529500000000  0.4571640000000 1.0
C      1  0.4571570000000  0.4673170000000  0.4470410000000 1.0
C      1  0.5428210000000  0.4673000000000  0.5529660000000 1.0
C      1  0.5428350000000  0.5326710000000  0.4470280000000 1.0
C      1  0.5529770000000  0.5428060000000  0.4673000000000 1.0
C      1  0.4470520000000  0.5428490000000  0.5326910000000 1.0
C      1  0.4470180000000  0.4571870000000  0.4673170000000 1.0
C      1  0.5326770000000  0.4470280000000  0.5428310000000 1.0
C      1  0.4672880000000  0.4470410000000  0.4571800000000 1.0
C      1  0.4673300000000  0.5529810000000  0.5428240000000 1.0
C      1  0.4379400000000  0.5164200000000  0.5261390000000 1.0
C      1  0.5164010000000  0.5261240000000  0.4379290000000 1.0
C      1  0.5261160000000  0.4379260000000  0.5164010000000 1.0
C      1  0.4379250000000  0.4836220000000  0.4738700000000 1.0
C      1  0.5620710000000  0.5163730000000  0.4738580000000 1.0
C      1  0.5620640000000  0.4835850000000  0.5261330000000 1.0
C      1  0.5163920000000  0.4738650000000  0.5620690000000 1.0
C      1  0.4836170000000  0.5261480000000  0.5620660000000 1.0
C      1  0.4835900000000  0.4738630000000  0.4379370000000 1.0
C      1  0.5261560000000  0.5620570000000  0.4835950000000 1.0
C      1  0.4738420000000  0.4379400000000  0.4836120000000 1.0
C      1  0.4738860000000  0.5620780000000  0.5163920000000 1.0
C      1  0.4379430000000  0.5261590000000  0.5163980000000 1.0
C      1  0.5163780000000  0.4379300000000  0.5261410000000 1.0
C      1  0.5261370000000  0.5163810000000  0.4379290000000 1.0
C      1  0.4379230000000  0.4738830000000  0.4836110000000 1.0
C      1  0.5620600000000  0.4738450000000  0.5163950000000 1.0
C      1  0.5620750000000  0.5261130000000  0.4835960000000 1.0
C      1  0.5164160000000  0.5620590000000  0.4738560000000 1.0
C      1  0.4836260000000  0.5620750000000  0.5261310000000 1.0
C      1  0.4835810000000  0.4379360000000  0.4738720000000 1.0
C      1  0.5261350000000  0.4836010000000  0.5620670000000 1.0
C      1  0.4738540000000  0.4836060000000  0.4379360000000 1.0
C      1  0.4738740000000  0.5164120000000  0.5620670000000 1.0
C      1  0.4673120000000  0.5131340000000  0.4465440000000 1.0
C      1  0.5131080000000  0.4465350000000  0.4673160000000 1.0
C      1  0.4465330000000  0.4673310000000  0.5131360000000 1.0
C      1  0.4673110000000  0.4868880000000  0.5534610000000 1.0
C      1  0.5326970000000  0.5131230000000  0.5534530000000 1.0
C      1  0.5326800000000  0.4868550000000  0.4465420000000 1.0
C      1  0.5131490000000  0.5534560000000  0.5326820000000 1.0
C      1  0.4868560000000  0.4465510000000  0.5326950000000 1.0
C      1  0.4868870000000  0.5534580000000  0.4673070000000 1.0
C      1  0.4465530000000  0.5327050000000  0.4868720000000 1.0
C      1  0.5534450000000  0.4672920000000  0.4868710000000 1.0
C      1  0.5534690000000  0.5326720000000  0.5131210000000 1.0
C      1  0.4672950000000  0.4465560000000  0.5131370000000 1.0
C      1  0.5131140000000  0.4673020000000  0.4465460000000 1.0
C      1  0.4465450000000  0.5131430000000  0.4673140000000 1.0
C      1  0.4673290000000  0.5534660000000  0.4868680000000 1.0
C      1  0.5327070000000  0.5534470000000  0.5131210000000 1.0
C      1  0.5326690000000  0.4465310000000  0.4868740000000 1.0
C      1  0.5131440000000  0.5326890000000  0.5534520000000 1.0
C      1  0.4868780000000  0.5326870000000  0.4465410000000 1.0
C      1  0.4868640000000  0.4673220000000  0.5534610000000 1.0
C      1  0.4465410000000  0.4868930000000  0.5326940000000 1.0
C      1  0.5534500000000  0.4868500000000  0.4673090000000 1.0
C      1  0.5534640000000  0.5131140000000  0.5326830000000 1.0
C      1  0.5247240000000  0.4550630000000  0.4653100000000 1.0
C      1  0.4550650000000  0.4653250000000  0.5247490000000 1.0
C      1  0.4653120000000  0.5247490000000  0.4550750000000 1.0
C      1  0.5247590000000  0.5449200000000  0.5346870000000 1.0
C      1  0.4752460000000  0.4550870000000  0.5347000000000 1.0
C      1  0.4752710000000  0.5449300000000  0.4653040000000 1.0
C      1  0.4550850000000  0.5347060000000  0.4752580000000 1.0
C      1  0.5449120000000  0.4652890000000  0.4752590000000 1.0
C      1  0.5449390000000  0.5346810000000  0.5247350000000 1.0
C      1  0.4653020000000  0.4752750000000  0.5449300000000 1.0
C      1  0.5347050000000  0.5247350000000  0.5449200000000 1.0
C      1  0.5346810000000  0.4752420000000  0.4550750000000 1.0
C      1  0.5247270000000  0.4652940000000  0.4550770000000 1.0
C      1  0.4550810000000  0.5247530000000  0.4653080000000 1.0
C      1  0.4652940000000  0.4550890000000  0.5247490000000 1.0
C      1  0.5247570000000  0.5346900000000  0.5449200000000 1.0
C      1  0.4752670000000  0.5346970000000  0.4550730000000 1.0
C      1  0.4752500000000  0.4653200000000  0.5449310000000 1.0
C      1  0.4550690000000  0.4752770000000  0.5346990000000 1.0
C      1  0.5449140000000  0.4752400000000  0.4653060000000 1.0
C      1  0.5449360000000  0.5247300000000  0.5346870000000 1.0
C      1  0.4653200000000  0.5449340000000  0.4752560000000 1.0
C      1  0.5347100000000  0.5449160000000  0.5247340000000 1.0
C      1  0.5346760000000  0.4550610000000  0.4752600000000 1.0
END
