TITL C-102689-8077-10 14.9970687701375 1000000 -1729.94198808793 0 0 240 (Td) n - 1
REM
REM in /home/chem/mssmkc/work/GAP20/Larger-Clusters/Only-C240-new-series
REM
REM
REM
REM
REM
REM ./C.cell (0485df7495ed2a90f93db84a705cd676)
REM
REM compiler GCC version 8.3.0
REM options -cpp -mtune=generic -march=x86-64 -g -O0
REM seed -541777987 1497844205 1743775883 1218965389 -1626104191 1554232550 -505019353 2026929970 -771617539 -1879726528 1610879840 1998747225 343566809 24300592 -617957801 1684756515 -218944227 -825032474 -1926249589 -1883321194 751162964 -1684442141 -679864973 -1375959102 -1694016394 -1572083433 -1808544179 -1916892852 518615043 855982351 -339953898 405555189 -849486405
REM
CELL 1.54180  100.00000  100.00000  100.00000   90.00000   90.00000   90.00000
LATT -1
SFAC C  
C      1  0.4694560000000  0.5404250000000  0.5505820000000 1.0
C      1  0.5505970000000  0.4694760000000  0.5404200000000 1.0
C      1  0.5404060000000  0.5505880000000  0.4694420000000 1.0
C      1  0.5305240000000  0.5404240000000  0.4494060000000 1.0
C      1  0.4694580000000  0.4595600000000  0.4494290000000 1.0
C      1  0.5305620000000  0.4595910000000  0.5505830000000 1.0
C      1  0.4494180000000  0.4694380000000  0.4595890000000 1.0
C      1  0.5505680000000  0.5305490000000  0.4595620000000 1.0
C      1  0.4494170000000  0.5305370000000  0.5404290000000 1.0
C      1  0.4595690000000  0.5505770000000  0.5305420000000 1.0
C      1  0.5404420000000  0.4494320000000  0.5305430000000 1.0
C      1  0.4595820000000  0.4494030000000  0.4694720000000 1.0
C      1  0.5505670000000  0.5404320000000  0.4694420000000 1.0
C      1  0.5404410000000  0.4694750000000  0.5505800000000 1.0
C      1  0.4694520000000  0.5505810000000  0.5404220000000 1.0
C      1  0.4494130000000  0.5404170000000  0.5305460000000 1.0
C      1  0.4494220000000  0.4595580000000  0.4694720000000 1.0
C      1  0.5505980000000  0.4595930000000  0.5305400000000 1.0
C      1  0.4595740000000  0.4694390000000  0.4494300000000 1.0
C      1  0.4595770000000  0.5305410000000  0.5505850000000 1.0
C      1  0.5404080000000  0.5305450000000  0.4494050000000 1.0
C      1  0.5305230000000  0.5505840000000  0.4595620000000 1.0
C      1  0.5305630000000  0.4494310000000  0.5404270000000 1.0
C      1  0.4694620000000  0.4494040000000  0.4595890000000 1.0
C      1  0.4948140000000  0.5716290000000  0.4849550000000 1.0
C      1  0.4849790000000  0.4948420000000  0.5716360000000 1.0
C      1  0.5716360000000  0.4849820000000  0.4948240000000 1.0
C      1  0.5051510000000  0.5716360000000  0.5150230000000 1.0
C      1  0.4948550000000  0.4283680000000  0.5150470000000 1.0
C      1  0.5051810000000  0.4283660000000  0.4849750000000 1.0
C      1  0.5150230000000  0.4948270000000  0.4283650000000 1.0
C      1  0.4849510000000  0.5051510000000  0.4283690000000 1.0
C      1  0.5150460000000  0.5051800000000  0.5716290000000 1.0
C      1  0.4283720000000  0.4849480000000  0.5051810000000 1.0
C      1  0.5716300000000  0.5150530000000  0.5051500000000 1.0
C      1  0.4283630000000  0.5150160000000  0.4948450000000 1.0
C      1  0.4849470000000  0.5716280000000  0.4948260000000 1.0
C      1  0.5716310000000  0.4948500000000  0.4849530000000 1.0
C      1  0.4948510000000  0.4849750000000  0.5716360000000 1.0
C      1  0.5150180000000  0.5716370000000  0.5051520000000 1.0
C      1  0.5150520000000  0.4283700000000  0.4948430000000 1.0
C      1  0.4849840000000  0.4283640000000  0.5051790000000 1.0
C      1  0.4283710000000  0.4948190000000  0.5150490000000 1.0
C      1  0.4283630000000  0.5051460000000  0.4849770000000 1.0
C      1  0.5716340000000  0.5051850000000  0.5150210000000 1.0
C      1  0.5051560000000  0.4849550000000  0.4283690000000 1.0
C      1  0.5051750000000  0.5150470000000  0.5716300000000 1.0
C      1  0.4948180000000  0.5150220000000  0.4283660000000 1.0
C      1  0.4691590000000  0.4482140000000  0.5096020000000 1.0
C      1  0.5095860000000  0.4691390000000  0.4482240000000 1.0
C      1  0.4482130000000  0.5095710000000  0.4691530000000 1.0
C      1  0.5308660000000  0.4482270000000  0.4904140000000 1.0
C      1  0.4691300000000  0.5517700000000  0.4904100000000 1.0
C      1  0.5308440000000  0.5517890000000  0.5095750000000 1.0
C      1  0.4904290000000  0.4691500000000  0.5517860000000 1.0
C      1  0.5095900000000  0.5308660000000  0.5517730000000 1.0
C      1  0.4903950000000  0.5308450000000  0.4482180000000 1.0
C      1  0.5517830000000  0.5096060000000  0.5308440000000 1.0
C      1  0.4482280000000  0.4904040000000  0.5308660000000 1.0
C      1  0.5517760000000  0.4904200000000  0.4691370000000 1.0
C      1  0.5095950000000  0.4482180000000  0.4691510000000 1.0
C      1  0.4482300000000  0.4691340000000  0.5096020000000 1.0
C      1  0.4691330000000  0.5095730000000  0.4482250000000 1.0
C      1  0.4904300000000  0.4482230000000  0.5308650000000 1.0
C      1  0.4903940000000  0.5517720000000  0.4691390000000 1.0
C      1  0.5095810000000  0.5517870000000  0.5308450000000 1.0
C      1  0.5517850000000  0.4691560000000  0.4904070000000 1.0
C      1  0.5517740000000  0.5308690000000  0.5095740000000 1.0
C      1  0.4482110000000  0.5308410000000  0.4904170000000 1.0
C      1  0.5308620000000  0.5096040000000  0.5517720000000 1.0
C      1  0.5308480000000  0.4904110000000  0.4482160000000 1.0
C      1  0.4691570000000  0.4904120000000  0.5517870000000 1.0
C      1  0.5606070000000  0.5223170000000  0.5009740000000 1.0
C      1  0.5009770000000  0.5606170000000  0.5222920000000 1.0
C      1  0.5223130000000  0.5010030000000  0.5606090000000 1.0
C      1  0.4393810000000  0.5222870000000  0.4990190000000 1.0
C      1  0.5606180000000  0.4777130000000  0.4990040000000 1.0
C      1  0.4393930000000  0.4776830000000  0.5010030000000 1.0
C      1  0.4989930000000  0.5606090000000  0.4776890000000 1.0
C      1  0.5009990000000  0.4393840000000  0.4777070000000 1.0
C      1  0.4990310000000  0.4393900000000  0.5223120000000 1.0
C      1  0.4776870000000  0.5009730000000  0.4393910000000 1.0
C      1  0.5222910000000  0.4990080000000  0.4393830000000 1.0
C      1  0.4777090000000  0.4990160000000  0.5606170000000 1.0
C      1  0.5009940000000  0.5223120000000  0.5606090000000 1.0
C      1  0.5222870000000  0.5606190000000  0.5009750000000 1.0
C      1  0.5606170000000  0.5010070000000  0.5222910000000 1.0
C      1  0.4989950000000  0.5222920000000  0.4393840000000 1.0
C      1  0.4990280000000  0.4777070000000  0.5606170000000 1.0
C      1  0.5009830000000  0.4776890000000  0.4393900000000 1.0
C      1  0.4776830000000  0.5606070000000  0.4990060000000 1.0
C      1  0.4777130000000  0.4393820000000  0.5010020000000 1.0
C      1  0.5223170000000  0.4393920000000  0.4990170000000 1.0
C      1  0.4393830000000  0.5009700000000  0.4777090000000 1.0
C      1  0.4393910000000  0.4990000000000  0.5223130000000 1.0
C      1  0.5606090000000  0.4990230000000  0.4776870000000 1.0
C      1  0.5372170000000  0.5572660000000  0.4817250000000 1.0
C      1  0.4817410000000  0.5372390000000  0.5572570000000 1.0
C      1  0.5572700000000  0.4817600000000  0.5372270000000 1.0
C      1  0.4627550000000  0.5572530000000  0.5182580000000 1.0
C      1  0.5372520000000  0.4427530000000  0.5182620000000 1.0
C      1  0.4627760000000  0.4427290000000  0.4817560000000 1.0
C      1  0.5182400000000  0.5372300000000  0.4427320000000 1.0
C      1  0.4817390000000  0.4627520000000  0.4427500000000 1.0
C      1  0.5182790000000  0.4627790000000  0.5572620000000 1.0
C      1  0.4427390000000  0.4817200000000  0.4627790000000 1.0
C      1  0.5572480000000  0.5182680000000  0.4627520000000 1.0
C      1  0.4427430000000  0.5182520000000  0.5372420000000 1.0
C      1  0.4817330000000  0.5572600000000  0.5372290000000 1.0
C      1  0.5572470000000  0.5372460000000  0.4817240000000 1.0
C      1  0.5372490000000  0.4817580000000  0.5572550000000 1.0
C      1  0.5182390000000  0.5572580000000  0.4627530000000 1.0
C      1  0.5182810000000  0.4427510000000  0.5372400000000 1.0
C      1  0.4817470000000  0.4427310000000  0.4627780000000 1.0
C      1  0.4427350000000  0.5372230000000  0.5182650000000 1.0
C      1  0.4427470000000  0.4627490000000  0.4817560000000 1.0
C      1  0.5572720000000  0.4627820000000  0.5182550000000 1.0
C      1  0.4627600000000  0.4817220000000  0.4427500000000 1.0
C      1  0.4627710000000  0.5182600000000  0.5572630000000 1.0
C      1  0.5372200000000  0.5182600000000  0.4427310000000 1.0
C      1  0.5136040000000  0.4174620000000  0.5047750000000 1.0
C      1  0.5047470000000  0.5135710000000  0.4174550000000 1.0
C      1  0.4174590000000  0.5047470000000  0.5135970000000 1.0
C      1  0.4864370000000  0.4174540000000  0.4952500000000 1.0
C      1  0.5135610000000  0.5825450000000  0.4952200000000 1.0
C      1  0.4863980000000  0.5825400000000  0.5047540000000 1.0
C      1  0.4952470000000  0.5135940000000  0.5825410000000 1.0
C      1  0.5047830000000  0.4864310000000  0.5825440000000 1.0
C      1  0.4952240000000  0.4864040000000  0.4174600000000 1.0
C      1  0.5825390000000  0.5047830000000  0.4864020000000 1.0
C      1  0.4174560000000  0.4952130000000  0.4864330000000 1.0
C      1  0.5825460000000  0.4952580000000  0.5135680000000 1.0
C      1  0.5047880000000  0.4174610000000  0.5135940000000 1.0
C      1  0.4174550000000  0.5135630000000  0.5047780000000 1.0
C      1  0.5135660000000  0.5047550000000  0.4174540000000 1.0
C      1  0.4952530000000  0.4174540000000  0.4864310000000 1.0
C      1  0.4952170000000  0.5825430000000  0.5135700000000 1.0
C      1  0.5047420000000  0.5825420000000  0.4864040000000 1.0
C      1  0.5825380000000  0.5136020000000  0.4952180000000 1.0
C      1  0.5825470000000  0.4864380000000  0.5047520000000 1.0
C      1  0.4174600000000  0.4863960000000  0.4952520000000 1.0
C      1  0.4864310000000  0.5047740000000  0.5825440000000 1.0
C      1  0.4864040000000  0.4952190000000  0.4174610000000 1.0
C      1  0.5135990000000  0.4952510000000  0.5825410000000 1.0
C      1  0.4861520000000  0.5239100000000  0.5592180000000 1.0
C      1  0.5592260000000  0.4861650000000  0.5238960000000 1.0
C      1  0.5238870000000  0.5592220000000  0.4861340000000 1.0
C      1  0.5138360000000  0.5238980000000  0.4407750000000 1.0
C      1  0.4861420000000  0.4760830000000  0.4407880000000 1.0
C      1  0.5138700000000  0.4761080000000  0.5592200000000 1.0
C      1  0.4407800000000  0.4861290000000  0.4761090000000 1.0
C      1  0.5592110000000  0.5138640000000  0.4760830000000 1.0
C      1  0.4407820000000  0.5138420000000  0.5239130000000 1.0
C      1  0.4760840000000  0.5592150000000  0.5138480000000 1.0
C      1  0.5239210000000  0.4407890000000  0.5138580000000 1.0
C      1  0.4761080000000  0.4407730000000  0.4861600000000 1.0
C      1  0.5592100000000  0.5239170000000  0.4861330000000 1.0
C      1  0.5239180000000  0.4861620000000  0.5592160000000 1.0
C      1  0.4861370000000  0.5592190000000  0.5238980000000 1.0
C      1  0.4407780000000  0.5238920000000  0.5138600000000 1.0
C      1  0.4407850000000  0.4760790000000  0.4861610000000 1.0
C      1  0.5592270000000  0.4761130000000  0.5138460000000 1.0
C      1  0.4760890000000  0.4861320000000  0.4407880000000 1.0
C      1  0.4761030000000  0.5138560000000  0.5592210000000 1.0
C      1  0.5238900000000  0.5138500000000  0.4407750000000 1.0
C      1  0.5138340000000  0.5592180000000  0.4760840000000 1.0
C      1  0.5138720000000  0.4407880000000  0.5239110000000 1.0
C      1  0.4861570000000  0.4407740000000  0.4761070000000 1.0
C      1  0.5084630000000  0.5572680000000  0.4527950000000 1.0
C      1  0.4528130000000  0.5084830000000  0.5572810000000 1.0
C      1  0.5572860000000  0.4528210000000  0.5084830000000 1.0
C      1  0.4915090000000  0.5572790000000  0.5471880000000 1.0
C      1  0.5085090000000  0.4427360000000  0.5472020000000 1.0
C      1  0.4915200000000  0.4427170000000  0.4528150000000 1.0
C      1  0.5471820000000  0.5084890000000  0.4427170000000 1.0
C      1  0.4527970000000  0.4914940000000  0.4427370000000 1.0
C      1  0.5472070000000  0.4915350000000  0.5572660000000 1.0
C      1  0.4427370000000  0.4527900000000  0.4915320000000 1.0
C      1  0.5572600000000  0.5472080000000  0.4914970000000 1.0
C      1  0.4427170000000  0.5471820000000  0.5084890000000 1.0
C      1  0.4527930000000  0.5572630000000  0.5084860000000 1.0
C      1  0.5572630000000  0.5084930000000  0.4527930000000 1.0
C      1  0.5085080000000  0.4528160000000  0.5572790000000 1.0
C      1  0.5471790000000  0.5572840000000  0.4914970000000 1.0
C      1  0.5472110000000  0.4427400000000  0.5084860000000 1.0
C      1  0.4528180000000  0.4427140000000  0.4915320000000 1.0
C      1  0.4427330000000  0.5084790000000  0.5472040000000 1.0
C      1  0.4427200000000  0.4914930000000  0.4528170000000 1.0
C      1  0.5572840000000  0.4915360000000  0.5471860000000 1.0
C      1  0.4915150000000  0.4527940000000  0.4427360000000 1.0
C      1  0.4915130000000  0.5472020000000  0.5572680000000 1.0
C      1  0.5084640000000  0.5471880000000  0.4427180000000 1.0
C      1  0.4947740000000  0.5437300000000  0.4461600000000 1.0
C      1  0.4461750000000  0.4947880000000  0.5437500000000 1.0
C      1  0.5437520000000  0.4461750000000  0.4947950000000 1.0
C      1  0.5052050000000  0.5437490000000  0.5538270000000 1.0
C      1  0.4948150000000  0.4562670000000  0.5538420000000 1.0
C      1  0.5052070000000  0.4562530000000  0.4461710000000 1.0
C      1  0.5538280000000  0.4948010000000  0.4562510000000 1.0
C      1  0.4461560000000  0.5051860000000  0.4562690000000 1.0
C      1  0.5538410000000  0.5052260000000  0.5437290000000 1.0
C      1  0.4562740000000  0.4461550000000  0.5052220000000 1.0
C      1  0.5437270000000  0.5538460000000  0.5051890000000 1.0
C      1  0.4562460000000  0.5538230000000  0.4947940000000 1.0
C      1  0.4461540000000  0.5437260000000  0.4947970000000 1.0
C      1  0.5437310000000  0.4947970000000  0.4461580000000 1.0
C      1  0.4948160000000  0.4461710000000  0.5437490000000 1.0
C      1  0.5538250000000  0.5437540000000  0.5051890000000 1.0
C      1  0.5538440000000  0.4562730000000  0.4947910000000 1.0
C      1  0.4461770000000  0.4562480000000  0.5052220000000 1.0
C      1  0.4562710000000  0.4947920000000  0.5538430000000 1.0
C      1  0.4562490000000  0.5051870000000  0.4461730000000 1.0
C      1  0.5437480000000  0.5052250000000  0.5538260000000 1.0
C      1  0.5052110000000  0.4461600000000  0.4562680000000 1.0
C      1  0.5052000000000  0.5538430000000  0.5437310000000 1.0
C      1  0.4947730000000  0.5538270000000  0.4562530000000 1.0
C      1  0.4592950000000  0.4799860000000  0.5301330000000 1.0
C      1  0.5301290000000  0.4592890000000  0.4799920000000 1.0
C      1  0.4799770000000  0.5301120000000  0.4592830000000 1.0
C      1  0.5407150000000  0.4799970000000  0.4698730000000 1.0
C      1  0.4592740000000  0.5199940000000  0.4698820000000 1.0
C      1  0.5407160000000  0.5200230000000  0.5301120000000 1.0
C      1  0.4698910000000  0.4592800000000  0.5200200000000 1.0
C      1  0.5301160000000  0.5407260000000  0.5199970000000 1.0
C      1  0.4698640000000  0.5407050000000  0.4799910000000 1.0
C      1  0.5200080000000  0.5301340000000  0.5407070000000 1.0
C      1  0.4800060000000  0.4698790000000  0.5407240000000 1.0
C      1  0.5200090000000  0.4698760000000  0.4592850000000 1.0
C      1  0.5301200000000  0.4799930000000  0.4592820000000 1.0
C      1  0.4800070000000  0.4592840000000  0.5301330000000 1.0
C      1  0.4592730000000  0.5301100000000  0.4799940000000 1.0
C      1  0.4698900000000  0.4799900000000  0.5407240000000 1.0
C      1  0.4698650000000  0.5199950000000  0.4592870000000 1.0
C      1  0.5301250000000  0.5200220000000  0.5407070000000 1.0
C      1  0.5200130000000  0.4592850000000  0.4698800000000 1.0
C      1  0.5200040000000  0.5407250000000  0.5301130000000 1.0
C      1  0.4799760000000  0.5407060000000  0.4698750000000 1.0
C      1  0.5407120000000  0.5301360000000  0.5199960000000 1.0
C      1  0.5407200000000  0.4698840000000  0.4799890000000 1.0
C      1  0.4592950000000  0.4698700000000  0.5200210000000 1.0
END
