TITL C-102689-8077-23 -0.0141506804941954 1000000 -1762.9584939533 0 0 240 (Td) n - 1
REM
REM in /home/chem/mssmkc/work/GAP20/Larger-Clusters/Only-C240-new-series
REM
REM
REM
REM
REM
REM ./C.cell (0485df7495ed2a90f93db84a705cd676)
REM
REM compiler GCC version 8.3.0
REM options -cpp -mtune=generic -march=x86-64 -g -O0
REM seed 1568784038 655864490 -1781405293 89344670 995684820 1074414410 -40117078 682449542 2084958276 1895332314 1284886384 -1067892978 1078856934 -710666977 -1212893779 -884576105 611759812 -511413149 605406551 1950566137 2127582854 1258514104 1747999764 -164354155 1481025577 810633853 -766559101 1697920596 -668759530 -1286146630 1800293801 -1040454901 -2090297750
REM
CELL 1.54180  100.00000  100.00000  100.00000   90.00000   90.00000   90.00000
LATT -1
SFAC C  
C      1  0.5715150000000  0.4951080000000  0.5323380000000 1.0
C      1  0.5323360000000  0.5715160000000  0.4951050000000 1.0
C      1  0.4951040000000  0.5323390000000  0.5715150000000 1.0
C      1  0.4284840000000  0.5048940000000  0.5323360000000 1.0
C      1  0.4284850000000  0.4951040000000  0.4676620000000 1.0
C      1  0.5715160000000  0.5048950000000  0.4676640000000 1.0
C      1  0.4676640000000  0.4284840000000  0.4951070000000 1.0
C      1  0.4676610000000  0.5715150000000  0.5048920000000 1.0
C      1  0.5323380000000  0.4284850000000  0.5048960000000 1.0
C      1  0.5048940000000  0.4676640000000  0.5715160000000 1.0
C      1  0.5048950000000  0.5323360000000  0.4284840000000 1.0
C      1  0.4951070000000  0.4676610000000  0.4284850000000 1.0
C      1  0.4951040000000  0.5715160000000  0.5323360000000 1.0
C      1  0.5715150000000  0.5323380000000  0.4951060000000 1.0
C      1  0.5323360000000  0.4951080000000  0.5715160000000 1.0
C      1  0.5048950000000  0.4284850000000  0.5323390000000 1.0
C      1  0.4951070000000  0.4284840000000  0.4676640000000 1.0
C      1  0.5048940000000  0.5715150000000  0.4676610000000 1.0
C      1  0.4284850000000  0.4676610000000  0.4951050000000 1.0
C      1  0.5715160000000  0.4676640000000  0.5048960000000 1.0
C      1  0.4284840000000  0.5323360000000  0.5048930000000 1.0
C      1  0.4676620000000  0.5048950000000  0.5715150000000 1.0
C      1  0.5323380000000  0.5048930000000  0.4284850000000 1.0
C      1  0.4676640000000  0.4951040000000  0.4284840000000 1.0
C      1  0.4525730000000  0.4426190000000  0.5082340000000 1.0
C      1  0.5082350000000  0.4525710000000  0.4426210000000 1.0
C      1  0.4426200000000  0.5082310000000  0.4525710000000 1.0
C      1  0.5474270000000  0.5573810000000  0.5082330000000 1.0
C      1  0.5474290000000  0.4426200000000  0.4917690000000 1.0
C      1  0.4525710000000  0.5573790000000  0.4917650000000 1.0
C      1  0.4917670000000  0.5474260000000  0.4426180000000 1.0
C      1  0.4917670000000  0.4525730000000  0.5573810000000 1.0
C      1  0.5082310000000  0.5474290000000  0.5573800000000 1.0
C      1  0.5573810000000  0.4917670000000  0.4525730000000 1.0
C      1  0.5573800000000  0.5082350000000  0.5474290000000 1.0
C      1  0.4426190000000  0.4917670000000  0.5474270000000 1.0
C      1  0.4426200000000  0.4525710000000  0.5082330000000 1.0
C      1  0.4525730000000  0.5082310000000  0.4426190000000 1.0
C      1  0.5082350000000  0.4426190000000  0.4525740000000 1.0
C      1  0.5573800000000  0.5474290000000  0.5082330000000 1.0
C      1  0.4426190000000  0.5474270000000  0.4917650000000 1.0
C      1  0.5573810000000  0.4525730000000  0.4917690000000 1.0
C      1  0.5474290000000  0.4917670000000  0.4426200000000 1.0
C      1  0.4525710000000  0.4917670000000  0.5573800000000 1.0
C      1  0.5474270000000  0.5082350000000  0.5573810000000 1.0
C      1  0.4917670000000  0.5573790000000  0.4525710000000 1.0
C      1  0.5082310000000  0.5573820000000  0.5474270000000 1.0
C      1  0.4917670000000  0.4426200000000  0.5474290000000 1.0
C      1  0.4390240000000  0.4638660000000  0.4740990000000 1.0
C      1  0.4741010000000  0.4390220000000  0.4638680000000 1.0
C      1  0.4638690000000  0.4740970000000  0.4390230000000 1.0
C      1  0.5609760000000  0.5361330000000  0.4741000000000 1.0
C      1  0.5609770000000  0.4638690000000  0.5259020000000 1.0
C      1  0.4390220000000  0.5361320000000  0.5258990000000 1.0
C      1  0.5259000000000  0.5609760000000  0.4638670000000 1.0
C      1  0.5259010000000  0.4390250000000  0.5361340000000 1.0
C      1  0.4740980000000  0.5609770000000  0.5361310000000 1.0
C      1  0.5361330000000  0.5259000000000  0.4390230000000 1.0
C      1  0.5361320000000  0.4741010000000  0.5609780000000 1.0
C      1  0.4638660000000  0.5259010000000  0.5609750000000 1.0
C      1  0.4638690000000  0.4390220000000  0.4741000000000 1.0
C      1  0.4390240000000  0.4740980000000  0.4638670000000 1.0
C      1  0.4741010000000  0.4638660000000  0.4390240000000 1.0
C      1  0.5361320000000  0.5609770000000  0.4740990000000 1.0
C      1  0.4638660000000  0.5609760000000  0.5258990000000 1.0
C      1  0.5361330000000  0.4390250000000  0.5259020000000 1.0
C      1  0.5609770000000  0.5259010000000  0.4638680000000 1.0
C      1  0.4390220000000  0.5259000000000  0.5361310000000 1.0
C      1  0.5609760000000  0.4741010000000  0.5361340000000 1.0
C      1  0.5259010000000  0.5361320000000  0.4390230000000 1.0
C      1  0.4740980000000  0.5361330000000  0.5609750000000 1.0
C      1  0.5259000000000  0.4638690000000  0.5609780000000 1.0
C      1  0.4380190000000  0.4958170000000  0.4570260000000 1.0
C      1  0.4570280000000  0.4380170000000  0.4958200000000 1.0
C      1  0.4958210000000  0.4570250000000  0.4380190000000 1.0
C      1  0.5619820000000  0.5041810000000  0.4570280000000 1.0
C      1  0.5619810000000  0.4958210000000  0.5429740000000 1.0
C      1  0.4380170000000  0.5041810000000  0.5429720000000 1.0
C      1  0.5429720000000  0.5619820000000  0.4958180000000 1.0
C      1  0.5429740000000  0.4380190000000  0.5041830000000 1.0
C      1  0.4570260000000  0.5619810000000  0.5041790000000 1.0
C      1  0.5041810000000  0.5429720000000  0.4380170000000 1.0
C      1  0.5041810000000  0.4570280000000  0.5619830000000 1.0
C      1  0.4958170000000  0.5429740000000  0.5619810000000 1.0
C      1  0.4958210000000  0.4380170000000  0.4570280000000 1.0
C      1  0.4380190000000  0.4570260000000  0.4958190000000 1.0
C      1  0.4570280000000  0.4958170000000  0.4380180000000 1.0
C      1  0.5041800000000  0.5619810000000  0.4570260000000 1.0
C      1  0.4958170000000  0.5619830000000  0.5429720000000 1.0
C      1  0.5041810000000  0.4380190000000  0.5429750000000 1.0
C      1  0.5619810000000  0.5429740000000  0.4958190000000 1.0
C      1  0.4380170000000  0.5429720000000  0.5041790000000 1.0
C      1  0.5619820000000  0.4570280000000  0.5041830000000 1.0
C      1  0.5429740000000  0.5041800000000  0.4380190000000 1.0
C      1  0.4570260000000  0.5041810000000  0.5619810000000 1.0
C      1  0.5429720000000  0.4958210000000  0.5619830000000 1.0
C      1  0.5200350000000  0.4397830000000  0.4599830000000 1.0
C      1  0.4599820000000  0.5200310000000  0.4397820000000 1.0
C      1  0.4397840000000  0.4599810000000  0.5200330000000 1.0
C      1  0.4799670000000  0.5602150000000  0.4599800000000 1.0
C      1  0.4799680000000  0.4397840000000  0.5400190000000 1.0
C      1  0.5200310000000  0.5602180000000  0.5400170000000 1.0
C      1  0.5400200000000  0.4799670000000  0.4397850000000 1.0
C      1  0.5400170000000  0.5200350000000  0.5602170000000 1.0
C      1  0.4599810000000  0.4799680000000  0.5602160000000 1.0
C      1  0.5602150000000  0.5400200000000  0.5200330000000 1.0
C      1  0.5602170000000  0.4599820000000  0.4799690000000 1.0
C      1  0.4397830000000  0.5400170000000  0.4799650000000 1.0
C      1  0.4397840000000  0.5200310000000  0.4599800000000 1.0
C      1  0.5200340000000  0.4599810000000  0.4397850000000 1.0
C      1  0.4599820000000  0.4397830000000  0.5200330000000 1.0
C      1  0.5602170000000  0.4799670000000  0.4599830000000 1.0
C      1  0.4397830000000  0.4799670000000  0.5400180000000 1.0
C      1  0.5602160000000  0.5200350000000  0.5400190000000 1.0
C      1  0.4799670000000  0.5400170000000  0.4397820000000 1.0
C      1  0.5200310000000  0.5400200000000  0.5602160000000 1.0
C      1  0.4799670000000  0.4599830000000  0.5602170000000 1.0
C      1  0.5400170000000  0.5602180000000  0.5200320000000 1.0
C      1  0.4599810000000  0.5602150000000  0.4799650000000 1.0
C      1  0.5400200000000  0.4397840000000  0.4799690000000 1.0
C      1  0.4830270000000  0.5558950000000  0.5459280000000 1.0
C      1  0.5459290000000  0.4830310000000  0.5558950000000 1.0
C      1  0.5558930000000  0.5459300000000  0.4830290000000 1.0
C      1  0.5169710000000  0.4441070000000  0.5459310000000 1.0
C      1  0.5169710000000  0.5558930000000  0.4540690000000 1.0
C      1  0.4830310000000  0.4441050000000  0.4540710000000 1.0
C      1  0.4540690000000  0.5169710000000  0.5558930000000 1.0
C      1  0.4540710000000  0.4830270000000  0.4441060000000 1.0
C      1  0.5459300000000  0.5169710000000  0.4441060000000 1.0
C      1  0.4441070000000  0.4540690000000  0.4830290000000 1.0
C      1  0.4441050000000  0.5459290000000  0.5169690000000 1.0
C      1  0.5558950000000  0.4540720000000  0.5169730000000 1.0
C      1  0.5558940000000  0.4830310000000  0.5459310000000 1.0
C      1  0.4830270000000  0.5459310000000  0.5558930000000 1.0
C      1  0.5459290000000  0.5558940000000  0.4830290000000 1.0
C      1  0.4441050000000  0.5169710000000  0.5459280000000 1.0
C      1  0.5558940000000  0.5169710000000  0.4540710000000 1.0
C      1  0.4441070000000  0.4830270000000  0.4540700000000 1.0
C      1  0.5169710000000  0.4540720000000  0.5558950000000 1.0
C      1  0.4830310000000  0.4540690000000  0.4441070000000 1.0
C      1  0.5169710000000  0.5459290000000  0.4441050000000 1.0
C      1  0.4540720000000  0.4441050000000  0.4830300000000 1.0
C      1  0.5459300000000  0.4441070000000  0.5169730000000 1.0
C      1  0.4540690000000  0.5558940000000  0.5169690000000 1.0
C      1  0.5517910000000  0.4583570000000  0.4684890000000 1.0
C      1  0.4684870000000  0.5517890000000  0.4583550000000 1.0
C      1  0.4583570000000  0.4684870000000  0.5517900000000 1.0
C      1  0.4482100000000  0.5416420000000  0.4684850000000 1.0
C      1  0.4482100000000  0.4583570000000  0.5315130000000 1.0
C      1  0.5517890000000  0.5416450000000  0.5315130000000 1.0
C      1  0.5315150000000  0.4482100000000  0.4583580000000 1.0
C      1  0.5315110000000  0.5517920000000  0.5416430000000 1.0
C      1  0.4684870000000  0.4482100000000  0.5416440000000 1.0
C      1  0.5416420000000  0.5315150000000  0.5517900000000 1.0
C      1  0.5416450000000  0.4684870000000  0.4482110000000 1.0
C      1  0.4583570000000  0.5315110000000  0.4482090000000 1.0
C      1  0.4583560000000  0.5517890000000  0.4684850000000 1.0
C      1  0.5517910000000  0.4684870000000  0.4583580000000 1.0
C      1  0.4684870000000  0.4583570000000  0.5517900000000 1.0
C      1  0.5416450000000  0.4482100000000  0.4684890000000 1.0
C      1  0.4583570000000  0.4482100000000  0.5315140000000 1.0
C      1  0.5416420000000  0.5517910000000  0.5315130000000 1.0
C      1  0.4482100000000  0.5315110000000  0.4583550000000 1.0
C      1  0.5517890000000  0.5315150000000  0.5416430000000 1.0
C      1  0.4482100000000  0.4684870000000  0.5416430000000 1.0
C      1  0.5315120000000  0.5416450000000  0.5517900000000 1.0
C      1  0.4684870000000  0.5416410000000  0.4482090000000 1.0
C      1  0.5315150000000  0.4583560000000  0.4482110000000 1.0
C      1  0.5695010000000  0.5190330000000  0.5292130000000 1.0
C      1  0.5292100000000  0.5695030000000  0.5190300000000 1.0
C      1  0.5190290000000  0.5292140000000  0.5695020000000 1.0
C      1  0.4304980000000  0.4809690000000  0.5292110000000 1.0
C      1  0.4304980000000  0.5190290000000  0.4707870000000 1.0
C      1  0.5695030000000  0.4809700000000  0.4707900000000 1.0
C      1  0.4707890000000  0.4304980000000  0.5190320000000 1.0
C      1  0.4707870000000  0.5695010000000  0.4809670000000 1.0
C      1  0.5292130000000  0.4304980000000  0.4809710000000 1.0
C      1  0.4809690000000  0.4707890000000  0.5695020000000 1.0
C      1  0.4809700000000  0.5292100000000  0.4304970000000 1.0
C      1  0.5190320000000  0.4707870000000  0.4304990000000 1.0
C      1  0.5190290000000  0.5695030000000  0.5292110000000 1.0
C      1  0.5695010000000  0.5292130000000  0.5190310000000 1.0
C      1  0.5292100000000  0.5190330000000  0.5695020000000 1.0
C      1  0.4809700000000  0.4304980000000  0.5292130000000 1.0
C      1  0.5190320000000  0.4304980000000  0.4707900000000 1.0
C      1  0.4809680000000  0.5695010000000  0.4707860000000 1.0
C      1  0.4304980000000  0.4707870000000  0.5190300000000 1.0
C      1  0.5695030000000  0.4707890000000  0.4809710000000 1.0
C      1  0.4304980000000  0.5292100000000  0.4809680000000 1.0
C      1  0.4707870000000  0.4809700000000  0.5695020000000 1.0
C      1  0.5292130000000  0.4809680000000  0.4304990000000 1.0
C      1  0.4707890000000  0.5190290000000  0.4304970000000 1.0
C      1  0.5757990000000  0.5069530000000  0.5270130000000 1.0
C      1  0.5270100000000  0.5758000000000  0.5069500000000 1.0
C      1  0.5069490000000  0.5270140000000  0.5757990000000 1.0
C      1  0.4242000000000  0.4930480000000  0.5270110000000 1.0
C      1  0.4242000000000  0.5069490000000  0.4729870000000 1.0
C      1  0.5758000000000  0.4930500000000  0.4729890000000 1.0
C      1  0.4729890000000  0.4242000000000  0.5069520000000 1.0
C      1  0.4729870000000  0.5757990000000  0.4930470000000 1.0
C      1  0.5270130000000  0.4242000000000  0.4930510000000 1.0
C      1  0.4930480000000  0.4729900000000  0.5758000000000 1.0
C      1  0.4930500000000  0.5270100000000  0.4241990000000 1.0
C      1  0.5069530000000  0.4729870000000  0.4242010000000 1.0
C      1  0.5069490000000  0.5758010000000  0.5270100000000 1.0
C      1  0.5757990000000  0.5270130000000  0.5069520000000 1.0
C      1  0.5270110000000  0.5069530000000  0.5758000000000 1.0
C      1  0.4930500000000  0.4242010000000  0.5270130000000 1.0
C      1  0.5069530000000  0.4242000000000  0.4729900000000 1.0
C      1  0.4930480000000  0.5757990000000  0.4729860000000 1.0
C      1  0.4242010000000  0.4729870000000  0.5069500000000 1.0
C      1  0.5758000000000  0.4729890000000  0.4930510000000 1.0
C      1  0.4242000000000  0.5270100000000  0.4930470000000 1.0
C      1  0.4729870000000  0.4930500000000  0.5758000000000 1.0
C      1  0.5270130000000  0.4930480000000  0.4242010000000 1.0
C      1  0.4729890000000  0.5069490000000  0.4242000000000 1.0
C      1  0.4815750000000  0.4287480000000  0.4716520000000 1.0
C      1  0.4716530000000  0.4815710000000  0.4287490000000 1.0
C      1  0.4287500000000  0.4716500000000  0.4815730000000 1.0
C      1  0.5184260000000  0.5712500000000  0.4716500000000 1.0
C      1  0.5184270000000  0.4287500000000  0.5283510000000 1.0
C      1  0.4815720000000  0.5712510000000  0.5283470000000 1.0
C      1  0.5283500000000  0.5184260000000  0.4287490000000 1.0
C      1  0.5283480000000  0.4815750000000  0.5712520000000 1.0
C      1  0.4716500000000  0.5184280000000  0.5712500000000 1.0
C      1  0.5712500000000  0.5283500000000  0.4815740000000 1.0
C      1  0.5712510000000  0.4716530000000  0.5184280000000 1.0
C      1  0.4287490000000  0.5283480000000  0.5184250000000 1.0
C      1  0.4287500000000  0.4815720000000  0.4716500000000 1.0
C      1  0.4815750000000  0.4716490000000  0.4287500000000 1.0
C      1  0.4716530000000  0.4287480000000  0.4815740000000 1.0
C      1  0.5712510000000  0.5184270000000  0.4716520000000 1.0
C      1  0.4287490000000  0.5184260000000  0.5283470000000 1.0
C      1  0.5712510000000  0.4815750000000  0.5283500000000 1.0
C      1  0.5184270000000  0.5283480000000  0.4287490000000 1.0
C      1  0.4815720000000  0.5283500000000  0.5712500000000 1.0
C      1  0.5184260000000  0.4716530000000  0.5712520000000 1.0
C      1  0.5283480000000  0.5712510000000  0.4815720000000 1.0
C      1  0.4716500000000  0.5712510000000  0.5184250000000 1.0
C      1  0.5283500000000  0.4287500000000  0.5184290000000 1.0
END
