TITL C240-883926 0.0590075282682165 1000000 -1590.90399688733 0 0 240 (C1) n - 1
REM
REM in /home/chem/mssmkc/work/CARBON/AIRSS/Generating-Clusters/Str-Search/GAP20/LAMMPS-RUNS
REM
REM
REM
REM
REM
REM C240.cell (2ddf0ceeaa9d3112b67e314fbca3b82c)
REM
REM
REM
REM
REM
CELL 1.54180  100.00000  100.00000  100.00000   90.00000   90.00000   90.00000
LATT -1
SFAC C  
C      1  0.5033590000000  0.4748890000000  0.4390230000000 1.0
C      1  0.4514880000000  0.5063550000000  0.4588920000000 1.0
C      1  0.5138070000000  0.5267200000000  0.5510140000000 1.0
C      1  0.5111860000000  0.4746230000000  0.5612900000000 1.0
C      1  0.4935490000000  0.5409280000000  0.5458410000000 1.0
C      1  0.5451990000000  0.4893240000000  0.5400900000000 1.0
C      1  0.4685110000000  0.4444130000000  0.4899130000000 1.0
C      1  0.5079980000000  0.5416830000000  0.4521390000000 1.0
C      1  0.5518420000000  0.4876470000000  0.5259920000000 1.0
C      1  0.5129700000000  0.5292980000000  0.4444750000000 1.0
C      1  0.4684660000000  0.5550250000000  0.4891300000000 1.0
C      1  0.4998220000000  0.4813630000000  0.5683110000000 1.0
C      1  0.5576370000000  0.5010520000000  0.4810630000000 1.0
C      1  0.5410630000000  0.4456100000000  0.5038250000000 1.0
C      1  0.5015570000000  0.5198440000000  0.5566500000000 1.0
C      1  0.4443910000000  0.5000070000000  0.4816590000000 1.0
C      1  0.4582390000000  0.5442600000000  0.5090900000000 1.0
C      1  0.4926260000000  0.5411400000000  0.4513510000000 1.0
C      1  0.4514460000000  0.4895280000000  0.5418680000000 1.0
C      1  0.5475010000000  0.5080890000000  0.4592580000000 1.0
C      1  0.5272250000000  0.4438260000000  0.5099310000000 1.0
C      1  0.4468520000000  0.4869580000000  0.4734550000000 1.0
C      1  0.4469710000000  0.4871820000000  0.5267450000000 1.0
C      1  0.5257100000000  0.4404650000000  0.4854720000000 1.0
C      1  0.4876320000000  0.4741780000000  0.5641860000000 1.0
C      1  0.4883740000000  0.5285230000000  0.5543720000000 1.0
C      1  0.5304850000000  0.5577150000000  0.5133280000000 1.0
C      1  0.5088400000000  0.4558950000000  0.4535040000000 1.0
C      1  0.5476420000000  0.5038450000000  0.5437240000000 1.0
C      1  0.4525760000000  0.4914850000000  0.4594480000000 1.0
C      1  0.4915760000000  0.4628550000000  0.5556940000000 1.0
C      1  0.5012400000000  0.5197830000000  0.4412440000000 1.0
C      1  0.5590570000000  0.5005420000000  0.5223200000000 1.0
C      1  0.4771600000000  0.5593490000000  0.5008920000000 1.0
C      1  0.5143310000000  0.4657730000000  0.4434420000000 1.0
C      1  0.4461280000000  0.5115060000000  0.4718200000000 1.0
C      1  0.5400450000000  0.4436210000000  0.4889060000000 1.0
C      1  0.4418300000000  0.5004810000000  0.5217530000000 1.0
C      1  0.5167230000000  0.4408910000000  0.4973360000000 1.0
C      1  0.4936810000000  0.4569630000000  0.4534870000000 1.0
C      1  0.4440100000000  0.5110970000000  0.5321790000000 1.0
C      1  0.5086820000000  0.5400290000000  0.5440610000000 1.0
C      1  0.5476520000000  0.4921440000000  0.4595710000000 1.0
C      1  0.4907520000000  0.4686650000000  0.4439560000000 1.0
C      1  0.4884600000000  0.5273650000000  0.4451260000000 1.0
C      1  0.5533690000000  0.4880370000000  0.4736320000000 1.0
C      1  0.4589500000000  0.5443240000000  0.4938930000000 1.0
C      1  0.4759140000000  0.4390720000000  0.5015060000000 1.0
C      1  0.5059140000000  0.4630700000000  0.5542610000000 1.0
C      1  0.5211400000000  0.5609120000000  0.5017110000000 1.0
C      1  0.4492260000000  0.5042700000000  0.5444710000000 1.0
C      1  0.5281170000000  0.5574040000000  0.4893850000000 1.0
C      1  0.4689860000000  0.4439270000000  0.5144230000000 1.0
C      1  0.4565010000000  0.4508640000000  0.5097020000000 1.0
C      1  0.5555100000000  0.5104860000000  0.5324420000000 1.0
C      1  0.5551370000000  0.5124740000000  0.4712800000000 1.0
C      1  0.4693110000000  0.5544410000000  0.5129450000000 1.0
C      1  0.5427210000000  0.5503150000000  0.5081480000000 1.0
C      1  0.5414040000000  0.5504040000000  0.4922580000000 1.0
C      1  0.4565040000000  0.4518070000000  0.4949610000000 1.0
C      1  0.5229690000000  0.4529360000000  0.5202620000000 1.0
C      1  0.4651720000000  0.4857480000000  0.4547310000000 1.0
C      1  0.4603140000000  0.5328770000000  0.4854860000000 1.0
C      1  0.4505150000000  0.5012970000000  0.4953810000000 1.0
C      1  0.4916220000000  0.5584540000000  0.4999370000000 1.0
C      1  0.5035930000000  0.4471640000000  0.4983050000000 1.0
C      1  0.4638500000000  0.4836240000000  0.5472200000000 1.0
C      1  0.5554940000000  0.5048680000000  0.4948220000000 1.0
C      1  0.5239290000000  0.5185960000000  0.5446360000000 1.0
C      1  0.5017830000000  0.5054820000000  0.4455840000000 1.0
C      1  0.5461370000000  0.4779060000000  0.4809290000000 1.0
C      1  0.5351790000000  0.5146770000000  0.4563530000000 1.0
C      1  0.4861130000000  0.4558170000000  0.4662250000000 1.0
C      1  0.5146030000000  0.5465290000000  0.4646800000000 1.0
C      1  0.4863440000000  0.5444270000000  0.5340640000000 1.0
C      1  0.5009090000000  0.5057640000000  0.5550070000000 1.0
C      1  0.5485470000000  0.5363820000000  0.5160610000000 1.0
C      1  0.4842520000000  0.5463150000000  0.4627560000000 1.0
C      1  0.4560990000000  0.5325870000000  0.5174890000000 1.0
C      1  0.4529650000000  0.4754070000000  0.4798820000000 1.0
C      1  0.5145520000000  0.5434230000000  0.5313420000000 1.0
C      1  0.5154610000000  0.4556640000000  0.4665800000000 1.0
C      1  0.5440720000000  0.4819670000000  0.5152160000000 1.0
C      1  0.4775830000000  0.4503020000000  0.5245620000000 1.0
C      1  0.4551930000000  0.4780740000000  0.5190460000000 1.0
C      1  0.5457960000000  0.5386330000000  0.4846190000000 1.0
C      1  0.4753580000000  0.5219430000000  0.5512600000000 1.0
C      1  0.5321070000000  0.4830130000000  0.5435470000000 1.0
C      1  0.4774950000000  0.5195570000000  0.4512770000000 1.0
C      1  0.5360770000000  0.4840430000000  0.4543510000000 1.0
C      1  0.5022840000000  0.4671420000000  0.4267060000000 1.0
C      1  0.4380070000000  0.5064740000000  0.4532030000000 1.0
C      1  0.5153380000000  0.5348150000000  0.5640500000000 1.0
C      1  0.5128360000000  0.4668380000000  0.5737820000000 1.0
C      1  0.4961160000000  0.5480840000000  0.5592940000000 1.0
C      1  0.5585260000000  0.4865530000000  0.5466430000000 1.0
C      1  0.4604480000000  0.4318400000000  0.4890470000000 1.0
C      1  0.5082360000000  0.5481040000000  0.4381560000000 1.0
C      1  0.5652250000000  0.4844130000000  0.5332950000000 1.0
C      1  0.5129510000000  0.5358390000000  0.4312130000000 1.0
C      1  0.4590430000000  0.5660130000000  0.4900160000000 1.0
C      1  0.5009700000000  0.4737600000000  0.5804980000000 1.0
C      1  0.5714200000000  0.5002910000000  0.4746630000000 1.0
C      1  0.5437940000000  0.4314650000000  0.5054180000000 1.0
C      1  0.5036900000000  0.5279880000000  0.5697340000000 1.0
C      1  0.4300880000000  0.5000820000000  0.4758450000000 1.0
C      1  0.4490400000000  0.5562560000000  0.5091770000000 1.0
C      1  0.4933200000000  0.5470900000000  0.4372890000000 1.0
C      1  0.4369900000000  0.4878880000000  0.5461770000000 1.0
C      1  0.5617210000000  0.5075560000000  0.4533540000000 1.0
C      1  0.5299400000000  0.4292600000000  0.5106660000000 1.0
C      1  0.4327880000000  0.4878230000000  0.4676700000000 1.0
C      1  0.4323930000000  0.4855330000000  0.5319760000000 1.0
C      1  0.5286230000000  0.4262020000000  0.4871060000000 1.0
C      1  0.4882750000000  0.4662350000000  0.5763850000000 1.0
C      1  0.4919460000000  0.5362780000000  0.5670920000000 1.0
C      1  0.5361200000000  0.5713550000000  0.5124900000000 1.0
C      1  0.5077440000000  0.4473360000000  0.4406980000000 1.0
C      1  0.5601970000000  0.5008920000000  0.5504570000000 1.0
C      1  0.4381540000000  0.4914530000000  0.4540060000000 1.0
C      1  0.4922060000000  0.4545780000000  0.5676080000000 1.0
C      1  0.5014450000000  0.5267300000000  0.4278080000000 1.0
C      1  0.5716240000000  0.4971000000000  0.5296160000000 1.0
C      1  0.4673530000000  0.5708280000000  0.5016610000000 1.0
C      1  0.5128770000000  0.4575560000000  0.4312830000000 1.0
C      1  0.4322770000000  0.5111670000000  0.4663320000000 1.0
C      1  0.5427910000000  0.4296700000000  0.4900770000000 1.0
C      1  0.4279730000000  0.4988350000000  0.5266670000000 1.0
C      1  0.5201950000000  0.4263770000000  0.4993950000000 1.0
C      1  0.4926950000000  0.4489980000000  0.4406180000000 1.0
C      1  0.4301260000000  0.5093120000000  0.5371130000000 1.0
C      1  0.5106040000000  0.5471660000000  0.5575010000000 1.0
C      1  0.5618530000000  0.4925790000000  0.4541420000000 1.0
C      1  0.4892500000000  0.4605500000000  0.4316200000000 1.0
C      1  0.4891150000000  0.5342000000000  0.4312980000000 1.0
C      1  0.5675360000000  0.4880770000000  0.4671850000000 1.0
C      1  0.4488530000000  0.5559970000000  0.4941780000000 1.0
C      1  0.4681070000000  0.4266020000000  0.5012100000000 1.0
C      1  0.5076430000000  0.4548080000000  0.5661440000000 1.0
C      1  0.5268260000000  0.5746300000000  0.5012800000000 1.0
C      1  0.4355600000000  0.5024900000000  0.5493380000000 1.0
C      1  0.5342750000000  0.5710410000000  0.4888050000000 1.0
C      1  0.4609110000000  0.4315640000000  0.5134860000000 1.0
C      1  0.4484630000000  0.4385860000000  0.5092550000000 1.0
C      1  0.5680560000000  0.5079250000000  0.5396880000000 1.0
C      1  0.5685560000000  0.5118620000000  0.4657610000000 1.0
C      1  0.4599730000000  0.5655340000000  0.5135230000000 1.0
C      1  0.5482520000000  0.5645790000000  0.5071840000000 1.0
C      1  0.5471840000000  0.5646490000000  0.4921590000000 1.0
C      1  0.4484250000000  0.4391790000000  0.4941860000000 1.0
C      1  0.5091310000000  0.4707340000000  0.5106170000000 1.0
C      1  0.4822400000000  0.4809920000000  0.4654510000000 1.0
C      1  0.4719390000000  0.5111530000000  0.4843020000000 1.0
C      1  0.4735710000000  0.4994440000000  0.4911440000000 1.0
C      1  0.4967820000000  0.5399000000000  0.4949220000000 1.0
C      1  0.4985140000000  0.4706130000000  0.5008790000000 1.0
C      1  0.4831740000000  0.4841010000000  0.5388010000000 1.0
C      1  0.5334510000000  0.5138910000000  0.5015100000000 1.0
C      1  0.5274300000000  0.5127940000000  0.5251980000000 1.0
C      1  0.5046070000000  0.5092770000000  0.4694580000000 1.0
C      1  0.5269770000000  0.4735430000000  0.4863960000000 1.0
C      1  0.5177700000000  0.5114980000000  0.4678450000000 1.0
C      1  0.4853260000000  0.4758410000000  0.4786250000000 1.0
C      1  0.5088800000000  0.5357570000000  0.4809600000000 1.0
C      1  0.4810900000000  0.5295270000000  0.5207850000000 1.0
C      1  0.4950690000000  0.4897200000000  0.5432150000000 1.0
C      1  0.5253360000000  0.5183290000000  0.5122070000000 1.0
C      1  0.4944330000000  0.5329760000000  0.4827240000000 1.0
C      1  0.4740090000000  0.5170910000000  0.5193070000000 1.0
C      1  0.4728310000000  0.4715580000000  0.4843710000000 1.0
C      1  0.5195810000000  0.5314650000000  0.5149570000000 1.0
C      1  0.5151170000000  0.4765880000000  0.4782480000000 1.0
C      1  0.5197060000000  0.4788970000000  0.5149560000000 1.0
C      1  0.4865540000000  0.4675970000000  0.5089990000000 1.0
C      1  0.4742470000000  0.4728400000000  0.5119070000000 1.0
C      1  0.5376050000000  0.5211810000000  0.4901520000000 1.0
C      1  0.4717700000000  0.5133400000000  0.5328700000000 1.0
C      1  0.5185960000000  0.4813640000000  0.5290520000000 1.0
C      1  0.4753290000000  0.5141980000000  0.4714060000000 1.0
C      1  0.5186250000000  0.4803830000000  0.4649440000000 1.0
C      1  0.4974990000000  0.5458780000000  0.5083440000000 1.0
C      1  0.5510490000000  0.5275340000000  0.4924980000000 1.0
C      1  0.5363880000000  0.4672690000000  0.4762060000000 1.0
C      1  0.5345140000000  0.5300190000000  0.4787230000000 1.0
C      1  0.4812840000000  0.5067450000000  0.4597360000000 1.0
C      1  0.4625240000000  0.4792540000000  0.5060490000000 1.0
C      1  0.5278290000000  0.5227280000000  0.4672520000000 1.0
C      1  0.5215630000000  0.5064280000000  0.5368420000000 1.0
C      1  0.4722590000000  0.4593130000000  0.4644700000000 1.0
C      1  0.5339180000000  0.4719640000000  0.5159070000000 1.0
C      1  0.5312210000000  0.4725900000000  0.4618180000000 1.0
C      1  0.4969430000000  0.5531790000000  0.4873900000000 1.0
C      1  0.4878610000000  0.4996020000000  0.5520720000000 1.0
C      1  0.5079320000000  0.5403940000000  0.5183760000000 1.0
C      1  0.5005970000000  0.4596450000000  0.4905460000000 1.0
C      1  0.5075360000000  0.4963960000000  0.5456240000000 1.0
C      1  0.4888900000000  0.4556380000000  0.5170420000000 1.0
C      1  0.4761980000000  0.5077330000000  0.5460460000000 1.0
C      1  0.5407310000000  0.4888920000000  0.5034120000000 1.0
C      1  0.4624790000000  0.5201460000000  0.4903920000000 1.0
C      1  0.4672790000000  0.5260640000000  0.5395760000000 1.0
C      1  0.5314810000000  0.4623790000000  0.5262550000000 1.0
C      1  0.5299360000000  0.4592730000000  0.4665200000000 1.0
C      1  0.4710600000000  0.5254320000000  0.4633780000000 1.0
C      1  0.4629180000000  0.5351590000000  0.4719280000000 1.0
C      1  0.4641190000000  0.4675560000000  0.4731230000000 1.0
C      1  0.4725620000000  0.4737660000000  0.5387380000000 1.0
C      1  0.5201970000000  0.4922180000000  0.5400340000000 1.0
C      1  0.4604180000000  0.5196820000000  0.5126470000000 1.0
C      1  0.5375350000000  0.4816320000000  0.4917610000000 1.0
C      1  0.4778110000000  0.4924360000000  0.4578550000000 1.0
C      1  0.4999710000000  0.4487180000000  0.5124030000000 1.0
C      1  0.4958840000000  0.5057200000000  0.4598600000000 1.0
C      1  0.5425720000000  0.5025110000000  0.5006480000000 1.0
C      1  0.5409900000000  0.5341210000000  0.5277120000000 1.0
C      1  0.5267340000000  0.5364660000000  0.5272740000000 1.0
C      1  0.5054660000000  0.5494180000000  0.4760950000000 1.0
C      1  0.5145480000000  0.4992560000000  0.4457770000000 1.0
C      1  0.4548860000000  0.5143840000000  0.5007720000000 1.0
C      1  0.4748650000000  0.4929650000000  0.5485970000000 1.0
C      1  0.5216330000000  0.5355910000000  0.4728210000000 1.0
C      1  0.5231240000000  0.5059480000000  0.4551760000000 1.0
C      1  0.4616210000000  0.4782910000000  0.4914750000000 1.0
C      1  0.4600070000000  0.5350030000000  0.5309410000000 1.0
C      1  0.4667260000000  0.4705340000000  0.5246940000000 1.0
C      1  0.4716250000000  0.4599860000000  0.5333400000000 1.0
C      1  0.4931720000000  0.4629510000000  0.4774270000000 1.0
C      1  0.5598600000000  0.5180710000000  0.4986740000000 1.0
C      1  0.5223800000000  0.4903870000000  0.4542790000000 1.0
C      1  0.4626820000000  0.4924610000000  0.4966070000000 1.0
C      1  0.5552770000000  0.5278820000000  0.5071180000000 1.0
C      1  0.4700500000000  0.4728660000000  0.4605810000000 1.0
C      1  0.5321100000000  0.5242450000000  0.5337350000000 1.0
C      1  0.4918380000000  0.5396180000000  0.5205480000000 1.0
C      1  0.4714340000000  0.5404320000000  0.4633910000000 1.0
C      1  0.4738520000000  0.5372180000000  0.5315090000000 1.0
C      1  0.5268920000000  0.4717850000000  0.5360200000000 1.0
C      1  0.5101150000000  0.4575910000000  0.5171550000000 1.0
C      1  0.5081500000000  0.4632220000000  0.4775400000000 1.0
C      1  0.4910050000000  0.5465790000000  0.4753840000000 1.0
END
