TITL C-102688-8074-15 0.0102730139548602 1000000 -1627.45957477803 0 0 240 (Th) n - 1
REM
REM in /home/chem/mssmkc/work/GAP20/Larger-Clusters/Only-C240-new-series
REM
REM
REM
REM
REM
REM ./C.cell (0485df7495ed2a90f93db84a705cd676)
REM
REM compiler GCC version 8.3.0
REM options -cpp -mtune=generic -march=x86-64 -g -O0
REM seed 2139803770 967027947 1852970330 -1409109691 1080033210 106004842 -1124182931 -772178795 1272711431 1993028250 -1513287160 -374205125 1803659065 1344498910 -701101886 -1394368708 -1941499727 -923062028 -822161007 -1142363959 331675616 908714257 -1575783909 1037245834 2141456022 966240156 -2100430079 -1740916129 1097096140 1961338433 -436530507 1934500080 -1233866503
REM
CELL 1.54180  100.00000  100.00000  100.00000   90.00000   90.00000   90.00000
LATT -1
SFAC C  
C      1  0.5071370000000  0.4717920000000  0.4323900000000 1.0
C      1  0.4323910000000  0.5071390000000  0.4717900000000 1.0
C      1  0.4717890000000  0.4323910000000  0.5071350000000 1.0
C      1  0.5071410000000  0.5282080000000  0.5676090000000 1.0
C      1  0.4928580000000  0.5282180000000  0.4323950000000 1.0
C      1  0.4928640000000  0.4717820000000  0.5676060000000 1.0
C      1  0.4323940000000  0.4928570000000  0.5282150000000 1.0
C      1  0.5676070000000  0.4928650000000  0.4717840000000 1.0
C      1  0.5676080000000  0.5071390000000  0.5282110000000 1.0
C      1  0.4717850000000  0.5676070000000  0.4928670000000 1.0
C      1  0.5282110000000  0.5676080000000  0.5071430000000 1.0
C      1  0.5282140000000  0.4323940000000  0.4928550000000 1.0
C      1  0.4928590000000  0.4717920000000  0.4323910000000 1.0
C      1  0.5676060000000  0.5071430000000  0.4717850000000 1.0
C      1  0.5282150000000  0.4323930000000  0.5071330000000 1.0
C      1  0.4928630000000  0.5282080000000  0.5676100000000 1.0
C      1  0.5071360000000  0.5282180000000  0.4323940000000 1.0
C      1  0.5071420000000  0.4717820000000  0.5676050000000 1.0
C      1  0.5676090000000  0.4928610000000  0.5282100000000 1.0
C      1  0.4323920000000  0.4928610000000  0.4717890000000 1.0
C      1  0.4323930000000  0.5071350000000  0.5282160000000 1.0
C      1  0.5282110000000  0.5676090000000  0.4928650000000 1.0
C      1  0.4717860000000  0.5676060000000  0.5071450000000 1.0
C      1  0.4717890000000  0.4323920000000  0.4928570000000 1.0
C      1  0.4684630000000  0.5077240000000  0.4427590000000 1.0
C      1  0.4427580000000  0.4684630000000  0.5077210000000 1.0
C      1  0.5077220000000  0.4427590000000  0.4684610000000 1.0
C      1  0.4684680000000  0.4922740000000  0.5572440000000 1.0
C      1  0.5315330000000  0.4922840000000  0.4427550000000 1.0
C      1  0.5315360000000  0.5077180000000  0.5572420000000 1.0
C      1  0.4427560000000  0.5315330000000  0.4922830000000 1.0
C      1  0.5572420000000  0.5315350000000  0.5077210000000 1.0
C      1  0.5572440000000  0.4684680000000  0.4922750000000 1.0
C      1  0.5077200000000  0.5572410000000  0.5315380000000 1.0
C      1  0.4922760000000  0.5572450000000  0.4684700000000 1.0
C      1  0.4922820000000  0.4427540000000  0.5315300000000 1.0
C      1  0.5315320000000  0.5077260000000  0.4427560000000 1.0
C      1  0.5572440000000  0.4684670000000  0.5077170000000 1.0
C      1  0.4922800000000  0.4427590000000  0.4684620000000 1.0
C      1  0.5315370000000  0.4922760000000  0.5572410000000 1.0
C      1  0.4684640000000  0.4922820000000  0.4427580000000 1.0
C      1  0.4684670000000  0.5077160000000  0.5572450000000 1.0
C      1  0.5572420000000  0.5315370000000  0.4922790000000 1.0
C      1  0.4427560000000  0.5315320000000  0.5077250000000 1.0
C      1  0.4427580000000  0.4684650000000  0.4922790000000 1.0
C      1  0.4922780000000  0.5572410000000  0.5315390000000 1.0
C      1  0.5077180000000  0.5572460000000  0.4684700000000 1.0
C      1  0.5077240000000  0.4427550000000  0.5315300000000 1.0
C      1  0.5380120000000  0.4434640000000  0.5072550000000 1.0
C      1  0.5072570000000  0.5380140000000  0.4434660000000 1.0
C      1  0.4434640000000  0.5072560000000  0.5380120000000 1.0
C      1  0.5380080000000  0.5565380000000  0.4927430000000 1.0
C      1  0.4619890000000  0.5565350000000  0.5072650000000 1.0
C      1  0.4619910000000  0.4434630000000  0.4927370000000 1.0
C      1  0.5072630000000  0.4619860000000  0.5565340000000 1.0
C      1  0.4927390000000  0.4619940000000  0.4434610000000 1.0
C      1  0.4927410000000  0.5380060000000  0.5565400000000 1.0
C      1  0.4434620000000  0.4927410000000  0.4619910000000 1.0
C      1  0.5565380000000  0.4927390000000  0.5380080000000 1.0
C      1  0.5565350000000  0.5072640000000  0.4619890000000 1.0
C      1  0.4619920000000  0.4434620000000  0.5072570000000 1.0
C      1  0.4927370000000  0.5380140000000  0.4434660000000 1.0
C      1  0.5565380000000  0.5072590000000  0.5380090000000 1.0
C      1  0.4619880000000  0.5565360000000  0.4927450000000 1.0
C      1  0.5380090000000  0.5565370000000  0.5072630000000 1.0
C      1  0.5380110000000  0.4434650000000  0.4927350000000 1.0
C      1  0.4927430000000  0.4619860000000  0.5565340000000 1.0
C      1  0.5072590000000  0.4619940000000  0.4434600000000 1.0
C      1  0.5072610000000  0.5380060000000  0.5565390000000 1.0
C      1  0.5565360000000  0.4927440000000  0.4619880000000 1.0
C      1  0.4434650000000  0.4927360000000  0.5380110000000 1.0
C      1  0.4434620000000  0.5072610000000  0.4619920000000 1.0
C      1  0.5357940000000  0.4814930000000  0.5476840000000 1.0
C      1  0.5476850000000  0.5357950000000  0.4814960000000 1.0
C      1  0.4814950000000  0.5476840000000  0.5357960000000 1.0
C      1  0.5357900000000  0.5185090000000  0.4523130000000 1.0
C      1  0.4642090000000  0.5185000000000  0.5476900000000 1.0
C      1  0.4642070000000  0.4814980000000  0.4523130000000 1.0
C      1  0.5476890000000  0.4642080000000  0.5185000000000 1.0
C      1  0.4523130000000  0.4642080000000  0.4814940000000 1.0
C      1  0.4523130000000  0.5357890000000  0.5185090000000 1.0
C      1  0.4814950000000  0.4523150000000  0.4642050000000 1.0
C      1  0.5185070000000  0.4523110000000  0.5357880000000 1.0
C      1  0.5185020000000  0.5476900000000  0.4642110000000 1.0
C      1  0.4642100000000  0.4814910000000  0.5476870000000 1.0
C      1  0.4523110000000  0.5357920000000  0.4815000000000 1.0
C      1  0.5185050000000  0.5476850000000  0.5357950000000 1.0
C      1  0.4642060000000  0.5185070000000  0.4523160000000 1.0
C      1  0.5357930000000  0.5185020000000  0.5476870000000 1.0
C      1  0.5357910000000  0.4815000000000  0.4523100000000 1.0
C      1  0.4523150000000  0.4642050000000  0.5185040000000 1.0
C      1  0.5476870000000  0.4642110000000  0.4814910000000 1.0
C      1  0.5476870000000  0.5357920000000  0.5185060000000 1.0
C      1  0.5185050000000  0.4523160000000  0.4642040000000 1.0
C      1  0.4814980000000  0.4523100000000  0.5357890000000 1.0
C      1  0.4814930000000  0.5476890000000  0.4642120000000 1.0
C      1  0.5068890000000  0.5832830000000  0.5334310000000 1.0
C      1  0.5334280000000  0.5068850000000  0.5832850000000 1.0
C      1  0.5832850000000  0.5334270000000  0.5068900000000 1.0
C      1  0.5068920000000  0.4167170000000  0.4665690000000 1.0
C      1  0.4931130000000  0.4167120000000  0.5334190000000 1.0
C      1  0.4931060000000  0.5832880000000  0.4665810000000 1.0
C      1  0.5334220000000  0.4931170000000  0.4167130000000 1.0
C      1  0.4665780000000  0.4931030000000  0.5832860000000 1.0
C      1  0.4665720000000  0.5068950000000  0.4167160000000 1.0
C      1  0.5832860000000  0.4665780000000  0.4931040000000 1.0
C      1  0.4167160000000  0.4665720000000  0.5068910000000 1.0
C      1  0.4167140000000  0.5334230000000  0.4931150000000 1.0
C      1  0.4931080000000  0.5832830000000  0.5334310000000 1.0
C      1  0.4665780000000  0.5068830000000  0.5832870000000 1.0
C      1  0.4167140000000  0.5334220000000  0.5068960000000 1.0
C      1  0.4931110000000  0.4167170000000  0.4665690000000 1.0
C      1  0.5068940000000  0.4167120000000  0.5334190000000 1.0
C      1  0.5068870000000  0.5832880000000  0.4665810000000 1.0
C      1  0.4665720000000  0.4931150000000  0.4167150000000 1.0
C      1  0.5334280000000  0.4931050000000  0.5832840000000 1.0
C      1  0.5334220000000  0.5068970000000  0.4167140000000 1.0
C      1  0.4167150000000  0.4665730000000  0.4931100000000 1.0
C      1  0.5832860000000  0.4665770000000  0.5068850000000 1.0
C      1  0.5832840000000  0.5334280000000  0.4931090000000 1.0
C      1  0.4707820000000  0.5136340000000  0.5720950000000 1.0
C      1  0.5720950000000  0.4707810000000  0.5136360000000 1.0
C      1  0.5136370000000  0.5720960000000  0.4707850000000 1.0
C      1  0.4707780000000  0.4863640000000  0.4279070000000 1.0
C      1  0.5292230000000  0.4863550000000  0.5720910000000 1.0
C      1  0.5292170000000  0.5136460000000  0.4279060000000 1.0
C      1  0.5720920000000  0.5292230000000  0.4863590000000 1.0
C      1  0.4279060000000  0.5292170000000  0.5136450000000 1.0
C      1  0.4279070000000  0.4707790000000  0.4863600000000 1.0
C      1  0.5136430000000  0.4279050000000  0.5292140000000 1.0
C      1  0.4863610000000  0.4279080000000  0.4707750000000 1.0
C      1  0.4863590000000  0.5720910000000  0.5292250000000 1.0
C      1  0.5292220000000  0.5136360000000  0.5720930000000 1.0
C      1  0.4279080000000  0.4707770000000  0.5136410000000 1.0
C      1  0.4863570000000  0.5720950000000  0.4707860000000 1.0
C      1  0.5292180000000  0.4863660000000  0.4279050000000 1.0
C      1  0.4707830000000  0.4863540000000  0.5720940000000 1.0
C      1  0.4707770000000  0.5136450000000  0.4279090000000 1.0
C      1  0.4279050000000  0.5292190000000  0.4863640000000 1.0
C      1  0.5720930000000  0.5292210000000  0.5136400000000 1.0
C      1  0.5720940000000  0.4707830000000  0.4863550000000 1.0
C      1  0.4863630000000  0.4279040000000  0.5292150000000 1.0
C      1  0.5136410000000  0.4279090000000  0.4707750000000 1.0
C      1  0.5136390000000  0.5720920000000  0.5292250000000 1.0
C      1  0.5155650000000  0.4829090000000  0.4316040000000 1.0
C      1  0.4316050000000  0.5155660000000  0.4829070000000 1.0
C      1  0.4829060000000  0.4316050000000  0.5155620000000 1.0
C      1  0.5155680000000  0.5170920000000  0.5683950000000 1.0
C      1  0.4844310000000  0.5171010000000  0.4316080000000 1.0
C      1  0.4844360000000  0.4828980000000  0.5683930000000 1.0
C      1  0.4316070000000  0.4844300000000  0.5170980000000 1.0
C      1  0.5683940000000  0.4844370000000  0.4829000000000 1.0
C      1  0.5683940000000  0.5155670000000  0.5170960000000 1.0
C      1  0.4829010000000  0.5683950000000  0.4844390000000 1.0
C      1  0.5170950000000  0.5683930000000  0.5155710000000 1.0
C      1  0.5170980000000  0.4316080000000  0.4844280000000 1.0
C      1  0.4844320000000  0.4829080000000  0.4316050000000 1.0
C      1  0.5683930000000  0.5155700000000  0.4829020000000 1.0
C      1  0.5170990000000  0.4316050000000  0.5155610000000 1.0
C      1  0.4844350000000  0.5170910000000  0.5683960000000 1.0
C      1  0.5155640000000  0.5171020000000  0.4316070000000 1.0
C      1  0.5155690000000  0.4828990000000  0.5683920000000 1.0
C      1  0.5683950000000  0.4844340000000  0.5170930000000 1.0
C      1  0.4316060000000  0.4844330000000  0.4829040000000 1.0
C      1  0.4316060000000  0.5155630000000  0.5171000000000 1.0
C      1  0.5170940000000  0.5683950000000  0.4844380000000 1.0
C      1  0.4829020000000  0.5683920000000  0.5155720000000 1.0
C      1  0.4829050000000  0.4316070000000  0.4844290000000 1.0
C      1  0.4709980000000  0.4510970000000  0.4724590000000 1.0
C      1  0.4724610000000  0.4710000000000  0.4510950000000 1.0
C      1  0.4510960000000  0.4724630000000  0.4709970000000 1.0
C      1  0.4709970000000  0.5489010000000  0.5275430000000 1.0
C      1  0.5290000000000  0.5489070000000  0.4724640000000 1.0
C      1  0.5290050000000  0.4510950000000  0.5275340000000 1.0
C      1  0.4724630000000  0.5289980000000  0.5489070000000 1.0
C      1  0.5275360000000  0.5290070000000  0.4510970000000 1.0
C      1  0.5275410000000  0.4709950000000  0.5489010000000 1.0
C      1  0.4510960000000  0.5275350000000  0.5290060000000 1.0
C      1  0.5489020000000  0.5275420000000  0.4709980000000 1.0
C      1  0.5489060000000  0.4724610000000  0.5289990000000 1.0
C      1  0.5290030000000  0.4510990000000  0.4724570000000 1.0
C      1  0.5275370000000  0.4710020000000  0.4510930000000 1.0
C      1  0.5489040000000  0.4724650000000  0.4709940000000 1.0
C      1  0.5290020000000  0.5489030000000  0.5275410000000 1.0
C      1  0.4709950000000  0.5489050000000  0.4724660000000 1.0
C      1  0.4710000000000  0.4510930000000  0.5275360000000 1.0
C      1  0.5275390000000  0.5290000000000  0.5489050000000 1.0
C      1  0.4724590000000  0.5290050000000  0.4510990000000 1.0
C      1  0.4724640000000  0.4709930000000  0.5489030000000 1.0
C      1  0.5489040000000  0.5275370000000  0.5290030000000 1.0
C      1  0.4510940000000  0.5275390000000  0.4710010000000 1.0
C      1  0.4510980000000  0.4724580000000  0.5290020000000 1.0
C      1  0.5471030000000  0.4818470000000  0.5384610000000 1.0
C      1  0.5384620000000  0.5471040000000  0.4818510000000 1.0
C      1  0.4818490000000  0.5384600000000  0.5471050000000 1.0
C      1  0.5471000000000  0.5181560000000  0.4615360000000 1.0
C      1  0.4528990000000  0.5181470000000  0.5384670000000 1.0
C      1  0.4528980000000  0.4818500000000  0.4615360000000 1.0
C      1  0.5384660000000  0.4528980000000  0.5181470000000 1.0
C      1  0.4615370000000  0.4528990000000  0.4818470000000 1.0
C      1  0.4615350000000  0.5470990000000  0.5181560000000 1.0
C      1  0.4818480000000  0.4615390000000  0.4528960000000 1.0
C      1  0.5181540000000  0.4615330000000  0.5470980000000 1.0
C      1  0.5181490000000  0.5384680000000  0.4529010000000 1.0
C      1  0.4529000000000  0.4818440000000  0.5384640000000 1.0
C      1  0.4615340000000  0.5471020000000  0.4818530000000 1.0
C      1  0.5181520000000  0.5384610000000  0.5471040000000 1.0
C      1  0.4528970000000  0.5181530000000  0.4615390000000 1.0
C      1  0.5471020000000  0.5181500000000  0.5384640000000 1.0
C      1  0.5471010000000  0.4818530000000  0.4615330000000 1.0
C      1  0.4615380000000  0.4528960000000  0.5181490000000 1.0
C      1  0.5384650000000  0.4529010000000  0.4818440000000 1.0
C      1  0.5384630000000  0.5471010000000  0.5181530000000 1.0
C      1  0.5181510000000  0.4615400000000  0.4528950000000 1.0
C      1  0.4818510000000  0.4615320000000  0.5470990000000 1.0
C      1  0.4818460000000  0.5384670000000  0.4529020000000 1.0
C      1  0.5159280000000  0.4929770000000  0.5579150000000 1.0
C      1  0.5579160000000  0.5159280000000  0.4929800000000 1.0
C      1  0.4929800000000  0.5579150000000  0.5159300000000 1.0
C      1  0.5159240000000  0.5070240000000  0.4420840000000 1.0
C      1  0.4840760000000  0.5070150000000  0.5579180000000 1.0
C      1  0.4840720000000  0.4929840000000  0.4420840000000 1.0
C      1  0.5579170000000  0.4840750000000  0.5070160000000 1.0
C      1  0.4420840000000  0.4840730000000  0.4929820000000 1.0
C      1  0.4420830000000  0.5159240000000  0.5070220000000 1.0
C      1  0.4929820000000  0.4420850000000  0.4840700000000 1.0
C      1  0.5070210000000  0.4420830000000  0.5159210000000 1.0
C      1  0.5070170000000  0.5579180000000  0.4840780000000 1.0
C      1  0.4840760000000  0.4929760000000  0.5579160000000 1.0
C      1  0.4420830000000  0.5159250000000  0.4929840000000 1.0
C      1  0.5070180000000  0.5579150000000  0.5159300000000 1.0
C      1  0.4840720000000  0.5070230000000  0.4420850000000 1.0
C      1  0.5159280000000  0.5070160000000  0.5579160000000 1.0
C      1  0.5159240000000  0.4929850000000  0.4420820000000 1.0
C      1  0.4420840000000  0.4840720000000  0.5070200000000 1.0
C      1  0.5579170000000  0.4840760000000  0.4929780000000 1.0
C      1  0.5579160000000  0.5159270000000  0.5070180000000 1.0
C      1  0.5070200000000  0.4420850000000  0.4840700000000 1.0
C      1  0.4929830000000  0.4420820000000  0.5159220000000 1.0
C      1  0.4929790000000  0.5579170000000  0.4840790000000 1.0
END
