TITL C-102688-8074-47 0.00490728481987341 1000000 -1599.02845013442 0 0 240 (Oh) n - 1
REM
REM in /home/chem/mssmkc/work/GAP20/Larger-Clusters/Only-C240-new-series
REM
REM
REM
REM
REM
REM ./C.cell (0485df7495ed2a90f93db84a705cd676)
REM
REM compiler GCC version 8.3.0
REM options -cpp -mtune=generic -march=x86-64 -g -O0
REM seed -1803852039 -974727387 -2099940937 -885247818 883268686 104245681 1500705216 593397180 427265758 -1335027524 234811464 -1127393302 -1860960595 -1262552731 236764519 634857313 616670717 -404824379 1768223171 -2005584022 212204147 2015558998 535793516 46813138 -888724232 -637586580 -612914564 -1495592900 -1628510514 1681460833 -1419059518 -97323046 286618686
REM
CELL 1.54180  100.00000  100.00000  100.00000   90.00000   90.00000   90.00000
LATT -1
SFAC C  
C      1  0.4820970000000  0.5370000000000  0.5547910000000 1.0
C      1  0.5369970000000  0.5547920000000  0.4820960000000 1.0
C      1  0.5547920000000  0.4821010000000  0.5369990000000 1.0
C      1  0.5178990000000  0.5370010000000  0.4452090000000 1.0
C      1  0.5179060000000  0.4630010000000  0.5547900000000 1.0
C      1  0.4820980000000  0.4629980000000  0.4452100000000 1.0
C      1  0.4629970000000  0.5547890000000  0.5179030000000 1.0
C      1  0.4630020000000  0.4452070000000  0.4820990000000 1.0
C      1  0.5370040000000  0.4452120000000  0.5179020000000 1.0
C      1  0.4452100000000  0.4820940000000  0.4630010000000 1.0
C      1  0.4452090000000  0.5179000000000  0.5370010000000 1.0
C      1  0.5547890000000  0.5179050000000  0.4629980000000 1.0
C      1  0.4821010000000  0.4629990000000  0.5547910000000 1.0
C      1  0.5370030000000  0.4452110000000  0.4820970000000 1.0
C      1  0.5547900000000  0.5179060000000  0.5369990000000 1.0
C      1  0.5179030000000  0.4630000000000  0.4452090000000 1.0
C      1  0.5179020000000  0.5370020000000  0.5547900000000 1.0
C      1  0.4820940000000  0.5369990000000  0.4452100000000 1.0
C      1  0.4630030000000  0.4452080000000  0.5179040000000 1.0
C      1  0.4629960000000  0.5547880000000  0.4820980000000 1.0
C      1  0.5369980000000  0.5547930000000  0.5179010000000 1.0
C      1  0.4452080000000  0.5178990000000  0.4630010000000 1.0
C      1  0.4452110000000  0.4820950000000  0.5370020000000 1.0
C      1  0.5547910000000  0.4821000000000  0.4629990000000 1.0
C      1  0.4630000000000  0.4820950000000  0.4452110000000 1.0
C      1  0.4820990000000  0.4452080000000  0.4630010000000 1.0
C      1  0.4452110000000  0.4629970000000  0.4820990000000 1.0
C      1  0.5370020000000  0.4821000000000  0.5547900000000 1.0
C      1  0.5369980000000  0.5179040000000  0.4452080000000 1.0
C      1  0.4630000000000  0.5179010000000  0.5547910000000 1.0
C      1  0.5179070000000  0.4452110000000  0.5370000000000 1.0
C      1  0.5178990000000  0.5547910000000  0.4629990000000 1.0
C      1  0.4820950000000  0.5547900000000  0.5370000000000 1.0
C      1  0.5547930000000  0.4630030000000  0.5179020000000 1.0
C      1  0.5547880000000  0.5370030000000  0.4820960000000 1.0
C      1  0.4452080000000  0.5369970000000  0.5179040000000 1.0
C      1  0.4629980000000  0.5179000000000  0.4452100000000 1.0
C      1  0.4820930000000  0.5547890000000  0.4630000000000 1.0
C      1  0.4452070000000  0.5369970000000  0.4820980000000 1.0
C      1  0.5370000000000  0.5179050000000  0.5547890000000 1.0
C      1  0.5370000000000  0.4820990000000  0.4452090000000 1.0
C      1  0.4630020000000  0.4820960000000  0.5547920000000 1.0
C      1  0.5179010000000  0.5547920000000  0.5369990000000 1.0
C      1  0.5179050000000  0.4452100000000  0.4630000000000 1.0
C      1  0.4821010000000  0.4452090000000  0.5370010000000 1.0
C      1  0.5547890000000  0.5370030000000  0.5179010000000 1.0
C      1  0.5547920000000  0.4630030000000  0.4820960000000 1.0
C      1  0.4452120000000  0.4629970000000  0.5179040000000 1.0
C      1  0.4723180000000  0.5588380000000  0.5072480000000 1.0
C      1  0.5588380000000  0.5072510000000  0.4723200000000 1.0
C      1  0.5072510000000  0.4723220000000  0.5588390000000 1.0
C      1  0.5276760000000  0.5588410000000  0.4927510000000 1.0
C      1  0.5276820000000  0.4411620000000  0.5072480000000 1.0
C      1  0.4723240000000  0.4411590000000  0.4927530000000 1.0
C      1  0.4411610000000  0.5072450000000  0.5276800000000 1.0
C      1  0.4411610000000  0.4927480000000  0.4723230000000 1.0
C      1  0.5588400000000  0.4927550000000  0.5276780000000 1.0
C      1  0.4927520000000  0.4723200000000  0.4411610000000 1.0
C      1  0.4927520000000  0.5276790000000  0.5588390000000 1.0
C      1  0.5072450000000  0.5276790000000  0.4411600000000 1.0
C      1  0.4723240000000  0.4411590000000  0.5072490000000 1.0
C      1  0.5588390000000  0.4927550000000  0.4723200000000 1.0
C      1  0.5072480000000  0.5276800000000  0.5588390000000 1.0
C      1  0.5276820000000  0.4411620000000  0.4927520000000 1.0
C      1  0.5276760000000  0.5588410000000  0.5072470000000 1.0
C      1  0.4723180000000  0.5588380000000  0.4927520000000 1.0
C      1  0.4411620000000  0.4927490000000  0.5276800000000 1.0
C      1  0.4411600000000  0.5072450000000  0.4723220000000 1.0
C      1  0.5588390000000  0.5072520000000  0.5276770000000 1.0
C      1  0.4927490000000  0.5276780000000  0.4411610000000 1.0
C      1  0.4927550000000  0.4723210000000  0.5588400000000 1.0
C      1  0.5072480000000  0.4723210000000  0.4411610000000 1.0
C      1  0.4929670000000  0.4312010000000  0.5070380000000 1.0
C      1  0.4312010000000  0.5070330000000  0.4929640000000 1.0
C      1  0.5070360000000  0.4929620000000  0.4312010000000 1.0
C      1  0.5070410000000  0.4312010000000  0.4929630000000 1.0
C      1  0.5070340000000  0.5687990000000  0.5070370000000 1.0
C      1  0.4929590000000  0.5687980000000  0.4929620000000 1.0
C      1  0.5687990000000  0.5070410000000  0.5070360000000 1.0
C      1  0.5687990000000  0.4929660000000  0.4929610000000 1.0
C      1  0.4312020000000  0.4929590000000  0.5070390000000 1.0
C      1  0.4929650000000  0.4929630000000  0.5687990000000 1.0
C      1  0.4929610000000  0.5070360000000  0.4312010000000 1.0
C      1  0.5070390000000  0.5070380000000  0.5687990000000 1.0
C      1  0.4929590000000  0.5687990000000  0.5070370000000 1.0
C      1  0.4312010000000  0.4929590000000  0.4929640000000 1.0
C      1  0.5070350000000  0.5070370000000  0.4312010000000 1.0
C      1  0.5070330000000  0.5687990000000  0.4929620000000 1.0
C      1  0.5070410000000  0.4312020000000  0.5070380000000 1.0
C      1  0.4929660000000  0.4312010000000  0.4929630000000 1.0
C      1  0.5687990000000  0.4929670000000  0.5070360000000 1.0
C      1  0.5687980000000  0.5070410000000  0.4929610000000 1.0
C      1  0.4312010000000  0.5070340000000  0.5070390000000 1.0
C      1  0.4929640000000  0.5070380000000  0.5687990000000 1.0
C      1  0.4929610000000  0.4929620000000  0.4312010000000 1.0
C      1  0.5070390000000  0.4929640000000  0.5687990000000 1.0
C      1  0.4860520000000  0.4415840000000  0.5139520000000 1.0
C      1  0.4415840000000  0.5139480000000  0.4860500000000 1.0
C      1  0.5139510000000  0.4860490000000  0.4415840000000 1.0
C      1  0.5139540000000  0.4415850000000  0.4860490000000 1.0
C      1  0.5139490000000  0.5584160000000  0.5139510000000 1.0
C      1  0.4860450000000  0.5584140000000  0.4860480000000 1.0
C      1  0.5584150000000  0.5139550000000  0.5139500000000 1.0
C      1  0.5584160000000  0.4860520000000  0.4860470000000 1.0
C      1  0.4415860000000  0.4860450000000  0.5139530000000 1.0
C      1  0.4860510000000  0.4860480000000  0.5584160000000 1.0
C      1  0.4860460000000  0.5139500000000  0.4415850000000 1.0
C      1  0.5139520000000  0.5139530000000  0.5584150000000 1.0
C      1  0.4860460000000  0.5584150000000  0.5139510000000 1.0
C      1  0.4415850000000  0.4860450000000  0.4860500000000 1.0
C      1  0.5139490000000  0.5139520000000  0.4415840000000 1.0
C      1  0.5139480000000  0.5584160000000  0.4860480000000 1.0
C      1  0.5139550000000  0.4415860000000  0.5139520000000 1.0
C      1  0.4860510000000  0.4415840000000  0.4860490000000 1.0
C      1  0.5584160000000  0.4860520000000  0.5139500000000 1.0
C      1  0.5584140000000  0.5139550000000  0.4860470000000 1.0
C      1  0.4415840000000  0.5139480000000  0.5139530000000 1.0
C      1  0.4860490000000  0.5139510000000  0.5584160000000 1.0
C      1  0.4860480000000  0.4860470000000  0.4415850000000 1.0
C      1  0.5139540000000  0.4860500000000  0.5584150000000 1.0
C      1  0.4841930000000  0.4841920000000  0.4579440000000 1.0
C      1  0.4841950000000  0.4579430000000  0.4841940000000 1.0
C      1  0.4579440000000  0.4841900000000  0.4841940000000 1.0
C      1  0.5158090000000  0.4841940000000  0.5420560000000 1.0
C      1  0.5158050000000  0.5158080000000  0.4579430000000 1.0
C      1  0.4841930000000  0.5158070000000  0.5420570000000 1.0
C      1  0.5158100000000  0.4579450000000  0.5158070000000 1.0
C      1  0.5158040000000  0.5420570000000  0.4841920000000 1.0
C      1  0.4841910000000  0.5420560000000  0.5158070000000 1.0
C      1  0.5420580000000  0.4841950000000  0.5158060000000 1.0
C      1  0.5420550000000  0.5158090000000  0.4841920000000 1.0
C      1  0.4579430000000  0.5158050000000  0.5158080000000 1.0
C      1  0.4841910000000  0.5158060000000  0.4579440000000 1.0
C      1  0.4841900000000  0.5420550000000  0.4841930000000 1.0
C      1  0.4579420000000  0.5158050000000  0.4841940000000 1.0
C      1  0.5158070000000  0.5158080000000  0.5420560000000 1.0
C      1  0.5158070000000  0.4841930000000  0.4579430000000 1.0
C      1  0.4841950000000  0.4841920000000  0.5420570000000 1.0
C      1  0.5158050000000  0.5420570000000  0.5158060000000 1.0
C      1  0.5158090000000  0.4579440000000  0.4841930000000 1.0
C      1  0.4841960000000  0.4579430000000  0.5158080000000 1.0
C      1  0.5420560000000  0.5158100000000  0.5158060000000 1.0
C      1  0.5420570000000  0.4841950000000  0.4841920000000 1.0
C      1  0.4579450000000  0.4841910000000  0.5158080000000 1.0
C      1  0.4508350000000  0.4508300000000  0.4826100000000 1.0
C      1  0.4508330000000  0.4826050000000  0.4508340000000 1.0
C      1  0.4826100000000  0.4508310000000  0.4508340000000 1.0
C      1  0.5491700000000  0.4508360000000  0.5173910000000 1.0
C      1  0.5491640000000  0.5491700000000  0.4826070000000 1.0
C      1  0.4508310000000  0.5491650000000  0.5173920000000 1.0
C      1  0.5491690000000  0.4826120000000  0.5491660000000 1.0
C      1  0.5491650000000  0.5173940000000  0.4508320000000 1.0
C      1  0.4508330000000  0.5173890000000  0.5491680000000 1.0
C      1  0.5173950000000  0.4508340000000  0.5491670000000 1.0
C      1  0.5173880000000  0.5491680000000  0.4508320000000 1.0
C      1  0.4826070000000  0.5491670000000  0.5491670000000 1.0
C      1  0.4508300000000  0.5491640000000  0.4826090000000 1.0
C      1  0.4508310000000  0.5173880000000  0.4508340000000 1.0
C      1  0.4826050000000  0.5491660000000  0.4508330000000 1.0
C      1  0.5491650000000  0.5491700000000  0.5173900000000 1.0
C      1  0.5491690000000  0.4508350000000  0.4826080000000 1.0
C      1  0.4508360000000  0.4508300000000  0.5173930000000 1.0
C      1  0.5491670000000  0.5173950000000  0.5491660000000 1.0
C      1  0.5491670000000  0.4826110000000  0.4508320000000 1.0
C      1  0.4508350000000  0.4826060000000  0.5491680000000 1.0
C      1  0.5173900000000  0.5491690000000  0.5491660000000 1.0
C      1  0.5173930000000  0.4508330000000  0.4508330000000 1.0
C      1  0.4826120000000  0.4508320000000  0.5491680000000 1.0
C      1  0.4723220000000  0.5072470000000  0.5588400000000 1.0
C      1  0.5072440000000  0.5588390000000  0.4723200000000 1.0
C      1  0.5588410000000  0.4723240000000  0.5072470000000 1.0
C      1  0.5276770000000  0.5072490000000  0.4411600000000 1.0
C      1  0.5276810000000  0.4927540000000  0.5588380000000 1.0
C      1  0.4723200000000  0.4927500000000  0.4411620000000 1.0
C      1  0.4927490000000  0.5588390000000  0.5276790000000 1.0
C      1  0.4927540000000  0.4411600000000  0.4723220000000 1.0
C      1  0.5072520000000  0.4411620000000  0.5276790000000 1.0
C      1  0.4411620000000  0.4723180000000  0.4927530000000 1.0
C      1  0.4411600000000  0.5276760000000  0.5072490000000 1.0
C      1  0.5588370000000  0.5276820000000  0.4927500000000 1.0
C      1  0.4723230000000  0.4927510000000  0.5588400000000 1.0
C      1  0.5072510000000  0.4411610000000  0.4723210000000 1.0
C      1  0.5588380000000  0.5276820000000  0.5072470000000 1.0
C      1  0.5276780000000  0.4927530000000  0.4411600000000 1.0
C      1  0.5276800000000  0.5072500000000  0.5588380000000 1.0
C      1  0.4723190000000  0.5072460000000  0.4411620000000 1.0
C      1  0.4927560000000  0.4411610000000  0.5276800000000 1.0
C      1  0.4927480000000  0.5588380000000  0.4723210000000 1.0
C      1  0.5072460000000  0.5588400000000  0.5276780000000 1.0
C      1  0.4411590000000  0.5276760000000  0.4927530000000 1.0
C      1  0.4411630000000  0.4723180000000  0.5072500000000 1.0
C      1  0.5588400000000  0.4723240000000  0.4927510000000 1.0
C      1  0.4703800000000  0.5490670000000  0.4703840000000 1.0
C      1  0.5490700000000  0.4703860000000  0.4703820000000 1.0
C      1  0.4703860000000  0.4703820000000  0.5490700000000 1.0
C      1  0.5296150000000  0.5490710000000  0.5296160000000 1.0
C      1  0.5296190000000  0.4509330000000  0.4703830000000 1.0
C      1  0.4703870000000  0.4509300000000  0.5296180000000 1.0
C      1  0.4509330000000  0.4703810000000  0.5296180000000 1.0
C      1  0.4509290000000  0.5296140000000  0.4703840000000 1.0
C      1  0.5490680000000  0.5296200000000  0.5296150000000 1.0
C      1  0.5296170000000  0.4703850000000  0.4509310000000 1.0
C      1  0.5296160000000  0.5296190000000  0.5490680000000 1.0
C      1  0.4703800000000  0.5296150000000  0.4509320000000 1.0
C      1  0.4703850000000  0.4509290000000  0.4703840000000 1.0
C      1  0.5490670000000  0.5296190000000  0.4703820000000 1.0
C      1  0.4703830000000  0.5296150000000  0.5490690000000 1.0
C      1  0.5296200000000  0.4509330000000  0.5296160000000 1.0
C      1  0.5296130000000  0.5490700000000  0.4703820000000 1.0
C      1  0.4703810000000  0.5490670000000  0.5296170000000 1.0
C      1  0.4509300000000  0.5296140000000  0.5296180000000 1.0
C      1  0.4509320000000  0.4703800000000  0.4703850000000 1.0
C      1  0.5490710000000  0.4703860000000  0.5296160000000 1.0
C      1  0.5296140000000  0.5296180000000  0.4509300000000 1.0
C      1  0.5296200000000  0.4703850000000  0.5490680000000 1.0
C      1  0.4703840000000  0.4703810000000  0.4509320000000 1.0
C      1  0.5246770000000  0.5359240000000  0.5246780000000 1.0
C      1  0.5359220000000  0.5246810000000  0.5246780000000 1.0
C      1  0.5246780000000  0.5246800000000  0.5359210000000 1.0
C      1  0.4753190000000  0.5359210000000  0.4753220000000 1.0
C      1  0.4753240000000  0.4640770000000  0.5246800000000 1.0
C      1  0.5246800000000  0.4640790000000  0.4753210000000 1.0
C      1  0.4640760000000  0.5246760000000  0.4753220000000 1.0
C      1  0.4640800000000  0.4753200000000  0.5246800000000 1.0
C      1  0.5359230000000  0.4753230000000  0.4753210000000 1.0
C      1  0.4753190000000  0.5246770000000  0.4640780000000 1.0
C      1  0.4753240000000  0.4753200000000  0.5359230000000 1.0
C      1  0.5246790000000  0.4753220000000  0.4640770000000 1.0
C      1  0.5246810000000  0.4640790000000  0.5246780000000 1.0
C      1  0.5359240000000  0.4753240000000  0.5246780000000 1.0
C      1  0.5246810000000  0.4753230000000  0.5359220000000 1.0
C      1  0.4753230000000  0.4640760000000  0.4753220000000 1.0
C      1  0.4753200000000  0.5359210000000  0.5246790000000 1.0
C      1  0.5246760000000  0.5359230000000  0.4753200000000 1.0
C      1  0.4640780000000  0.4753190000000  0.4753220000000 1.0
C      1  0.4640770000000  0.5246770000000  0.5246790000000 1.0
C      1  0.5359200000000  0.5246800000000  0.4753200000000 1.0
C      1  0.4753220000000  0.4753200000000  0.4640790000000 1.0
C      1  0.4753210000000  0.5246780000000  0.5359230000000 1.0
C      1  0.5246760000000  0.5246800000000  0.4640770000000 1.0
END
