TITL C-112676-196-183 -16.0126521949535 1000000 -1795.15744838362 0 0 240 (C1) n - 1
REM
REM in /home/chem/mssmkc/work/GAP20/Larger-Clusters/Only-C240-new-series
REM
REM
REM
REM
REM
REM ./C.cell (c58642faaf353743302a0f2d8ff18644)
REM
REM compiler GCC version 8.3.0
REM options -cpp -mtune=generic -march=x86-64 -g -O0
REM seed -1701305429 -310106230 2019070673 1540659313 2135121743 -732564623 -1530127049 1311735981 352330777 527027311 -1638354258 2088964463 202945603 -39309368 1621418363 406810785 529995093 -458989000 971746838 857288024 -2078489298 1236729880 287963594 1251835763 -64648881 -503139365 2009459302 1954309438 -659054025 -1570295814 -764225450 -976156423 -1420726995
REM
CELL 1.54180  100.00000  100.00000  100.00000   90.00000   90.00000   90.00000
LATT -1
SFAC C  
C      1  0.4929280000000  0.5185900000000  0.5650210000000 1.0
C      1  0.5649570000000  0.4928190000000  0.5185260000000 1.0
C      1  0.5186350000000  0.5652160000000  0.4930190000000 1.0
C      1  0.5067940000000  0.5187970000000  0.4346820000000 1.0
C      1  0.4926850000000  0.4812550000000  0.4343840000000 1.0
C      1  0.5071730000000  0.4803250000000  0.5668100000000 1.0
C      1  0.4354580000000  0.4929240000000  0.4813330000000 1.0
C      1  0.5662660000000  0.5071630000000  0.4801680000000 1.0
C      1  0.4333860000000  0.5071070000000  0.5195690000000 1.0
C      1  0.4804110000000  0.5670320000000  0.5074470000000 1.0
C      1  0.5186440000000  0.4350260000000  0.5069900000000 1.0
C      1  0.4803440000000  0.4329770000000  0.4929010000000 1.0
C      1  0.4927560000000  0.4803800000000  0.5668700000000 1.0
C      1  0.5648310000000  0.5069350000000  0.5185750000000 1.0
C      1  0.5185940000000  0.4347720000000  0.4928690000000 1.0
C      1  0.5067900000000  0.4812600000000  0.4346320000000 1.0
C      1  0.4926890000000  0.5188050000000  0.4344360000000 1.0
C      1  0.5070520000000  0.5186520000000  0.5650390000000 1.0
C      1  0.4354720000000  0.5070350000000  0.4813590000000 1.0
C      1  0.5662950000000  0.4927640000000  0.4801320000000 1.0
C      1  0.4332490000000  0.4926830000000  0.5195150000000 1.0
C      1  0.4804480000000  0.4329940000000  0.5073200000000 1.0
C      1  0.5187260000000  0.5651150000000  0.5071390000000 1.0
C      1  0.4803440000000  0.5669470000000  0.4930350000000 1.0
C      1  0.5307810000000  0.4507730000000  0.4516920000000 1.0
C      1  0.4516230000000  0.5313260000000  0.4510850000000 1.0
C      1  0.4515630000000  0.4513250000000  0.5311270000000 1.0
C      1  0.4689150000000  0.4514680000000  0.5486050000000 1.0
C      1  0.5311510000000  0.5489350000000  0.5482200000000 1.0
C      1  0.4685980000000  0.5491680000000  0.4515920000000 1.0
C      1  0.5481980000000  0.5310020000000  0.5489760000000 1.0
C      1  0.4514400000000  0.4688210000000  0.5484500000000 1.0
C      1  0.5480100000000  0.4686790000000  0.4512640000000 1.0
C      1  0.5487720000000  0.4512550000000  0.4685950000000 1.0
C      1  0.4513950000000  0.5483550000000  0.4691950000000 1.0
C      1  0.5490160000000  0.5481150000000  0.5311040000000 1.0
C      1  0.5308000000000  0.5492350000000  0.4518180000000 1.0
C      1  0.4516280000000  0.4687020000000  0.4510120000000 1.0
C      1  0.4515570000000  0.5485100000000  0.5313230000000 1.0
C      1  0.4688300000000  0.5488960000000  0.5487150000000 1.0
C      1  0.5310010000000  0.4514190000000  0.5481090000000 1.0
C      1  0.4685990000000  0.4508530000000  0.4514760000000 1.0
C      1  0.5485530000000  0.4686530000000  0.5488570000000 1.0
C      1  0.4518420000000  0.5308250000000  0.5485810000000 1.0
C      1  0.5480190000000  0.5313260000000  0.4513550000000 1.0
C      1  0.5487870000000  0.5487110000000  0.4687290000000 1.0
C      1  0.4514100000000  0.4516350000000  0.4690880000000 1.0
C      1  0.5489870000000  0.4517250000000  0.5309240000000 1.0
C      1  0.5282880000000  0.4400090000000  0.4717590000000 1.0
C      1  0.4713910000000  0.5290070000000  0.4395660000000 1.0
C      1  0.4396610000000  0.4708520000000  0.5279080000000 1.0
C      1  0.4720970000000  0.4395230000000  0.5291100000000 1.0
C      1  0.5285970000000  0.5596250000000  0.5280940000000 1.0
C      1  0.4717160000000  0.5606630000000  0.4713400000000 1.0
C      1  0.5280630000000  0.5284830000000  0.5596550000000 1.0
C      1  0.4709580000000  0.4720060000000  0.5603740000000 1.0
C      1  0.5280110000000  0.4712250000000  0.4402380000000 1.0
C      1  0.5603350000000  0.4710460000000  0.4714820000000 1.0
C      1  0.4410130000000  0.5280760000000  0.4718070000000 1.0
C      1  0.5595840000000  0.5279350000000  0.5284970000000 1.0
C      1  0.5283100000000  0.5599520000000  0.4719100000000 1.0
C      1  0.4713880000000  0.4710420000000  0.4394900000000 1.0
C      1  0.4399860000000  0.5288080000000  0.5280310000000 1.0
C      1  0.4717880000000  0.5609140000000  0.5292280000000 1.0
C      1  0.5282750000000  0.4409010000000  0.5279260000000 1.0
C      1  0.4717280000000  0.4393040000000  0.4711940000000 1.0
C      1  0.5288740000000  0.4716740000000  0.5605430000000 1.0
C      1  0.4718830000000  0.5281680000000  0.5593860000000 1.0
C      1  0.5280190000000  0.5288130000000  0.4403150000000 1.0
C      1  0.5603270000000  0.5289050000000  0.4715770000000 1.0
C      1  0.4410250000000  0.4719090000000  0.4717420000000 1.0
C      1  0.5599080000000  0.4717320000000  0.5284060000000 1.0
C      1  0.5140000000000  0.5302860000000  0.5603500000000 1.0
C      1  0.5602350000000  0.5138680000000  0.5302590000000 1.0
C      1  0.5303610000000  0.5603470000000  0.5140290000000 1.0
C      1  0.4855580000000  0.5304600000000  0.4391010000000 1.0
C      1  0.5138770000000  0.4696680000000  0.4395390000000 1.0
C      1  0.4851200000000  0.4701170000000  0.5613990000000 1.0
C      1  0.4401950000000  0.5140150000000  0.4698090000000 1.0
C      1  0.5608910000000  0.4852200000000  0.4697060000000 1.0
C      1  0.4386740000000  0.4850220000000  0.5297810000000 1.0
C      1  0.4699830000000  0.5614080000000  0.4854960000000 1.0
C      1  0.5301720000000  0.4393310000000  0.4858360000000 1.0
C      1  0.4701980000000  0.4384880000000  0.5149520000000 1.0
C      1  0.5147170000000  0.4699500000000  0.5612890000000 1.0
C      1  0.5605450000000  0.4858180000000  0.5302020000000 1.0
C      1  0.5301920000000  0.4399050000000  0.5138820000000 1.0
C      1  0.4855530000000  0.4695880000000  0.4390200000000 1.0
C      1  0.5138840000000  0.5303750000000  0.4396190000000 1.0
C      1  0.4859430000000  0.5301390000000  0.5603710000000 1.0
C      1  0.4401940000000  0.4859740000000  0.4697700000000 1.0
C      1  0.5608720000000  0.5147350000000  0.4697600000000 1.0
C      1  0.4389990000000  0.5146590000000  0.5298600000000 1.0
C      1  0.4700040000000  0.4385370000000  0.4853510000000 1.0
C      1  0.5302090000000  0.5606380000000  0.4859850000000 1.0
C      1  0.4700380000000  0.5616740000000  0.5150520000000 1.0
C      1  0.5544590000000  0.4630760000000  0.5378120000000 1.0
C      1  0.5377020000000  0.5545940000000  0.4632030000000 1.0
C      1  0.4632030000000  0.5376080000000  0.5541090000000 1.0
C      1  0.4461300000000  0.4631690000000  0.4622870000000 1.0
C      1  0.5541740000000  0.5369920000000  0.4622540000000 1.0
C      1  0.4461090000000  0.5366860000000  0.5375340000000 1.0
C      1  0.4624380000000  0.5545610000000  0.5371550000000 1.0
C      1  0.5377730000000  0.4461610000000  0.5365390000000 1.0
C      1  0.4622710000000  0.4455000000000  0.4633000000000 1.0
C      1  0.5364550000000  0.5381510000000  0.4460600000000 1.0
C      1  0.4629540000000  0.4617870000000  0.4454540000000 1.0
C      1  0.5367790000000  0.4622690000000  0.5542690000000 1.0
C      1  0.5542160000000  0.5365440000000  0.5379730000000 1.0
C      1  0.5376820000000  0.4453850000000  0.4630630000000 1.0
C      1  0.4630330000000  0.4625780000000  0.5541740000000 1.0
C      1  0.4461160000000  0.5368360000000  0.4623680000000 1.0
C      1  0.5541690000000  0.4629840000000  0.4621440000000 1.0
C      1  0.4458520000000  0.4629330000000  0.5373500000000 1.0
C      1  0.4626680000000  0.4457420000000  0.5370190000000 1.0
C      1  0.5380420000000  0.5541560000000  0.5366740000000 1.0
C      1  0.4622620000000  0.5544950000000  0.4634230000000 1.0
C      1  0.5364420000000  0.4618690000000  0.4459590000000 1.0
C      1  0.4629540000000  0.5382490000000  0.4455460000000 1.0
C      1  0.5366770000000  0.5379170000000  0.5542210000000 1.0
C      1  0.5143220000000  0.4926850000000  0.4313940000000 1.0
C      1  0.4326540000000  0.5142540000000  0.4933940000000 1.0
C      1  0.4948420000000  0.4301030000000  0.5072400000000 1.0
C      1  0.4928150000000  0.4947710000000  0.5697760000000 1.0
C      1  0.5142790000000  0.5065950000000  0.5677950000000 1.0
C      1  0.4852210000000  0.5073880000000  0.4310050000000 1.0
C      1  0.5674540000000  0.5141670000000  0.5064870000000 1.0
C      1  0.4304090000000  0.4927580000000  0.5051120000000 1.0
C      1  0.5692400000000  0.4927500000000  0.4945480000000 1.0
C      1  0.5065360000000  0.4319380000000  0.4856960000000 1.0
C      1  0.4947580000000  0.5698650000000  0.4929960000000 1.0
C      1  0.5066980000000  0.5678940000000  0.5144130000000 1.0
C      1  0.5143240000000  0.5073800000000  0.4314150000000 1.0
C      1  0.4325850000000  0.4856700000000  0.4933350000000 1.0
C      1  0.4948360000000  0.5698770000000  0.5073770000000 1.0
C      1  0.4856910000000  0.5065470000000  0.5677430000000 1.0
C      1  0.5072010000000  0.4947480000000  0.5697380000000 1.0
C      1  0.4852190000000  0.4926820000000  0.4309830000000 1.0
C      1  0.5676020000000  0.4856460000000  0.5064100000000 1.0
C      1  0.4304970000000  0.5071430000000  0.5051610000000 1.0
C      1  0.5691900000000  0.5071270000000  0.4945900000000 1.0
C      1  0.5065540000000  0.5679830000000  0.4858510000000 1.0
C      1  0.4947480000000  0.4300200000000  0.4928520000000 1.0
C      1  0.5066450000000  0.4322860000000  0.5142950000000 1.0
C      1  0.5075300000000  0.5419390000000  0.5540450000000 1.0
C      1  0.5539640000000  0.5073780000000  0.5419260000000 1.0
C      1  0.5419620000000  0.5539930000000  0.5075010000000 1.0
C      1  0.4920820000000  0.5420480000000  0.4455730000000 1.0
C      1  0.5072850000000  0.4580400000000  0.4458730000000 1.0
C      1  0.4922520000000  0.4585480000000  0.5547550000000 1.0
C      1  0.4462940000000  0.5075880000000  0.4580190000000 1.0
C      1  0.5539400000000  0.4922730000000  0.4582330000000 1.0
C      1  0.4453140000000  0.4921460000000  0.5413440000000 1.0
C      1  0.4585670000000  0.5544970000000  0.4926040000000 1.0
C      1  0.5418880000000  0.4455830000000  0.4922210000000 1.0
C      1  0.4586350000000  0.4451290000000  0.5078130000000 1.0
C      1  0.5076070000000  0.4585360000000  0.5543960000000 1.0
C      1  0.5543440000000  0.4922510000000  0.5419340000000 1.0
C      1  0.5418870000000  0.4460290000000  0.5073370000000 1.0
C      1  0.4920760000000  0.4579830000000  0.4454620000000 1.0
C      1  0.5072950000000  0.5419880000000  0.4459820000000 1.0
C      1  0.4924090000000  0.5419360000000  0.5543750000000 1.0
C      1  0.4462960000000  0.4924260000000  0.4579990000000 1.0
C      1  0.5539380000000  0.5077140000000  0.4582580000000 1.0
C      1  0.4457130000000  0.5074860000000  0.5413490000000 1.0
C      1  0.4586100000000  0.4454560000000  0.4924690000000 1.0
C      1  0.5419300000000  0.5543840000000  0.4923710000000 1.0
C      1  0.4585630000000  0.5548480000000  0.5079630000000 1.0
C      1  0.5346120000000  0.4940470000000  0.5683570000000 1.0
C      1  0.5681780000000  0.5345130000000  0.4940260000000 1.0
C      1  0.4942430000000  0.5685190000000  0.5348230000000 1.0
C      1  0.4707470000000  0.4928910000000  0.4323200000000 1.0
C      1  0.5287800000000  0.5071600000000  0.4329340000000 1.0
C      1  0.4715730000000  0.5056780000000  0.5659970000000 1.0
C      1  0.4320040000000  0.5346610000000  0.5059550000000 1.0
C      1  0.5662000000000  0.4714870000000  0.5056390000000 1.0
C      1  0.4342780000000  0.4715550000000  0.4942070000000 1.0
C      1  0.5056710000000  0.5664550000000  0.4717140000000 1.0
C      1  0.4939060000000  0.4312950000000  0.4653930000000 1.0
C      1  0.5058200000000  0.4340950000000  0.5284040000000 1.0
C      1  0.5284180000000  0.5057900000000  0.5662180000000 1.0
C      1  0.5682750000000  0.4653500000000  0.4938590000000 1.0
C      1  0.4942410000000  0.4317310000000  0.5348160000000 1.0
C      1  0.4707490000000  0.5071780000000  0.4323420000000 1.0
C      1  0.5287780000000  0.4928980000000  0.4329140000000 1.0
C      1  0.4652120000000  0.4940600000000  0.5682910000000 1.0
C      1  0.4318530000000  0.4651650000000  0.5057890000000 1.0
C      1  0.5660160000000  0.5283200000000  0.5057620000000 1.0
C      1  0.4343510000000  0.5283600000000  0.4943090000000 1.0
C      1  0.5056550000000  0.4334830000000  0.4715570000000 1.0
C      1  0.4939200000000  0.5686580000000  0.4655590000000 1.0
C      1  0.5059360000000  0.5663010000000  0.5285560000000 1.0
C      1  0.4624570000000  0.4839110000000  0.5607040000000 1.0
C      1  0.5610080000000  0.4626340000000  0.4834630000000 1.0
C      1  0.4836150000000  0.5612680000000  0.4628150000000 1.0
C      1  0.5354740000000  0.4835850000000  0.4400040000000 1.0
C      1  0.4639970000000  0.5165740000000  0.4393230000000 1.0
C      1  0.5350080000000  0.5160170000000  0.5596600000000 1.0
C      1  0.4393300000000  0.4623460000000  0.5160050000000 1.0
C      1  0.5595850000000  0.5349220000000  0.5160540000000 1.0
C      1  0.4411050000000  0.5349700000000  0.4842740000000 1.0
C      1  0.5161570000000  0.5596740000000  0.5350870000000 1.0
C      1  0.4840170000000  0.4392080000000  0.5375970000000 1.0
C      1  0.5157780000000  0.4401100000000  0.4648910000000 1.0
C      1  0.4649970000000  0.5157010000000  0.5591680000000 1.0
C      1  0.5609940000000  0.5372810000000  0.4835850000000 1.0
C      1  0.4836180000000  0.4387140000000  0.4626550000000 1.0
C      1  0.5354780000000  0.5164520000000  0.4400500000000 1.0
C      1  0.4639950000000  0.4834780000000  0.4392780000000 1.0
C      1  0.5373490000000  0.4836090000000  0.5611450000000 1.0
C      1  0.4395090000000  0.5373750000000  0.5161800000000 1.0
C      1  0.5597800000000  0.4648310000000  0.5159100000000 1.0
C      1  0.4411060000000  0.4649860000000  0.4841910000000 1.0
C      1  0.5158610000000  0.4409650000000  0.5349070000000 1.0
C      1  0.4837770000000  0.5613800000000  0.5376430000000 1.0
C      1  0.5158020000000  0.5598590000000  0.4650380000000 1.0
C      1  0.4826650000000  0.5512420000000  0.4519830000000 1.0
C      1  0.4517770000000  0.4829270000000  0.5504710000000 1.0
C      1  0.5510050000000  0.4518030000000  0.4826410000000 1.0
C      1  0.5168680000000  0.5510300000000  0.5470770000000 1.0
C      1  0.4830230000000  0.4494420000000  0.5482740000000 1.0
C      1  0.5164750000000  0.4488400000000  0.4528800000000 1.0
C      1  0.5470770000000  0.4829620000000  0.4492960000000 1.0
C      1  0.4526290000000  0.5171040000000  0.4488220000000 1.0
C      1  0.5470060000000  0.5167140000000  0.5510280000000 1.0
C      1  0.4495350000000  0.4516410000000  0.5170220000000 1.0
C      1  0.5510330000000  0.5469620000000  0.5168080000000 1.0
C      1  0.4496380000000  0.5471520000000  0.4835390000000 1.0
C      1  0.4826640000000  0.4487710000000  0.4518520000000 1.0
C      1  0.4529560000000  0.5164750000000  0.5504000000000 1.0
C      1  0.5510170000000  0.5481350000000  0.4827750000000 1.0
C      1  0.5166560000000  0.4495890000000  0.5470330000000 1.0
C      1  0.4828870000000  0.5511640000000  0.5482790000000 1.0
C      1  0.5164940000000  0.5511640000000  0.4530100000000 1.0
C      1  0.5470800000000  0.5170490000000  0.4493460000000 1.0
C      1  0.4526310000000  0.4829290000000  0.4487790000000 1.0
C      1  0.5481080000000  0.4827040000000  0.5510850000000 1.0
C      1  0.4495600000000  0.5481970000000  0.5172180000000 1.0
C      1  0.5510470000000  0.4529040000000  0.5166230000000 1.0
C      1  0.4496530000000  0.4528070000000  0.4834320000000 1.0
END
