TITL C-112675-8135-193 -1.08843665396521 1000000 -1741.25741298493 0 0 240 (Td) n - 1
REM
REM in /home/chem/mssmkc/work/GAP20/Larger-Clusters/Only-C240-new-series
REM
REM
REM
REM
REM
REM ./C.cell (c58642faaf353743302a0f2d8ff18644)
REM
REM compiler GCC version 8.3.0
REM options -cpp -mtune=generic -march=x86-64 -g -O0
REM seed -148226376 586931027 2033727956 -450824916 135571015 833624383 -501607040 -2113653307 66213270 -602077461 1959073017 -1826136496 410591085 821272347 1669690656 809054076 -1533952086 1119505787 604531347 -1339931264 1570287273 183882885 227685841 831899713 -483063350 2108090400 -276604633 1557544457 765381156 -714962776 -2062958696 -1137755306 -1795381342
REM
CELL 1.54180  100.00000  100.00000  100.00000   90.00000   90.00000   90.00000
LATT -1
SFAC C  
C      1  0.5352770000000  0.5170230000000  0.4304700000000 1.0
C      1  0.4304660000000  0.5352710000000  0.5170180000000 1.0
C      1  0.5170220000000  0.4304690000000  0.5352750000000 1.0
C      1  0.4647220000000  0.5170250000000  0.5695290000000 1.0
C      1  0.5352670000000  0.4829790000000  0.5695350000000 1.0
C      1  0.4647330000000  0.4829740000000  0.4304660000000 1.0
C      1  0.5695330000000  0.5352730000000  0.4829800000000 1.0
C      1  0.4304700000000  0.4647260000000  0.4829720000000 1.0
C      1  0.5695310000000  0.4647290000000  0.5170300000000 1.0
C      1  0.4829800000000  0.4304670000000  0.4647280000000 1.0
C      1  0.5170250000000  0.5695310000000  0.4647270000000 1.0
C      1  0.4829720000000  0.5695330000000  0.5352690000000 1.0
C      1  0.4304650000000  0.5170230000000  0.5352670000000 1.0
C      1  0.5170280000000  0.5352710000000  0.4304680000000 1.0
C      1  0.5352720000000  0.4304690000000  0.5170280000000 1.0
C      1  0.5695340000000  0.5170240000000  0.4647320000000 1.0
C      1  0.5695300000000  0.4829780000000  0.5352780000000 1.0
C      1  0.4304710000000  0.4829740000000  0.4647230000000 1.0
C      1  0.4829700000000  0.5352740000000  0.5695300000000 1.0
C      1  0.4829820000000  0.4647250000000  0.4304680000000 1.0
C      1  0.5170190000000  0.4647300000000  0.5695340000000 1.0
C      1  0.4647300000000  0.4304670000000  0.4829750000000 1.0
C      1  0.4647250000000  0.5695320000000  0.5170190000000 1.0
C      1  0.5352720000000  0.5695320000000  0.4829770000000 1.0
C      1  0.4259390000000  0.5124090000000  0.5228620000000 1.0
C      1  0.5228680000000  0.4259420000000  0.5124140000000 1.0
C      1  0.5124150000000  0.5228660000000  0.4259410000000 1.0
C      1  0.5740600000000  0.5124110000000  0.4771380000000 1.0
C      1  0.4259430000000  0.4875880000000  0.4771270000000 1.0
C      1  0.5740570000000  0.4875920000000  0.5228730000000 1.0
C      1  0.4771350000000  0.4259400000000  0.4875900000000 1.0
C      1  0.5228670000000  0.5740590000000  0.4875900000000 1.0
C      1  0.4771300000000  0.5740590000000  0.5124060000000 1.0
C      1  0.4875840000000  0.5228690000000  0.5740570000000 1.0
C      1  0.5124050000000  0.4771350000000  0.5740600000000 1.0
C      1  0.4875960000000  0.4771300000000  0.4259410000000 1.0
C      1  0.5228730000000  0.5124090000000  0.4259430000000 1.0
C      1  0.5124100000000  0.4259420000000  0.5228710000000 1.0
C      1  0.4259400000000  0.5228670000000  0.5124040000000 1.0
C      1  0.4771270000000  0.5124120000000  0.5740570000000 1.0
C      1  0.4771380000000  0.4875870000000  0.4259400000000 1.0
C      1  0.5228620000000  0.4875920000000  0.5740610000000 1.0
C      1  0.4875930000000  0.4259400000000  0.4771340000000 1.0
C      1  0.4875870000000  0.5740590000000  0.5228650000000 1.0
C      1  0.5124100000000  0.5740580000000  0.4771310000000 1.0
C      1  0.5740590000000  0.5228690000000  0.4875950000000 1.0
C      1  0.5740580000000  0.4771340000000  0.5124160000000 1.0
C      1  0.4259430000000  0.4771310000000  0.4875850000000 1.0
C      1  0.5474870000000  0.5376970000000  0.4723330000000 1.0
C      1  0.4723260000000  0.5474860000000  0.5376930000000 1.0
C      1  0.5376940000000  0.4723320000000  0.5474890000000 1.0
C      1  0.4525120000000  0.5376960000000  0.5276650000000 1.0
C      1  0.5474840000000  0.4623050000000  0.5276750000000 1.0
C      1  0.4525170000000  0.4623020000000  0.4723280000000 1.0
C      1  0.5276720000000  0.5474850000000  0.4623040000000 1.0
C      1  0.4723340000000  0.4525130000000  0.4623030000000 1.0
C      1  0.5276680000000  0.4525160000000  0.5377000000000 1.0
C      1  0.4623070000000  0.4723280000000  0.4525130000000 1.0
C      1  0.5377000000000  0.5276690000000  0.4525170000000 1.0
C      1  0.4622990000000  0.5276710000000  0.5474820000000 1.0
C      1  0.4723260000000  0.5376970000000  0.5474820000000 1.0
C      1  0.5376980000000  0.5474850000000  0.4723320000000 1.0
C      1  0.5474830000000  0.4723320000000  0.5377010000000 1.0
C      1  0.5276730000000  0.5376960000000  0.4525160000000 1.0
C      1  0.5276670000000  0.4623050000000  0.5474880000000 1.0
C      1  0.4723340000000  0.4623020000000  0.4525140000000 1.0
C      1  0.4623000000000  0.5474850000000  0.5276660000000 1.0
C      1  0.4623060000000  0.4525130000000  0.4723290000000 1.0
C      1  0.5376950000000  0.4525160000000  0.5276740000000 1.0
C      1  0.4525180000000  0.4723280000000  0.4623010000000 1.0
C      1  0.4525110000000  0.5276700000000  0.5376920000000 1.0
C      1  0.5474880000000  0.5276700000000  0.4623060000000 1.0
C      1  0.4962500000000  0.5665590000000  0.5142280000000 1.0
C      1  0.5142250000000  0.4962550000000  0.5665600000000 1.0
C      1  0.5665590000000  0.5142310000000  0.4962570000000 1.0
C      1  0.5037470000000  0.5665590000000  0.4857680000000 1.0
C      1  0.4962550000000  0.4334410000000  0.4857710000000 1.0
C      1  0.5037480000000  0.4334420000000  0.5142320000000 1.0
C      1  0.4857750000000  0.4962500000000  0.4334400000000 1.0
C      1  0.5142350000000  0.5037460000000  0.4334420000000 1.0
C      1  0.4857650000000  0.5037490000000  0.5665580000000 1.0
C      1  0.4334410000000  0.5142290000000  0.5037420000000 1.0
C      1  0.5665590000000  0.4857710000000  0.5037530000000 1.0
C      1  0.4334420000000  0.4857690000000  0.4962480000000 1.0
C      1  0.5142290000000  0.5665590000000  0.4962520000000 1.0
C      1  0.5665580000000  0.4962540000000  0.5142350000000 1.0
C      1  0.4962470000000  0.5142320000000  0.5665580000000 1.0
C      1  0.4857680000000  0.5665590000000  0.5037450000000 1.0
C      1  0.4857710000000  0.4334410000000  0.4962530000000 1.0
C      1  0.5142310000000  0.4334410000000  0.5037500000000 1.0
C      1  0.4334420000000  0.4962510000000  0.4857650000000 1.0
C      1  0.4334400000000  0.5037470000000  0.5142250000000 1.0
C      1  0.5665600000000  0.5037480000000  0.4857750000000 1.0
C      1  0.5037520000000  0.5142280000000  0.4334410000000 1.0
C      1  0.5037430000000  0.4857720000000  0.5665600000000 1.0
C      1  0.4962580000000  0.4857680000000  0.4334410000000 1.0
C      1  0.4515910000000  0.4925990000000  0.5280640000000 1.0
C      1  0.5280690000000  0.4515940000000  0.4926030000000 1.0
C      1  0.4926030000000  0.5280660000000  0.4515920000000 1.0
C      1  0.5484090000000  0.4926000000000  0.4719360000000 1.0
C      1  0.4515950000000  0.5073990000000  0.4719290000000 1.0
C      1  0.5484040000000  0.5074020000000  0.5280710000000 1.0
C      1  0.4719330000000  0.4515930000000  0.5074000000000 1.0
C      1  0.5280660000000  0.5484070000000  0.5074010000000 1.0
C      1  0.4719320000000  0.5484060000000  0.4925960000000 1.0
C      1  0.5073960000000  0.5280690000000  0.5484060000000 1.0
C      1  0.4925960000000  0.4719340000000  0.5484070000000 1.0
C      1  0.5074050000000  0.4719310000000  0.4515950000000 1.0
C      1  0.5280710000000  0.4925990000000  0.4515960000000 1.0
C      1  0.4925980000000  0.4515940000000  0.5280680000000 1.0
C      1  0.4515930000000  0.5280660000000  0.4925950000000 1.0
C      1  0.4719290000000  0.4926000000000  0.5484050000000 1.0
C      1  0.4719360000000  0.5073990000000  0.4515910000000 1.0
C      1  0.5280640000000  0.5074020000000  0.5484090000000 1.0
C      1  0.5074040000000  0.4515930000000  0.4719340000000 1.0
C      1  0.5073970000000  0.5484080000000  0.5280670000000 1.0
C      1  0.4926010000000  0.5484060000000  0.4719310000000 1.0
C      1  0.5484060000000  0.5280690000000  0.5074030000000 1.0
C      1  0.5484080000000  0.4719330000000  0.4926040000000 1.0
C      1  0.4515930000000  0.4719320000000  0.5073980000000 1.0
C      1  0.5031270000000  0.4620190000000  0.5479840000000 1.0
C      1  0.5479850000000  0.5031300000000  0.4620220000000 1.0
C      1  0.4620170000000  0.5479820000000  0.5031260000000 1.0
C      1  0.4968740000000  0.4620170000000  0.4520180000000 1.0
C      1  0.5031330000000  0.5379810000000  0.4520170000000 1.0
C      1  0.4968650000000  0.5379830000000  0.5479810000000 1.0
C      1  0.4520150000000  0.5031300000000  0.5379780000000 1.0
C      1  0.5479800000000  0.4968720000000  0.5379860000000 1.0
C      1  0.4520210000000  0.4968680000000  0.4620150000000 1.0
C      1  0.5379810000000  0.5479830000000  0.4968710000000 1.0
C      1  0.4620190000000  0.4520170000000  0.4968680000000 1.0
C      1  0.5379830000000  0.4520180000000  0.5031340000000 1.0
C      1  0.5479830000000  0.4620190000000  0.5031350000000 1.0
C      1  0.4620140000000  0.5031310000000  0.5479790000000 1.0
C      1  0.5031320000000  0.5479810000000  0.4620170000000 1.0
C      1  0.4520190000000  0.4620170000000  0.4968670000000 1.0
C      1  0.4520170000000  0.5379810000000  0.5031260000000 1.0
C      1  0.5479820000000  0.5379830000000  0.4968720000000 1.0
C      1  0.5379850000000  0.5031300000000  0.4520200000000 1.0
C      1  0.5379780000000  0.4968720000000  0.5479850000000 1.0
C      1  0.4620220000000  0.4968680000000  0.4520150000000 1.0
C      1  0.4968660000000  0.5479830000000  0.5379800000000 1.0
C      1  0.4968730000000  0.4520170000000  0.4620190000000 1.0
C      1  0.5031280000000  0.4520190000000  0.5379830000000 1.0
C      1  0.5573730000000  0.4832000000000  0.4931420000000 1.0
C      1  0.4931370000000  0.5573720000000  0.4831970000000 1.0
C      1  0.4831950000000  0.4931380000000  0.5573710000000 1.0
C      1  0.4426270000000  0.4831980000000  0.5068590000000 1.0
C      1  0.5573720000000  0.5168030000000  0.5068670000000 1.0
C      1  0.4426280000000  0.5168000000000  0.4931320000000 1.0
C      1  0.5068610000000  0.5573730000000  0.5168000000000 1.0
C      1  0.4931370000000  0.4426280000000  0.5168020000000 1.0
C      1  0.5068650000000  0.4426270000000  0.4832010000000 1.0
C      1  0.5168060000000  0.4931360000000  0.4426290000000 1.0
C      1  0.4832030000000  0.5068610000000  0.4426260000000 1.0
C      1  0.5167970000000  0.5068650000000  0.5573740000000 1.0
C      1  0.4931330000000  0.4832000000000  0.5573720000000 1.0
C      1  0.4831980000000  0.5573720000000  0.4931340000000 1.0
C      1  0.5573740000000  0.4931380000000  0.4832030000000 1.0
C      1  0.5068670000000  0.4831970000000  0.4426280000000 1.0
C      1  0.5068580000000  0.5168030000000  0.5573730000000 1.0
C      1  0.4931410000000  0.5168000000000  0.4426270000000 1.0
C      1  0.5168000000000  0.5573730000000  0.5068630000000 1.0
C      1  0.5168030000000  0.4426280000000  0.4931400000000 1.0
C      1  0.4831990000000  0.4426270000000  0.5068630000000 1.0
C      1  0.4426260000000  0.4931360000000  0.5167970000000 1.0
C      1  0.4426290000000  0.5068610000000  0.4831940000000 1.0
C      1  0.5573710000000  0.5068640000000  0.5168050000000 1.0
C      1  0.5283880000000  0.5180840000000  0.5386120000000 1.0
C      1  0.5386080000000  0.5283920000000  0.5180850000000 1.0
C      1  0.5180800000000  0.5386110000000  0.5283910000000 1.0
C      1  0.4716120000000  0.5180810000000  0.4613870000000 1.0
C      1  0.5283940000000  0.4819170000000  0.4613930000000 1.0
C      1  0.4716070000000  0.4819180000000  0.5386080000000 1.0
C      1  0.4613910000000  0.5283900000000  0.4819140000000 1.0
C      1  0.5386120000000  0.4716090000000  0.4819210000000 1.0
C      1  0.4613890000000  0.4716090000000  0.5180810000000 1.0
C      1  0.4819190000000  0.5386090000000  0.4716070000000 1.0
C      1  0.5180860000000  0.4613900000000  0.4716120000000 1.0
C      1  0.4819160000000  0.4613900000000  0.5283910000000 1.0
C      1  0.5386070000000  0.5180840000000  0.5283930000000 1.0
C      1  0.5180790000000  0.5283920000000  0.5386100000000 1.0
C      1  0.5283890000000  0.5386110000000  0.5180840000000 1.0
C      1  0.4613920000000  0.5180810000000  0.4716060000000 1.0
C      1  0.4613880000000  0.4819170000000  0.5283880000000 1.0
C      1  0.5386120000000  0.4819170000000  0.4716120000000 1.0
C      1  0.4819200000000  0.5283890000000  0.4613880000000 1.0
C      1  0.4819150000000  0.4716100000000  0.5386090000000 1.0
C      1  0.5180860000000  0.4716080000000  0.4613920000000 1.0
C      1  0.4716100000000  0.5386090000000  0.4819140000000 1.0
C      1  0.4716080000000  0.4613900000000  0.5180820000000 1.0
C      1  0.5283930000000  0.4613900000000  0.4819200000000 1.0
C      1  0.5296880000000  0.4612260000000  0.5757630000000 1.0
C      1  0.5757620000000  0.5296940000000  0.4612290000000 1.0
C      1  0.4612200000000  0.5757590000000  0.5296880000000 1.0
C      1  0.4703130000000  0.4612210000000  0.4242400000000 1.0
C      1  0.5296980000000  0.5387750000000  0.4242420000000 1.0
C      1  0.4703000000000  0.5387780000000  0.5757560000000 1.0
C      1  0.4242370000000  0.5296930000000  0.5387700000000 1.0
C      1  0.5757570000000  0.4703090000000  0.5387830000000 1.0
C      1  0.4242440000000  0.4703040000000  0.4612190000000 1.0
C      1  0.5387770000000  0.5757590000000  0.4703080000000 1.0
C      1  0.4612270000000  0.4242390000000  0.4703060000000 1.0
C      1  0.5387750000000  0.4242420000000  0.5296980000000 1.0
C      1  0.5757580000000  0.4612260000000  0.5297000000000 1.0
C      1  0.4612180000000  0.5296940000000  0.5757560000000 1.0
C      1  0.5296950000000  0.5757590000000  0.4612240000000 1.0
C      1  0.4242440000000  0.4612220000000  0.4703020000000 1.0
C      1  0.4242380000000  0.5387760000000  0.5296860000000 1.0
C      1  0.5757610000000  0.5387770000000  0.4703110000000 1.0
C      1  0.5387810000000  0.5296920000000  0.4242430000000 1.0
C      1  0.5387710000000  0.4703100000000  0.5757630000000 1.0
C      1  0.4612300000000  0.4703040000000  0.4242390000000 1.0
C      1  0.4703030000000  0.5757600000000  0.5387720000000 1.0
C      1  0.4703110000000  0.4242390000000  0.4612240000000 1.0
C      1  0.5296920000000  0.4242420000000  0.5387810000000 1.0
C      1  0.4620240000000  0.4441060000000  0.4844460000000 1.0
C      1  0.4844520000000  0.4620200000000  0.4441070000000 1.0
C      1  0.4441110000000  0.4844450000000  0.4620180000000 1.0
C      1  0.5379780000000  0.4441090000000  0.5155570000000 1.0
C      1  0.4620190000000  0.5558920000000  0.5155490000000 1.0
C      1  0.5379780000000  0.5558930000000  0.4844480000000 1.0
C      1  0.5155500000000  0.4620240000000  0.5558950000000 1.0
C      1  0.4844420000000  0.5379800000000  0.5558900000000 1.0
C      1  0.5155560000000  0.5379770000000  0.4441080000000 1.0
C      1  0.5558900000000  0.4844490000000  0.5379830000000 1.0
C      1  0.4441040000000  0.5155530000000  0.5379740000000 1.0
C      1  0.5558950000000  0.5155530000000  0.4620250000000 1.0
C      1  0.4844510000000  0.4441060000000  0.4620220000000 1.0
C      1  0.4441090000000  0.4620200000000  0.4844440000000 1.0
C      1  0.4620260000000  0.4844450000000  0.4441050000000 1.0
C      1  0.5155510000000  0.4441090000000  0.5379810000000 1.0
C      1  0.5155550000000  0.5558920000000  0.4620210000000 1.0
C      1  0.4844430000000  0.5558930000000  0.5379760000000 1.0
C      1  0.5558920000000  0.4620230000000  0.5155580000000 1.0
C      1  0.5558930000000  0.5379790000000  0.4844500000000 1.0
C      1  0.4441060000000  0.5379780000000  0.5155480000000 1.0
C      1  0.5379740000000  0.4844490000000  0.5558960000000 1.0
C      1  0.5379820000000  0.5155520000000  0.4441100000000 1.0
C      1  0.4620170000000  0.5155540000000  0.5558890000000 1.0
END
