TITL C-112675-8135-148 0.0653078385154859 1000000 -1751.08474026393 0 0 240 (Td) n - 1
REM
REM in /home/chem/mssmkc/work/GAP20/Larger-Clusters/Only-C240-new-series
REM
REM
REM
REM
REM
REM ./C.cell (db83009d4c1eceb3c2f0bef44cf3317a)
REM
REM compiler GCC version 8.3.0
REM options -cpp -mtune=generic -march=x86-64 -g -O0
REM seed 2065241820 -1879217661 610652306 -1532393910 -941113445 1281540116 1012011844 -1558971413 -2090529698 -1251161226 -1129870965 1444194825 -2025597338 937502304 403498825 -1635425499 1205997590 -692762433 859084038 -413190197 -43131931 -1546021228 -817315275 1878488699 -375699449 -220647803 -1164788525 -102920865 369669564 51123492 -762605201 -1513812431 -1892206365
REM
CELL 1.54180  100.00000  100.00000  100.00000   90.00000   90.00000   90.00000
LATT -1
SFAC C  
C      1  0.4573130000000  0.4470960000000  0.4672820000000 1.0
C      1  0.4471030000000  0.4673270000000  0.4572710000000 1.0
C      1  0.4673350000000  0.4573160000000  0.4470610000000 1.0
C      1  0.4572930000000  0.5529140000000  0.5326750000000 1.0
C      1  0.5426740000000  0.4470750000000  0.5326990000000 1.0
C      1  0.5427190000000  0.5529150000000  0.4673440000000 1.0
C      1  0.4470680000000  0.5326860000000  0.5426760000000 1.0
C      1  0.5528890000000  0.4672990000000  0.5427180000000 1.0
C      1  0.5529400000000  0.5326890000000  0.4573360000000 1.0
C      1  0.4672910000000  0.5426910000000  0.5529060000000 1.0
C      1  0.5326560000000  0.4572900000000  0.5529230000000 1.0
C      1  0.5327190000000  0.5427030000000  0.4471100000000 1.0
C      1  0.4573260000000  0.4673270000000  0.4470580000000 1.0
C      1  0.4470970000000  0.4573150000000  0.4672790000000 1.0
C      1  0.4673280000000  0.4470970000000  0.4572770000000 1.0
C      1  0.4572800000000  0.5326830000000  0.5528990000000 1.0
C      1  0.5427270000000  0.5326920000000  0.4471130000000 1.0
C      1  0.5426670000000  0.4672980000000  0.5529300000000 1.0
C      1  0.4470740000000  0.5426970000000  0.5326680000000 1.0
C      1  0.5529360000000  0.5426970000000  0.4673470000000 1.0
C      1  0.5528930000000  0.4572910000000  0.5327060000000 1.0
C      1  0.4672980000000  0.5529110000000  0.5426900000000 1.0
C      1  0.5327150000000  0.5529180000000  0.4573290000000 1.0
C      1  0.5326600000000  0.4470740000000  0.5427040000000 1.0
C      1  0.4424520000000  0.4528240000000  0.4910220000000 1.0
C      1  0.4528440000000  0.4910750000000  0.4424280000000 1.0
C      1  0.4910770000000  0.4424630000000  0.4528010000000 1.0
C      1  0.4424540000000  0.5471890000000  0.5089200000000 1.0
C      1  0.5575370000000  0.4528080000000  0.5089610000000 1.0
C      1  0.5575570000000  0.5471790000000  0.4910970000000 1.0
C      1  0.4527880000000  0.5089360000000  0.5575250000000 1.0
C      1  0.5471540000000  0.4910440000000  0.5575690000000 1.0
C      1  0.5472140000000  0.5089450000000  0.4424790000000 1.0
C      1  0.4910420000000  0.5575390000000  0.5471900000000 1.0
C      1  0.5089100000000  0.4424440000000  0.5471780000000 1.0
C      1  0.5089710000000  0.5575540000000  0.4528310000000 1.0
C      1  0.4424760000000  0.4910750000000  0.4527850000000 1.0
C      1  0.4528140000000  0.4424600000000  0.4910250000000 1.0
C      1  0.4910830000000  0.4528270000000  0.4424400000000 1.0
C      1  0.4424310000000  0.5089390000000  0.5471570000000 1.0
C      1  0.5575720000000  0.5089420000000  0.4528470000000 1.0
C      1  0.5575220000000  0.4910440000000  0.5472110000000 1.0
C      1  0.4528180000000  0.5575510000000  0.5089270000000 1.0
C      1  0.5471950000000  0.5575430000000  0.4910930000000 1.0
C      1  0.5471730000000  0.4424460000000  0.5089540000000 1.0
C      1  0.4910360000000  0.5471750000000  0.5575510000000 1.0
C      1  0.5089750000000  0.5471930000000  0.4424660000000 1.0
C      1  0.5089060000000  0.4528050000000  0.5575430000000 1.0
C      1  0.4943330000000  0.5158190000000  0.5568630000000 1.0
C      1  0.5158380000000  0.5568620000000  0.4943780000000 1.0
C      1  0.5568550000000  0.4943510000000  0.5158560000000 1.0
C      1  0.4943870000000  0.4841830000000  0.4431310000000 1.0
C      1  0.5056700000000  0.5158380000000  0.4431420000000 1.0
C      1  0.5056090000000  0.4841610000000  0.5568630000000 1.0
C      1  0.5158190000000  0.4431340000000  0.5056380000000 1.0
C      1  0.4841760000000  0.5568640000000  0.5056420000000 1.0
C      1  0.4841680000000  0.4431400000000  0.4943420000000 1.0
C      1  0.5568720000000  0.5056360000000  0.4842010000000 1.0
C      1  0.4431440000000  0.4943700000000  0.4841420000000 1.0
C      1  0.4431290000000  0.5056430000000  0.5158010000000 1.0
C      1  0.4943590000000  0.5568610000000  0.5158350000000 1.0
C      1  0.5157990000000  0.4943480000000  0.5568700000000 1.0
C      1  0.5568680000000  0.5158230000000  0.4943920000000 1.0
C      1  0.4943620000000  0.4431400000000  0.4841590000000 1.0
C      1  0.5056250000000  0.4431330000000  0.5158210000000 1.0
C      1  0.5056540000000  0.5568650000000  0.4841850000000 1.0
C      1  0.5158570000000  0.5056480000000  0.4431460000000 1.0
C      1  0.4841440000000  0.5056310000000  0.5568560000000 1.0
C      1  0.4842000000000  0.4943720000000  0.4431280000000 1.0
C      1  0.5568590000000  0.4841640000000  0.5056660000000 1.0
C      1  0.4431380000000  0.4841790000000  0.4943290000000 1.0
C      1  0.4431360000000  0.5158340000000  0.5056140000000 1.0
C      1  0.5232630000000  0.5434550000000  0.5332720000000 1.0
C      1  0.5434550000000  0.5332430000000  0.5233020000000 1.0
C      1  0.5332330000000  0.5232630000000  0.5434840000000 1.0
C      1  0.5232860000000  0.4565400000000  0.4667520000000 1.0
C      1  0.4767470000000  0.5434720000000  0.4667440000000 1.0
C      1  0.4767040000000  0.4565330000000  0.5332330000000 1.0
C      1  0.5434710000000  0.4667470000000  0.4767420000000 1.0
C      1  0.4565520000000  0.5332610000000  0.4767100000000 1.0
C      1  0.4565210000000  0.4667490000000  0.5232470000000 1.0
C      1  0.5332710000000  0.4767300000000  0.4565490000000 1.0
C      1  0.4667720000000  0.5232860000000  0.4565240000000 1.0
C      1  0.4667230000000  0.4767220000000  0.5434420000000 1.0
C      1  0.5232560000000  0.5332420000000  0.5434810000000 1.0
C      1  0.5434490000000  0.5232630000000  0.5332780000000 1.0
C      1  0.5332450000000  0.5434550000000  0.5232990000000 1.0
C      1  0.5232920000000  0.4667530000000  0.4565420000000 1.0
C      1  0.4767000000000  0.4667430000000  0.5434460000000 1.0
C      1  0.4767510000000  0.5332630000000  0.4565310000000 1.0
C      1  0.5434770000000  0.4767270000000  0.4667660000000 1.0
C      1  0.4565170000000  0.4767250000000  0.5332260000000 1.0
C      1  0.4565560000000  0.5232850000000  0.4667300000000 1.0
C      1  0.5332590000000  0.4565370000000  0.4767350000000 1.0
C      1  0.4667310000000  0.4565360000000  0.5232500000000 1.0
C      1  0.4667650000000  0.5434710000000  0.4767170000000 1.0
C      1  0.4952440000000  0.5436960000000  0.4460830000000 1.0
C      1  0.5436820000000  0.4460730000000  0.4952250000000 1.0
C      1  0.4460550000000  0.4952110000000  0.5436580000000 1.0
C      1  0.4951800000000  0.4563050000000  0.5539120000000 1.0
C      1  0.5047660000000  0.5436750000000  0.5539330000000 1.0
C      1  0.5048100000000  0.4563230000000  0.4460720000000 1.0
C      1  0.5436890000000  0.5539170000000  0.5048190000000 1.0
C      1  0.4563060000000  0.4460820000000  0.5047560000000 1.0
C      1  0.4563230000000  0.5539280000000  0.4952000000000 1.0
C      1  0.4461000000000  0.5048020000000  0.4562880000000 1.0
C      1  0.5539440000000  0.4952140000000  0.4563410000000 1.0
C      1  0.5539010000000  0.5047740000000  0.5437140000000 1.0
C      1  0.4951840000000  0.4460700000000  0.5436740000000 1.0
C      1  0.5437120000000  0.4952170000000  0.4460990000000 1.0
C      1  0.4460850000000  0.5436930000000  0.4951930000000 1.0
C      1  0.4952410000000  0.5539310000000  0.4563220000000 1.0
C      1  0.5047720000000  0.5539140000000  0.5436980000000 1.0
C      1  0.5048030000000  0.4460850000000  0.4563070000000 1.0
C      1  0.5436590000000  0.5047730000000  0.5539450000000 1.0
C      1  0.4563420000000  0.5048020000000  0.4460560000000 1.0
C      1  0.4562870000000  0.4952080000000  0.5539000000000 1.0
C      1  0.4460700000000  0.4563200000000  0.5047530000000 1.0
C      1  0.5539200000000  0.4563090000000  0.4952320000000 1.0
C      1  0.5539250000000  0.5436790000000  0.5048230000000 1.0
C      1  0.5082580000000  0.4817060000000  0.4432710000000 1.0
C      1  0.4816860000000  0.4432710000000  0.5082120000000 1.0
C      1  0.4432810000000  0.5082410000000  0.4816700000000 1.0
C      1  0.5082050000000  0.5182920000000  0.5567370000000 1.0
C      1  0.4917380000000  0.4816880000000  0.5567220000000 1.0
C      1  0.4917990000000  0.5183140000000  0.4432700000000 1.0
C      1  0.4817080000000  0.5567330000000  0.4917700000000 1.0
C      1  0.5183010000000  0.4432700000000  0.4917680000000 1.0
C      1  0.5183060000000  0.5567260000000  0.5082510000000 1.0
C      1  0.4432600000000  0.4917720000000  0.5182730000000 1.0
C      1  0.5567210000000  0.5082210000000  0.5183330000000 1.0
C      1  0.5567380000000  0.4917650000000  0.4817240000000 1.0
C      1  0.5082340000000  0.4432730000000  0.4816910000000 1.0
C      1  0.4817260000000  0.5082440000000  0.4432630000000 1.0
C      1  0.4432640000000  0.4817020000000  0.5082000000000 1.0
C      1  0.5082290000000  0.5567250000000  0.5183170000000 1.0
C      1  0.4917840000000  0.5567340000000  0.4817030000000 1.0
C      1  0.4917530000000  0.4432680000000  0.5182890000000 1.0
C      1  0.4816670000000  0.4917610000000  0.5567190000000 1.0
C      1  0.5183310000000  0.4917770000000  0.4432780000000 1.0
C      1  0.5182760000000  0.5082190000000  0.5567400000000 1.0
C      1  0.4432770000000  0.5183110000000  0.4917430000000 1.0
C      1  0.5567280000000  0.5182950000000  0.5082630000000 1.0
C      1  0.5567320000000  0.4816920000000  0.4917940000000 1.0
C      1  0.4680350000000  0.4473480000000  0.5121920000000 1.0
C      1  0.4473640000000  0.5122300000000  0.4680230000000 1.0
C      1  0.5122400000000  0.4680550000000  0.4473470000000 1.0
C      1  0.4680600000000  0.5526600000000  0.4877760000000 1.0
C      1  0.5319530000000  0.4473450000000  0.4877890000000 1.0
C      1  0.5319520000000  0.5526480000000  0.5122430000000 1.0
C      1  0.4473290000000  0.4877830000000  0.5319240000000 1.0
C      1  0.5526390000000  0.5122060000000  0.5319810000000 1.0
C      1  0.5526680000000  0.4877820000000  0.4680720000000 1.0
C      1  0.5121950000000  0.5319420000000  0.5526660000000 1.0
C      1  0.4877520000000  0.4680390000000  0.5526420000000 1.0
C      1  0.4878120000000  0.5319630000000  0.4473460000000 1.0
C      1  0.4680750000000  0.5122310000000  0.4473320000000 1.0
C      1  0.4473370000000  0.4680510000000  0.5121850000000 1.0
C      1  0.5122280000000  0.4473510000000  0.4680440000000 1.0
C      1  0.4680200000000  0.4877770000000  0.5526350000000 1.0
C      1  0.5319780000000  0.4877880000000  0.4473600000000 1.0
C      1  0.5319270000000  0.5122050000000  0.5526720000000 1.0
C      1  0.4473560000000  0.5319610000000  0.4877620000000 1.0
C      1  0.5526510000000  0.5319440000000  0.5122500000000 1.0
C      1  0.5526560000000  0.4680440000000  0.4878030000000 1.0
C      1  0.5122080000000  0.5526470000000  0.5319680000000 1.0
C      1  0.4878040000000  0.5526610000000  0.4680510000000 1.0
C      1  0.4877600000000  0.4473420000000  0.5319370000000 1.0
C      1  0.4619330000000  0.5195680000000  0.5573020000000 1.0
C      1  0.5196000000000  0.5573220000000  0.4619790000000 1.0
C      1  0.5573040000000  0.4619490000000  0.5195960000000 1.0
C      1  0.4619860000000  0.4804410000000  0.4426590000000 1.0
C      1  0.5380720000000  0.5195800000000  0.4427050000000 1.0
C      1  0.5380100000000  0.4804110000000  0.5573340000000 1.0
C      1  0.5195480000000  0.4426730000000  0.5380410000000 1.0
C      1  0.4804140000000  0.5573130000000  0.5380410000000 1.0
C      1  0.4804390000000  0.4426910000000  0.4619390000000 1.0
C      1  0.5573320000000  0.5380380000000  0.4804620000000 1.0
C      1  0.4426880000000  0.4619690000000  0.4803900000000 1.0
C      1  0.4426770000000  0.5380440000000  0.5195520000000 1.0
C      1  0.4619560000000  0.5573190000000  0.5195650000000 1.0
C      1  0.5195410000000  0.4619470000000  0.5573210000000 1.0
C      1  0.5573390000000  0.5195740000000  0.4619910000000 1.0
C      1  0.4619620000000  0.4426900000000  0.4803970000000 1.0
C      1  0.5380240000000  0.4426740000000  0.5195830000000 1.0
C      1  0.5380570000000  0.5573170000000  0.4804550000000 1.0
C      1  0.5196070000000  0.5380490000000  0.4426990000000 1.0
C      1  0.4804020000000  0.5380330000000  0.5573150000000 1.0
C      1  0.4804510000000  0.4619720000000  0.4426650000000 1.0
C      1  0.5572970000000  0.4804130000000  0.5380660000000 1.0
C      1  0.4426990000000  0.4804400000000  0.4619270000000 1.0
C      1  0.4426650000000  0.5195740000000  0.5380160000000 1.0
C      1  0.5149100000000  0.5258120000000  0.4494550000000 1.0
C      1  0.5257910000000  0.4494370000000  0.5148850000000 1.0
C      1  0.4494320000000  0.5148830000000  0.5257820000000 1.0
C      1  0.5148530000000  0.4741840000000  0.5505600000000 1.0
C      1  0.4850960000000  0.5257970000000  0.5505540000000 1.0
C      1  0.4851410000000  0.4742060000000  0.4494310000000 1.0
C      1  0.5258180000000  0.5505570000000  0.4851410000000 1.0
C      1  0.4741970000000  0.4494490000000  0.4850970000000 1.0
C      1  0.4741940000000  0.5505570000000  0.5148770000000 1.0
C      1  0.4494540000000  0.4851290000000  0.4741670000000 1.0
C      1  0.5505720000000  0.5148800000000  0.4742230000000 1.0
C      1  0.5505420000000  0.4851080000000  0.5258280000000 1.0
C      1  0.5148630000000  0.4494370000000  0.5258030000000 1.0
C      1  0.5258320000000  0.5148870000000  0.4494590000000 1.0
C      1  0.4494390000000  0.5258080000000  0.5148610000000 1.0
C      1  0.5149000000000  0.5505600000000  0.4742120000000 1.0
C      1  0.4851110000000  0.5505540000000  0.5258060000000 1.0
C      1  0.4851260000000  0.4494490000000  0.4741790000000 1.0
C      1  0.5257780000000  0.4851070000000  0.5505670000000 1.0
C      1  0.4742190000000  0.4851310000000  0.4494270000000 1.0
C      1  0.4741720000000  0.5148750000000  0.5505470000000 1.0
C      1  0.4494480000000  0.4742040000000  0.4850890000000 1.0
C      1  0.5505460000000  0.4741870000000  0.5149020000000 1.0
C      1  0.5505670000000  0.5258020000000  0.4851490000000 1.0
C      1  0.4751440000000  0.5347430000000  0.5147920000000 1.0
C      1  0.5347570000000  0.5147990000000  0.4751670000000 1.0
C      1  0.5147780000000  0.4751390000000  0.5347460000000 1.0
C      1  0.4751510000000  0.4652630000000  0.4851830000000 1.0
C      1  0.5248640000000  0.5347420000000  0.4852200000000 1.0
C      1  0.5248410000000  0.4652520000000  0.5148050000000 1.0
C      1  0.5347280000000  0.4851930000000  0.5248670000000 1.0
C      1  0.4652470000000  0.5147980000000  0.5248380000000 1.0
C      1  0.4652680000000  0.4852100000000  0.4751270000000 1.0
C      1  0.5148190000000  0.5248570000000  0.4652690000000 1.0
C      1  0.4852160000000  0.4751550000000  0.4652450000000 1.0
C      1  0.4851870000000  0.5248480000000  0.5347400000000 1.0
C      1  0.4751320000000  0.5147950000000  0.5347330000000 1.0
C      1  0.5347320000000  0.4751410000000  0.5148120000000 1.0
C      1  0.5148150000000  0.5347450000000  0.4751610000000 1.0
C      1  0.4751630000000  0.4852100000000  0.4652420000000 1.0
C      1  0.5248330000000  0.4851920000000  0.5347530000000 1.0
C      1  0.5248720000000  0.5148020000000  0.4652720000000 1.0
C      1  0.5347530000000  0.5248510000000  0.4852230000000 1.0
C      1  0.4652530000000  0.5248540000000  0.5147860000000 1.0
C      1  0.4652620000000  0.4751540000000  0.4851790000000 1.0
C      1  0.5147820000000  0.4652510000000  0.5248540000000 1.0
C      1  0.4852100000000  0.4652640000000  0.4751340000000 1.0
C      1  0.4851930000000  0.5347400000000  0.5248510000000 1.0
END
