TITL C-112675-8135-94 -3.63464668101047 1000000 -1669.72138522388 0 0 240 (C1) n - 1
REM
REM in /home/chem/mssmkc/work/GAP20/Larger-Clusters/Only-C240-new-series
REM
REM
REM
REM
REM
REM ./C.cell (92f43df4b06298221612a7c33f48e63b)
REM
REM compiler GCC version 8.3.0
REM options -cpp -mtune=generic -march=x86-64 -g -O0
REM seed 1779996067 -1331907751 -2026009555 -1812499466 -334242860 666174273 -1959468983 -964207048 -1657627921 1884911444 1221923983 -530113776 -796306560 -795017666 1375847519 -906061972 -999207150 -1973246272 1070956053 -220394043 -472814866 -1536043410 1072868415 -1962268479 -828612931 -1276280130 -2083214643 86560377 -1576285912 23922430 230818195 -717443646 -918160925
REM
CELL 1.54180  100.00000  100.00000  100.00000   90.00000   90.00000   90.00000
LATT -1
SFAC C  
C      1  0.5712390000000  0.4375370000000  0.5228940000000 1.0
C      1  0.5314850000000  0.5689830000000  0.4471900000000 1.0
C      1  0.4364840000000  0.5259190000000  0.5634870000000 1.0
C      1  0.4221680000000  0.5611430000000  0.5246120000000 1.0
C      1  0.4322680000000  0.4450920000000  0.4730930000000 1.0
C      1  0.5744150000000  0.5588460000000  0.4772550000000 1.0
C      1  0.4704590000000  0.4321530000000  0.4484180000000 1.0
C      1  0.4598900000000  0.5681830000000  0.5568730000000 1.0
C      1  0.5390540000000  0.4298850000000  0.5615970000000 1.0
C      1  0.5629610000000  0.4723780000000  0.5604500000000 1.0
C      1  0.5571230000000  0.5287450000000  0.4351210000000 1.0
C      1  0.4388400000000  0.4730070000000  0.4265740000000 1.0
C      1  0.4341990000000  0.5678030000000  0.5244460000000 1.0
C      1  0.5700300000000  0.5294770000000  0.4398580000000 1.0
C      1  0.5372350000000  0.4426120000000  0.5663200000000 1.0
C      1  0.5650860000000  0.4253260000000  0.5244600000000 1.0
C      1  0.4434660000000  0.4379560000000  0.4761990000000 1.0
C      1  0.5621130000000  0.5647970000000  0.4790630000000 1.0
C      1  0.4322870000000  0.4745590000000  0.4385780000000 1.0
C      1  0.5746200000000  0.4707540000000  0.5533910000000 1.0
C      1  0.4239520000000  0.5265670000000  0.5577930000000 1.0
C      1  0.4619710000000  0.5566990000000  0.5639170000000 1.0
C      1  0.5294580000000  0.5576210000000  0.4397920000000 1.0
C      1  0.4681920000000  0.4373030000000  0.4359760000000 1.0
C      1  0.5528010000000  0.4253650000000  0.5267640000000 1.0
C      1  0.5258820000000  0.5457830000000  0.4398060000000 1.0
C      1  0.4238130000000  0.5278370000000  0.5453490000000 1.0
C      1  0.4465000000000  0.5675200000000  0.5235300000000 1.0
C      1  0.4552000000000  0.4387820000000  0.4801690000000 1.0
C      1  0.5498590000000  0.5636970000000  0.4801050000000 1.0
C      1  0.4688700000000  0.4495360000000  0.4336270000000 1.0
C      1  0.4667370000000  0.5452920000000  0.5637480000000 1.0
C      1  0.5327880000000  0.4539630000000  0.5643130000000 1.0
C      1  0.5736260000000  0.4702980000000  0.5409500000000 1.0
C      1  0.5713360000000  0.5287350000000  0.4522770000000 1.0
C      1  0.4332250000000  0.4763710000000  0.4507730000000 1.0
C      1  0.4228480000000  0.5486760000000  0.5253390000000 1.0
C      1  0.5452550000000  0.5259580000000  0.4370510000000 1.0
C      1  0.5363410000000  0.4276340000000  0.5495590000000 1.0
C      1  0.5699630000000  0.4497620000000  0.5216220000000 1.0
C      1  0.4322700000000  0.4574800000000  0.4719680000000 1.0
C      1  0.5739850000000  0.5465400000000  0.4749170000000 1.0
C      1  0.4512480000000  0.4714510000000  0.4273630000000 1.0
C      1  0.5508330000000  0.4747210000000  0.5601180000000 1.0
C      1  0.4486440000000  0.5242550000000  0.5621890000000 1.0
C      1  0.4637120000000  0.5695820000000  0.5450730000000 1.0
C      1  0.5309250000000  0.5681480000000  0.4596160000000 1.0
C      1  0.4745430000000  0.4338360000000  0.4600070000000 1.0
C      1  0.4965720000000  0.4534300000000  0.5635340000000 1.0
C      1  0.5664340000000  0.5000680000000  0.4519980000000 1.0
C      1  0.4540600000000  0.5619020000000  0.4888790000000 1.0
C      1  0.5023180000000  0.5456410000000  0.5618730000000 1.0
C      1  0.4985800000000  0.4518860000000  0.4362660000000 1.0
C      1  0.4911280000000  0.5433030000000  0.4442680000000 1.0
C      1  0.4395540000000  0.5120810000000  0.4524210000000 1.0
C      1  0.4302840000000  0.4997810000000  0.5428090000000 1.0
C      1  0.5683250000000  0.4986300000000  0.5417490000000 1.0
C      1  0.5483860000000  0.4298970000000  0.4986380000000 1.0
C      1  0.5437350000000  0.5522450000000  0.5150290000000 1.0
C      1  0.4603920000000  0.4550630000000  0.5141940000000 1.0
C      1  0.4538110000000  0.4891600000000  0.5538780000000 1.0
C      1  0.5026170000000  0.5655920000000  0.4575570000000 1.0
C      1  0.5603320000000  0.4533670000000  0.4869380000000 1.0
C      1  0.5449430000000  0.5097570000000  0.5525110000000 1.0
C      1  0.4537660000000  0.5007240000000  0.4302350000000 1.0
C      1  0.5431730000000  0.4895230000000  0.4415580000000 1.0
C      1  0.5080410000000  0.4395150000000  0.4583190000000 1.0
C      1  0.5025310000000  0.4320790000000  0.5487630000000 1.0
C      1  0.4963790000000  0.5668070000000  0.5471420000000 1.0
C      1  0.4295750000000  0.5487790000000  0.4971390000000 1.0
C      1  0.5681760000000  0.5435230000000  0.5031140000000 1.0
C      1  0.4367310000000  0.4587930000000  0.5006080000000 1.0
C      1  0.4745190000000  0.4823990000000  0.5608310000000 1.0
C      1  0.5642700000000  0.4745100000000  0.4789660000000 1.0
C      1  0.4882200000000  0.5663340000000  0.4757420000000 1.0
C      1  0.5244650000000  0.5166620000000  0.5599460000000 1.0
C      1  0.5223730000000  0.4806130000000  0.4383240000000 1.0
C      1  0.4734630000000  0.5127530000000  0.4338020000000 1.0
C      1  0.4323370000000  0.5297420000000  0.4840910000000 1.0
C      1  0.4334780000000  0.4785460000000  0.5124120000000 1.0
C      1  0.5680720000000  0.5228700000000  0.5135680000000 1.0
C      1  0.5176390000000  0.4344480000000  0.4784400000000 1.0
C      1  0.5109630000000  0.5619970000000  0.5293500000000 1.0
C      1  0.4902020000000  0.4407300000000  0.5308900000000 1.0
C      1  0.4856210000000  0.4737600000000  0.5633570000000 1.0
C      1  0.4760370000000  0.5655900000000  0.4833580000000 1.0
C      1  0.5656890000000  0.4859980000000  0.4705090000000 1.0
C      1  0.5134060000000  0.5254230000000  0.5622560000000 1.0
C      1  0.4827060000000  0.5233010000000  0.4368720000000 1.0
C      1  0.5114780000000  0.4713930000000  0.4371540000000 1.0
C      1  0.5276600000000  0.4321370000000  0.4884440000000 1.0
C      1  0.4799640000000  0.4467010000000  0.5227290000000 1.0
C      1  0.5226310000000  0.5583180000000  0.5218080000000 1.0
C      1  0.4346860000000  0.5207830000000  0.4731030000000 1.0
C      1  0.5682150000000  0.5118920000000  0.5227380000000 1.0
C      1  0.4319650000000  0.4883940000000  0.5226790000000 1.0
C      1  0.4391640000000  0.5206440000000  0.4933550000000 1.0
C      1  0.5004810000000  0.4440530000000  0.5212170000000 1.0
C      1  0.5132410000000  0.4909720000000  0.4438460000000 1.0
C      1  0.5590130000000  0.4830960000000  0.4898680000000 1.0
C      1  0.5603060000000  0.5149110000000  0.5039600000000 1.0
C      1  0.4406620000000  0.4881480000000  0.5039150000000 1.0
C      1  0.5020400000000  0.5571890000000  0.5188560000000 1.0
C      1  0.5094700000000  0.4421060000000  0.4882390000000 1.0
C      1  0.4954570000000  0.5586610000000  0.4859650000000 1.0
C      1  0.4814770000000  0.5031540000000  0.4413370000000 1.0
C      1  0.4836470000000  0.4929610000000  0.5558010000000 1.0
C      1  0.5152750000000  0.5059450000000  0.5553120000000 1.0
C      1  0.5202340000000  0.4401920000000  0.4981760000000 1.0
C      1  0.4393170000000  0.4981500000000  0.5145710000000 1.0
C      1  0.4918410000000  0.5134700000000  0.4433750000000 1.0
C      1  0.4833190000000  0.5589300000000  0.4944190000000 1.0
C      1  0.5141190000000  0.5548360000000  0.5102300000000 1.0
C      1  0.4896620000000  0.4480940000000  0.5115680000000 1.0
C      1  0.5604600000000  0.5036260000000  0.5133570000000 1.0
C      1  0.4406190000000  0.5108100000000  0.4823670000000 1.0
C      1  0.5594390000000  0.4946480000000  0.4805790000000 1.0
C      1  0.5022750000000  0.4809650000000  0.4432960000000 1.0
C      1  0.4950260000000  0.4833680000000  0.5574010000000 1.0
C      1  0.5039590000000  0.5155730000000  0.5567140000000 1.0
C      1  0.4537040000000  0.4949720000000  0.4431320000000 1.0
C      1  0.4491570000000  0.4621450000000  0.4947750000000 1.0
C      1  0.4974630000000  0.4479930000000  0.4602860000000 1.0
C      1  0.5420960000000  0.5014180000000  0.4482460000000 1.0
C      1  0.5439800000000  0.4974170000000  0.5466400000000 1.0
C      1  0.4545220000000  0.5016180000000  0.5482080000000 1.0
C      1  0.5556720000000  0.5423750000000  0.4968410000000 1.0
C      1  0.5546210000000  0.4540910000000  0.4993900000000 1.0
C      1  0.4418570000000  0.5474790000000  0.5039250000000 1.0
C      1  0.5069050000000  0.5522650000000  0.4599400000000 1.0
C      1  0.5116980000000  0.4429250000000  0.5482710000000 1.0
C      1  0.4884930000000  0.5552330000000  0.5451940000000 1.0
C      1  0.4922780000000  0.4542790000000  0.4487220000000 1.0
C      1  0.4611730000000  0.4566270000000  0.5006350000000 1.0
C      1  0.4463170000000  0.5002520000000  0.4539970000000 1.0
C      1  0.5020990000000  0.5412050000000  0.4522110000000 1.0
C      1  0.4918510000000  0.5440320000000  0.5531560000000 1.0
C      1  0.5073950000000  0.4546510000000  0.5552610000000 1.0
C      1  0.5436650000000  0.5482360000000  0.5019490000000 1.0
C      1  0.4536230000000  0.5546330000000  0.5004990000000 1.0
C      1  0.5481120000000  0.4426350000000  0.5046990000000 1.0
C      1  0.5539730000000  0.5061270000000  0.4545530000000 1.0
C      1  0.4426800000000  0.5064050000000  0.5417760000000 1.0
C      1  0.5555920000000  0.4929190000000  0.5395570000000 1.0
C      1  0.5149950000000  0.5543460000000  0.4720130000000 1.0
C      1  0.4661030000000  0.5102140000000  0.5517900000000 1.0
C      1  0.5578240000000  0.4659260000000  0.5077220000000 1.0
C      1  0.4905860000000  0.4466640000000  0.4732710000000 1.0
C      1  0.4811830000000  0.5575050000000  0.5325970000000 1.0
C      1  0.5202280000000  0.4407620000000  0.5364050000000 1.0
C      1  0.5326850000000  0.4886900000000  0.5508440000000 1.0
C      1  0.5297530000000  0.5093850000000  0.4465960000000 1.0
C      1  0.4646590000000  0.4852320000000  0.4420820000000 1.0
C      1  0.4391360000000  0.5359610000000  0.5126270000000 1.0
C      1  0.4453260000000  0.4728830000000  0.4856290000000 1.0
C      1  0.5583780000000  0.5321490000000  0.4866760000000 1.0
C      1  0.5573190000000  0.5145030000000  0.4661020000000 1.0
C      1  0.5145300000000  0.4677120000000  0.5553930000000 1.0
C      1  0.4645570000000  0.5571640000000  0.5102930000000 1.0
C      1  0.4437000000000  0.4923130000000  0.4662150000000 1.0
C      1  0.5583810000000  0.4843270000000  0.5280210000000 1.0
C      1  0.4396700000000  0.5161160000000  0.5311530000000 1.0
C      1  0.4844710000000  0.5311200000000  0.5543060000000 1.0
C      1  0.5100980000000  0.5291070000000  0.4488650000000 1.0
C      1  0.4832350000000  0.4653150000000  0.4453980000000 1.0
C      1  0.5378570000000  0.4405800000000  0.5151120000000 1.0
C      1  0.4725530000000  0.4506390000000  0.4934120000000 1.0
C      1  0.5323820000000  0.5523620000000  0.4932530000000 1.0
C      1  0.4335400000000  0.5208770000000  0.4595240000000 1.0
C      1  0.4669590000000  0.4504460000000  0.5240840000000 1.0
C      1  0.5085350000000  0.4588130000000  0.4323840000000 1.0
C      1  0.5705120000000  0.4896080000000  0.4580890000000 1.0
C      1  0.5732940000000  0.5084100000000  0.5350570000000 1.0
C      1  0.4262200000000  0.4903930000000  0.5350640000000 1.0
C      1  0.5360440000000  0.5571720000000  0.5239760000000 1.0
C      1  0.5397000000000  0.4255890000000  0.4902460000000 1.0
C      1  0.4627210000000  0.5677960000000  0.4814560000000 1.0
C      1  0.4830080000000  0.5369000000000  0.4366750000000 1.0
C      1  0.4871960000000  0.4610540000000  0.5676800000000 1.0
C      1  0.5118580000000  0.5383060000000  0.5661150000000 1.0
C      1  0.5163220000000  0.4325220000000  0.4650590000000 1.0
C      1  0.4306630000000  0.4653350000000  0.5098150000000 1.0
C      1  0.4618250000000  0.5101000000000  0.4268730000000 1.0
C      1  0.4930400000000  0.5713440000000  0.4638720000000 1.0
C      1  0.5075760000000  0.5681070000000  0.5412070000000 1.0
C      1  0.4916530000000  0.4328840000000  0.5421710000000 1.0
C      1  0.5731280000000  0.5355900000000  0.5119590000000 1.0
C      1  0.4259250000000  0.5415730000000  0.4871610000000 1.0
C      1  0.5655110000000  0.4609630000000  0.4780120000000 1.0
C      1  0.5358610000000  0.4803650000000  0.4365310000000 1.0
C      1  0.4610260000000  0.4806930000000  0.5601460000000 1.0
C      1  0.5379650000000  0.5182270000000  0.5590520000000 1.0
C      1  0.5089780000000  0.4812070000000  0.5550060000000 1.0
C      1  0.5574250000000  0.5086060000000  0.4794590000000 1.0
C      1  0.4788180000000  0.5571610000000  0.5077320000000 1.0
C      1  0.4899670000000  0.5175940000000  0.5544610000000 1.0
C      1  0.4883270000000  0.4789390000000  0.4448430000000 1.0
C      1  0.5055010000000  0.5154400000000  0.4467290000000 1.0
C      1  0.4431580000000  0.4970670000000  0.4798890000000 1.0
C      1  0.4407480000000  0.5119180000000  0.5173070000000 1.0
C      1  0.5580020000000  0.4896880000000  0.5145470000000 1.0
C      1  0.5238620000000  0.4419500000000  0.5117630000000 1.0
C      1  0.5182440000000  0.5534470000000  0.4966950000000 1.0
C      1  0.4865200000000  0.4489980000000  0.4976710000000 1.0
C      1  0.4801690000000  0.5065390000000  0.5533740000000 1.0
C      1  0.5090890000000  0.5547930000000  0.4853150000000 1.0
C      1  0.5577600000000  0.4798600000000  0.5036100000000 1.0
C      1  0.5187020000000  0.4922920000000  0.5531100000000 1.0
C      1  0.4784180000000  0.4894860000000  0.4434280000000 1.0
C      1  0.5159230000000  0.5048220000000  0.4461680000000 1.0
C      1  0.4961310000000  0.4464840000000  0.4867210000000 1.0
C      1  0.5144860000000  0.4426250000000  0.5229610000000 1.0
C      1  0.4877590000000  0.5568130000000  0.5195120000000 1.0
C      1  0.4405170000000  0.5225020000000  0.5073260000000 1.0
C      1  0.5577930000000  0.5181500000000  0.4904420000000 1.0
C      1  0.4439090000000  0.4865770000000  0.4902240000000 1.0
C      1  0.4618500000000  0.5223250000000  0.5577020000000 1.0
C      1  0.5648370000000  0.4627010000000  0.5195590000000 1.0
C      1  0.5273480000000  0.5612120000000  0.4710390000000 1.0
C      1  0.5373690000000  0.4766740000000  0.5566430000000 1.0
C      1  0.5325960000000  0.5225040000000  0.4421120000000 1.0
C      1  0.4625450000000  0.4731180000000  0.4351510000000 1.0
C      1  0.4303700000000  0.5371810000000  0.5237210000000 1.0
C      1  0.4380310000000  0.4698930000000  0.4738700000000 1.0
C      1  0.5665680000000  0.5348990000000  0.4754110000000 1.0
C      1  0.4779830000000  0.4404660000000  0.4719080000000 1.0
C      1  0.4686610000000  0.5639690000000  0.5332770000000 1.0
C      1  0.5321650000000  0.4332560000000  0.5374640000000 1.0
C      1  0.5281130000000  0.4660100000000  0.5587750000000 1.0
C      1  0.4598410000000  0.5631750000000  0.5221550000000 1.0
C      1  0.5655790000000  0.5259410000000  0.4645100000000 1.0
C      1  0.4712430000000  0.5329900000000  0.5587890000000 1.0
C      1  0.5226070000000  0.5326090000000  0.4433120000000 1.0
C      1  0.4716630000000  0.4625530000000  0.4376350000000 1.0
C      1  0.5409180000000  0.4325480000000  0.5263270000000 1.0
C      1  0.4684740000000  0.4427350000000  0.4823020000000 1.0
C      1  0.5365930000000  0.5592000000000  0.4815640000000 1.0
C      1  0.4381650000000  0.4795990000000  0.4635460000000 1.0
C      1  0.5662840000000  0.4726700000000  0.5295250000000 1.0
C      1  0.4307710000000  0.5269300000000  0.5334670000000 1.0
END
