TITL C-112675-8135-40 -34.2489095336683 1000000 -1661.8406987021 0 0 240 (C1) n - 1
REM
REM in /home/chem/mssmkc/work/GAP20/Larger-Clusters/Only-C240-new-series
REM
REM
REM
REM
REM
REM ./C.cell (2f3fc68bb9f120311d5b08947c2f1929)
REM
REM compiler GCC version 8.3.0
REM options -cpp -mtune=generic -march=x86-64 -g -O0
REM seed -1407069859 1242285922 1352037872 482074555 -403858986 2043295234 -2016937446 -147576552 572834628 1759735275 551487166 -954287198 1799999885 -786531240 -1783891015 574622406 -1927992677 -2115592263 -1922988657 -208260741 272280303 -1698108212 -184705882 835583924 -221363945 -1160071796 -878789788 -1866062935 1579927761 -1084555463 85915100 1562373948 -1245699145
REM
CELL 1.54180  100.00000  100.00000  100.00000   90.00000   90.00000   90.00000
LATT -1
SFAC C  
C      1  0.5270540000000  0.5082150000000  0.5627230000000 1.0
C      1  0.4999900000000  0.5492210000000  0.5125110000000 1.0
C      1  0.5546440000000  0.5123580000000  0.5075450000000 1.0
C      1  0.5220290000000  0.4887720000000  0.4333490000000 1.0
C      1  0.4902010000000  0.4998280000000  0.4490330000000 1.0
C      1  0.4876310000000  0.5015330000000  0.5498150000000 1.0
C      1  0.5031720000000  0.4506980000000  0.4845110000000 1.0
C      1  0.5002550000000  0.5490590000000  0.4910210000000 1.0
C      1  0.4948990000000  0.4525750000000  0.5130970000000 1.0
C      1  0.5565700000000  0.4832140000000  0.4928830000000 1.0
C      1  0.4390960000000  0.5204320000000  0.4887000000000 1.0
C      1  0.4326200000000  0.4769750000000  0.5161170000000 1.0
C      1  0.5111770000000  0.5489250000000  0.5010080000000 1.0
C      1  0.5202290000000  0.5197980000000  0.5590680000000 1.0
C      1  0.5606950000000  0.5060570000000  0.5190340000000 1.0
C      1  0.5132030000000  0.4509870000000  0.4952520000000 1.0
C      1  0.4848130000000  0.4524680000000  0.5024080000000 1.0
C      1  0.4891420000000  0.5495870000000  0.5025320000000 1.0
C      1  0.5117230000000  0.4788570000000  0.4319550000000 1.0
C      1  0.4980890000000  0.4911960000000  0.5498220000000 1.0
C      1  0.4998980000000  0.5103860000000  0.4497460000000 1.0
C      1  0.5535250000000  0.4946950000000  0.4843810000000 1.0
C      1  0.4336850000000  0.4883740000000  0.5248330000000 1.0
C      1  0.4315660000000  0.5101250000000  0.4825690000000 1.0
C      1  0.5217350000000  0.5601390000000  0.5007000000000 1.0
C      1  0.5729220000000  0.4996410000000  0.5201810000000 1.0
C      1  0.5077520000000  0.5238450000000  0.5642030000000 1.0
C      1  0.5203100000000  0.4388770000000  0.5004690000000 1.0
C      1  0.4792610000000  0.5615590000000  0.5028240000000 1.0
C      1  0.4763720000000  0.4402130000000  0.5002770000000 1.0
C      1  0.5641570000000  0.5003940000000  0.4758080000000 1.0
C      1  0.4364790000000  0.5009340000000  0.4724680000000 1.0
C      1  0.4336070000000  0.5017740000000  0.5298360000000 1.0
C      1  0.4995060000000  0.4785500000000  0.4247920000000 1.0
C      1  0.5013360000000  0.5218020000000  0.4392060000000 1.0
C      1  0.4987810000000  0.4806250000000  0.5627020000000 1.0
C      1  0.5211970000000  0.5001670000000  0.5723390000000 1.0
C      1  0.5636800000000  0.5224800000000  0.5006810000000 1.0
C      1  0.5004980000000  0.5607840000000  0.5229960000000 1.0
C      1  0.5265250000000  0.5022280000000  0.4334980000000 1.0
C      1  0.4781720000000  0.5016240000000  0.5608130000000 1.0
C      1  0.4788550000000  0.4982870000000  0.4375110000000 1.0
C      1  0.5690490000000  0.4798140000000  0.4986260000000 1.0
C      1  0.4295700000000  0.4704530000000  0.5039080000000 1.0
C      1  0.4369880000000  0.5250100000000  0.5021900000000 1.0
C      1  0.4995820000000  0.4380870000000  0.4775780000000 1.0
C      1  0.4968690000000  0.4409030000000  0.5224230000000 1.0
C      1  0.5001370000000  0.5602200000000  0.4802950000000 1.0
C      1  0.4803340000000  0.5032120000000  0.4125980000000 1.0
C      1  0.4911230000000  0.4197950000000  0.4844440000000 1.0
C      1  0.4184510000000  0.4714500000000  0.4824760000000 1.0
C      1  0.4790840000000  0.5099490000000  0.5794460000000 1.0
C      1  0.5052920000000  0.4975380000000  0.5908620000000 1.0
C      1  0.5106530000000  0.5093690000000  0.4160580000000 1.0
C      1  0.4948670000000  0.5806480000000  0.5191850000000 1.0
C      1  0.5039660000000  0.4212810000000  0.5191210000000 1.0
C      1  0.5072200000000  0.5797880000000  0.4839700000000 1.0
C      1  0.4203200000000  0.5075690000000  0.5045320000000 1.0
C      1  0.5922410000000  0.4883790000000  0.4996320000000 1.0
C      1  0.5825090000000  0.5197130000000  0.4905350000000 1.0
C      1  0.4805970000000  0.4204490000000  0.4942540000000 1.0
C      1  0.4870140000000  0.4932880000000  0.4084480000000 1.0
C      1  0.4187710000000  0.4849120000000  0.4770840000000 1.0
C      1  0.4841090000000  0.5808980000000  0.5089710000000 1.0
C      1  0.5179420000000  0.5797280000000  0.4942560000000 1.0
C      1  0.5143030000000  0.4204980000000  0.5089520000000 1.0
C      1  0.4900900000000  0.5196470000000  0.5796090000000 1.0
C      1  0.4992520000000  0.5175310000000  0.4143990000000 1.0
C      1  0.5018350000000  0.4870110000000  0.5830880000000 1.0
C      1  0.4142960000000  0.4957470000000  0.5094990000000 1.0
C      1  0.5827090000000  0.5096880000000  0.4805140000000 1.0
C      1  0.5937520000000  0.4982570000000  0.5073640000000 1.0
C      1  0.4609960000000  0.5524240000000  0.5157830000000 1.0
C      1  0.5522490000000  0.5138150000000  0.4592950000000 1.0
C      1  0.5118920000000  0.4621610000000  0.5499410000000 1.0
C      1  0.4580670000000  0.4497790000000  0.4868760000000 1.0
C      1  0.5400570000000  0.5499240000000  0.4877960000000 1.0
C      1  0.5383550000000  0.4490170000000  0.5141840000000 1.0
C      1  0.5521160000000  0.4872970000000  0.5420910000000 1.0
C      1  0.4481220000000  0.5153050000000  0.5434810000000 1.0
C      1  0.4517740000000  0.4861260000000  0.4614030000000 1.0
C      1  0.5125150000000  0.5398580000000  0.4516420000000 1.0
C      1  0.4869770000000  0.4552610000000  0.4472830000000 1.0
C      1  0.4885280000000  0.5397430000000  0.5522620000000 1.0
C      1  0.4587610000000  0.5159770000000  0.5531290000000 1.0
C      1  0.5495730000000  0.4587210000000  0.5140780000000 1.0
C      1  0.5123430000000  0.5500160000000  0.4615930000000 1.0
C      1  0.4620000000000  0.4852630000000  0.4512480000000 1.0
C      1  0.5396960000000  0.4894640000000  0.5511840000000 1.0
C      1  0.5411450000000  0.5155680000000  0.4505250000000 1.0
C      1  0.5504140000000  0.5398990000000  0.4876820000000 1.0
C      1  0.4515030000000  0.5415910000000  0.5174940000000 1.0
C      1  0.4469300000000  0.4590940000000  0.4863010000000 1.0
C      1  0.5100780000000  0.4509090000000  0.5406820000000 1.0
C      1  0.4864550000000  0.4468910000000  0.4589900000000 1.0
C      1  0.4883930000000  0.5504010000000  0.5418600000000 1.0
C      1  0.5102460000000  0.4337480000000  0.5247730000000 1.0
C      1  0.4289860000000  0.5170520000000  0.5109890000000 1.0
C      1  0.5197710000000  0.5126330000000  0.4267890000000 1.0
C      1  0.5134040000000  0.5678330000000  0.4771210000000 1.0
C      1  0.4855490000000  0.4317770000000  0.4768160000000 1.0
C      1  0.4879270000000  0.5691540000000  0.5264210000000 1.0
C      1  0.4257250000000  0.4623400000000  0.4761090000000 1.0
C      1  0.5689390000000  0.5249290000000  0.4863090000000 1.0
C      1  0.5680620000000  0.4763910000000  0.5124420000000 1.0
C      1  0.5221830000000  0.4863190000000  0.5692580000000 1.0
C      1  0.4701150000000  0.5207960000000  0.5746750000000 1.0
C      1  0.4768100000000  0.4843360000000  0.4331440000000 1.0
C      1  0.5154790000000  0.5231940000000  0.4350750000000 1.0
C      1  0.4328260000000  0.5150160000000  0.5246640000000 1.0
C      1  0.5211020000000  0.4329510000000  0.5145060000000 1.0
C      1  0.5099740000000  0.4805760000000  0.5728680000000 1.0
C      1  0.4871070000000  0.4749990000000  0.4308600000000 1.0
C      1  0.4818000000000  0.5298730000000  0.5742920000000 1.0
C      1  0.4307260000000  0.4880650000000  0.4707320000000 1.0
C      1  0.5698120000000  0.4860720000000  0.5229570000000 1.0
C      1  0.5694870000000  0.5147700000000  0.4749810000000 1.0
C      1  0.5243340000000  0.5678400000000  0.4875070000000 1.0
C      1  0.4771130000000  0.5696170000000  0.5161590000000 1.0
C      1  0.4747640000000  0.4327440000000  0.4871720000000 1.0
C      1  0.5348580000000  0.5278330000000  0.4490910000000 1.0
C      1  0.5190570000000  0.4426170000000  0.5331400000000 1.0
C      1  0.4476190000000  0.5354300000000  0.5292040000000 1.0
C      1  0.5291470000000  0.4809760000000  0.5570880000000 1.0
C      1  0.4659280000000  0.5258880000000  0.5614330000000 1.0
C      1  0.4698840000000  0.4761200000000  0.4432440000000 1.0
C      1  0.5219620000000  0.5585130000000  0.4685770000000 1.0
C      1  0.4768920000000  0.4407160000000  0.4678950000000 1.0
C      1  0.4790450000000  0.5594230000000  0.5351090000000 1.0
C      1  0.4396280000000  0.4652130000000  0.4745960000000 1.0
C      1  0.5588040000000  0.5327250000000  0.4783420000000 1.0
C      1  0.5569360000000  0.4696670000000  0.5202120000000 1.0
C      1  0.5295820000000  0.4423010000000  0.5233500000000 1.0
C      1  0.5225320000000  0.5313610000000  0.4448570000000 1.0
C      1  0.4422310000000  0.5236700000000  0.5330870000000 1.0
C      1  0.5324910000000  0.5583970000000  0.4785680000000 1.0
C      1  0.4687290000000  0.5604780000000  0.5250410000000 1.0
C      1  0.4665960000000  0.4416640000000  0.4778470000000 1.0
C      1  0.5230370000000  0.4697670000000  0.5521570000000 1.0
C      1  0.4803220000000  0.4661770000000  0.4411510000000 1.0
C      1  0.4782220000000  0.5345850000000  0.5609500000000 1.0
C      1  0.4412670000000  0.4781480000000  0.4675850000000 1.0
C      1  0.5580130000000  0.4801470000000  0.5306690000000 1.0
C      1  0.5598470000000  0.5231140000000  0.4675030000000 1.0
C      1  0.4822400000000  0.5075480000000  0.4263350000000 1.0
C      1  0.5042820000000  0.4252910000000  0.4852880000000 1.0
C      1  0.4178930000000  0.4737090000000  0.4968970000000 1.0
C      1  0.4814170000000  0.4970300000000  0.5736150000000 1.0
C      1  0.5107040000000  0.5057660000000  0.5805460000000 1.0
C      1  0.5093900000000  0.4968280000000  0.4111810000000 1.0
C      1  0.5075060000000  0.5738520000000  0.5177220000000 1.0
C      1  0.4911450000000  0.4274880000000  0.5170720000000 1.0
C      1  0.4941010000000  0.5738710000000  0.4855100000000 1.0
C      1  0.4200920000000  0.5061330000000  0.4899370000000 1.0
C      1  0.5800900000000  0.4869130000000  0.4921950000000 1.0
C      1  0.5784830000000  0.5173430000000  0.5039190000000 1.0
C      1  0.4816840000000  0.4271320000000  0.5068850000000 1.0
C      1  0.4992390000000  0.4881980000000  0.4138390000000 1.0
C      1  0.4139830000000  0.4937990000000  0.4868420000000 1.0
C      1  0.4846040000000  0.5745060000000  0.4959220000000 1.0
C      1  0.5170810000000  0.5735700000000  0.5073860000000 1.0
C      1  0.5137670000000  0.4256450000000  0.4956230000000 1.0
C      1  0.5033920000000  0.5171510000000  0.5757750000000 1.0
C      1  0.4928220000000  0.5170950000000  0.4266130000000 1.0
C      1  0.4903220000000  0.4864220000000  0.5746790000000 1.0
C      1  0.4121440000000  0.4866900000000  0.4991840000000 1.0
C      1  0.5777570000000  0.4963420000000  0.4819250000000 1.0
C      1  0.5824500000000  0.5060800000000  0.5115770000000 1.0
C      1  0.5355460000000  0.4539230000000  0.4897120000000 1.0
C      1  0.4528830000000  0.4913060000000  0.5387240000000 1.0
C      1  0.4924680000000  0.5301120000000  0.4607510000000 1.0
C      1  0.5320810000000  0.5403600000000  0.5089320000000 1.0
C      1  0.4630090000000  0.4576330000000  0.5097400000000 1.0
C      1  0.4677240000000  0.5424370000000  0.4945940000000 1.0
C      1  0.4592160000000  0.5099070000000  0.4663780000000 1.0
C      1  0.5455490000000  0.4901400000000  0.4622170000000 1.0
C      1  0.5550720000000  0.5112200000000  0.5402430000000 1.0
C      1  0.4898670000000  0.4698630000000  0.5434580000000 1.0
C      1  0.5114010000000  0.5341640000000  0.5441610000000 1.0
C      1  0.5107920000000  0.4600610000000  0.4489980000000 1.0
C      1  0.5368040000000  0.4904800000000  0.4511920000000 1.0
C      1  0.4558750000000  0.5352740000000  0.4939270000000 1.0
C      1  0.4882770000000  0.4599310000000  0.5342050000000 1.0
C      1  0.5426970000000  0.5136170000000  0.5458260000000 1.0
C      1  0.4697650000000  0.5070870000000  0.4579010000000 1.0
C      1  0.4656190000000  0.4937070000000  0.5440330000000 1.0
C      1  0.4506450000000  0.4634900000000  0.5109950000000 1.0
C      1  0.5470800000000  0.4615900000000  0.4895120000000 1.0
C      1  0.5436210000000  0.5326890000000  0.5105770000000 1.0
C      1  0.4920530000000  0.5396490000000  0.4708010000000 1.0
C      1  0.5088150000000  0.5411660000000  0.5327640000000 1.0
C      1  0.5099880000000  0.4543200000000  0.4620420000000 1.0
C      1  0.5227990000000  0.5263280000000  0.5468240000000 1.0
C      1  0.5180130000000  0.5378400000000  0.5089050000000 1.0
C      1  0.5564610000000  0.5169950000000  0.5274750000000 1.0
C      1  0.5174510000000  0.4713190000000  0.4433770000000 1.0
C      1  0.4930910000000  0.5160720000000  0.4617240000000 1.0
C      1  0.4894250000000  0.4835900000000  0.5399650000000 1.0
C      1  0.5227000000000  0.4577970000000  0.4855800000000 1.0
C      1  0.4816700000000  0.5388530000000  0.4948130000000 1.0
C      1  0.4763280000000  0.4619640000000  0.5108920000000 1.0
C      1  0.5452310000000  0.4847680000000  0.4751900000000 1.0
C      1  0.4595590000000  0.5205420000000  0.4748080000000 1.0
C      1  0.4465470000000  0.4823340000000  0.5301740000000 1.0
C      1  0.5079930000000  0.5380800000000  0.5189330000000 1.0
C      1  0.5343430000000  0.5233210000000  0.5405110000000 1.0
C      1  0.5464070000000  0.5210180000000  0.5176360000000 1.0
C      1  0.5132810000000  0.4579070000000  0.4751760000000 1.0
C      1  0.4863020000000  0.4624320000000  0.5205810000000 1.0
C      1  0.4917230000000  0.5381090000000  0.4848320000000 1.0
C      1  0.5277160000000  0.4815390000000  0.4450130000000 1.0
C      1  0.4792120000000  0.4932370000000  0.5399840000000 1.0
C      1  0.4834050000000  0.5059200000000  0.4608310000000 1.0
C      1  0.5486600000000  0.4744390000000  0.4843380000000 1.0
C      1  0.4455030000000  0.4718170000000  0.5208750000000 1.0
C      1  0.4517640000000  0.5256710000000  0.4843050000000 1.0
C      1  0.4653520000000  0.5034070000000  0.5546310000000 1.0
C      1  0.4994210000000  0.5517890000000  0.4681690000000 1.0
C      1  0.5540610000000  0.4599150000000  0.5012350000000 1.0
C      1  0.4674110000000  0.4981620000000  0.4474740000000 1.0
C      1  0.5355310000000  0.5033840000000  0.4446710000000 1.0
C      1  0.5371650000000  0.5032980000000  0.5540650000000 1.0
C      1  0.4969540000000  0.4486080000000  0.5352710000000 1.0
C      1  0.5008040000000  0.5525870000000  0.5352640000000 1.0
C      1  0.4996350000000  0.4443770000000  0.4639990000000 1.0
C      1  0.5537560000000  0.5341030000000  0.5005900000000 1.0
C      1  0.4417520000000  0.4632410000000  0.4994680000000 1.0
C      1  0.4472900000000  0.5349330000000  0.5051180000000 1.0
C      1  0.4665010000000  0.5542020000000  0.5028190000000 1.0
C      1  0.4991270000000  0.4683930000000  0.5543520000000 1.0
C      1  0.5555930000000  0.5006170000000  0.4630320000000 1.0
C      1  0.4634130000000  0.4473390000000  0.4999070000000 1.0
C      1  0.5338510000000  0.4452460000000  0.5009700000000 1.0
C      1  0.5340330000000  0.5518970000000  0.5007490000000 1.0
C      1  0.5002240000000  0.5333130000000  0.4491700000000 1.0
C      1  0.5017070000000  0.5332960000000  0.5545310000000 1.0
C      1  0.5001240000000  0.4548720000000  0.4412150000000 1.0
C      1  0.5604110000000  0.4986500000000  0.5428530000000 1.0
C      1  0.4490910000000  0.4999890000000  0.4662200000000 1.0
C      1  0.4439840000000  0.5024180000000  0.5396850000000 1.0
END
