TITL C-112675-8135-67 1.76473137544302 1000000 -1688.3637234123 0 0 240 (C1) n - 1
REM
REM in /home/chem/mssmkc/work/GAP20/Larger-Clusters/Only-C240-new-series
REM
REM
REM
REM
REM
REM ./C.cell (2f3fc68bb9f120311d5b08947c2f1929)
REM
REM compiler GCC version 8.3.0
REM options -cpp -mtune=generic -march=x86-64 -g -O0
REM seed 784403623 -160298037 1043405323 -792497129 -1919308926 -2120457610 216882434 339589424 -351267402 -1406144512 1619035157 1449490285 -870518818 -1735522173 -1235603089 959700677 -2070597876 -1313209644 190840793 -1236954728 2015300449 -1760703555 -474306406 -1120900204 -1871118616 -1207871048 1080777359 143381484 514690005 1104075259 1947712541 5575567 725019079
REM
CELL 1.54180  100.00000  100.00000  100.00000   90.00000   90.00000   90.00000
LATT -1
SFAC C  
C      1  0.5409890000000  0.5307120000000  0.4426430000000 1.0
C      1  0.5281070000000  0.4353940000000  0.5402560000000 1.0
C      1  0.4389590000000  0.5412790000000  0.5259390000000 1.0
C      1  0.5411140000000  0.4741540000000  0.5594750000000 1.0
C      1  0.4589940000000  0.5306950000000  0.5652820000000 1.0
C      1  0.4600880000000  0.4719150000000  0.4366910000000 1.0
C      1  0.5269330000000  0.5619090000000  0.4585420000000 1.0
C      1  0.4714010000000  0.4432840000000  0.4602680000000 1.0
C      1  0.4695270000000  0.5581430000000  0.5402170000000 1.0
C      1  0.4399390000000  0.4581480000000  0.4748530000000 1.0
C      1  0.5645600000000  0.5404880000000  0.4717860000000 1.0
C      1  0.5559940000000  0.4592490000000  0.5282250000000 1.0
C      1  0.4604110000000  0.5289000000000  0.4434880000000 1.0
C      1  0.4713630000000  0.4358630000000  0.5408040000000 1.0
C      1  0.5640670000000  0.5400850000000  0.5285330000000 1.0
C      1  0.4593600000000  0.4747020000000  0.5607010000000 1.0
C      1  0.5405100000000  0.5299840000000  0.5577110000000 1.0
C      1  0.5419860000000  0.4748190000000  0.4396640000000 1.0
C      1  0.4725840000000  0.5614560000000  0.4579740000000 1.0
C      1  0.5282070000000  0.4361280000000  0.4586810000000 1.0
C      1  0.5254770000000  0.5602440000000  0.5409770000000 1.0
C      1  0.5562710000000  0.4595300000000  0.4710200000000 1.0
C      1  0.4343230000000  0.5401620000000  0.4698920000000 1.0
C      1  0.4426210000000  0.4596340000000  0.5304760000000 1.0
C      1  0.4286350000000  0.5359480000000  0.4915700000000 1.0
C      1  0.5380910000000  0.4956390000000  0.4307810000000 1.0
C      1  0.4925840000000  0.4296390000000  0.5365330000000 1.0
C      1  0.4319970000000  0.4630360000000  0.5096290000000 1.0
C      1  0.5699420000000  0.5358230000000  0.5072160000000 1.0
C      1  0.5652050000000  0.4628370000000  0.4925540000000 1.0
C      1  0.5369130000000  0.5090010000000  0.5680760000000 1.0
C      1  0.4634890000000  0.4950050000000  0.5704650000000 1.0
C      1  0.4647030000000  0.5077990000000  0.4340450000000 1.0
C      1  0.4925200000000  0.5720340000000  0.4623210000000 1.0
C      1  0.5064320000000  0.4313090000000  0.4628610000000 1.0
C      1  0.5048010000000  0.5691420000000  0.5363620000000 1.0
C      1  0.5700440000000  0.5359120000000  0.4931260000000 1.0
C      1  0.4646430000000  0.4937010000000  0.4323820000000 1.0
C      1  0.5066800000000  0.4293980000000  0.5365200000000 1.0
C      1  0.5651410000000  0.4627680000000  0.5068340000000 1.0
C      1  0.4292990000000  0.5365240000000  0.5057160000000 1.0
C      1  0.4306880000000  0.4623110000000  0.4954620000000 1.0
C      1  0.4636710000000  0.5091570000000  0.5711070000000 1.0
C      1  0.5371450000000  0.4947540000000  0.5688250000000 1.0
C      1  0.5375420000000  0.5098140000000  0.4321190000000 1.0
C      1  0.5067250000000  0.5722200000000  0.4624780000000 1.0
C      1  0.4923530000000  0.4330360000000  0.4632220000000 1.0
C      1  0.4905750000000  0.5681460000000  0.5359870000000 1.0
C      1  0.4421910000000  0.5493040000000  0.4772450000000 1.0
C      1  0.5532660000000  0.4825390000000  0.4430380000000 1.0
C      1  0.4791460000000  0.4444870000000  0.5488590000000 1.0
C      1  0.4447580000000  0.4478550000000  0.5223490000000 1.0
C      1  0.5554520000000  0.5482820000000  0.5208940000000 1.0
C      1  0.5531450000000  0.4479020000000  0.4791250000000 1.0
C      1  0.5520730000000  0.5216150000000  0.5551740000000 1.0
C      1  0.4482930000000  0.4827660000000  0.5576490000000 1.0
C      1  0.4493310000000  0.5200690000000  0.4465270000000 1.0
C      1  0.4805890000000  0.5591450000000  0.4466090000000 1.0
C      1  0.5210370000000  0.4449640000000  0.4503080000000 1.0
C      1  0.5176560000000  0.5577220000000  0.5524030000000 1.0
C      1  0.5558110000000  0.5485720000000  0.4793760000000 1.0
C      1  0.4513160000000  0.4789890000000  0.4451880000000 1.0
C      1  0.5205710000000  0.4442540000000  0.5482780000000 1.0
C      1  0.5530050000000  0.4476830000000  0.5199900000000 1.0
C      1  0.4420840000000  0.5520700000000  0.5175310000000 1.0
C      1  0.4430240000000  0.4468770000000  0.4827100000000 1.0
C      1  0.4500450000000  0.5230850000000  0.5574020000000 1.0
C      1  0.5525030000000  0.4818700000000  0.5564860000000 1.0
C      1  0.5526470000000  0.5223750000000  0.4450790000000 1.0
C      1  0.5193000000000  0.5597500000000  0.4469150000000 1.0
C      1  0.4799240000000  0.4467810000000  0.4490970000000 1.0
C      1  0.4778600000000  0.5562630000000  0.5518890000000 1.0
C      1  0.4316370000000  0.4672810000000  0.4823110000000 1.0
C      1  0.4696290000000  0.4808690000000  0.4299610000000 1.0
C      1  0.4794620000000  0.4336680000000  0.4685150000000 1.0
C      1  0.4306840000000  0.5317630000000  0.5189540000000 1.0
C      1  0.5649690000000  0.4678700000000  0.5198150000000 1.0
C      1  0.5719800000000  0.5310520000000  0.4801850000000 1.0
C      1  0.4685740000000  0.5221440000000  0.5725850000000 1.0
C      1  0.5318440000000  0.4817300000000  0.5675490000000 1.0
C      1  0.5322230000000  0.5226250000000  0.4334870000000 1.0
C      1  0.4777030000000  0.5667350000000  0.5308170000000 1.0
C      1  0.5195500000000  0.4273520000000  0.5314760000000 1.0
C      1  0.5195080000000  0.5699450000000  0.4680050000000 1.0
C      1  0.5651620000000  0.4680670000000  0.4796300000000 1.0
C      1  0.5329570000000  0.4825240000000  0.4314870000000 1.0
C      1  0.5192870000000  0.4286180000000  0.4676450000000 1.0
C      1  0.5716760000000  0.5308000000000  0.5201280000000 1.0
C      1  0.4335880000000  0.4685940000000  0.5223170000000 1.0
C      1  0.4273120000000  0.5306090000000  0.4787240000000 1.0
C      1  0.5318130000000  0.5219440000000  0.5670760000000 1.0
C      1  0.4687040000000  0.4819550000000  0.5689360000000 1.0
C      1  0.4694960000000  0.5208910000000  0.4346570000000 1.0
C      1  0.5179150000000  0.5678670000000  0.5313200000000 1.0
C      1  0.4796210000000  0.4279990000000  0.5315980000000 1.0
C      1  0.4795900000000  0.5698160000000  0.4674670000000 1.0
C      1  0.4804630000000  0.4750110000000  0.5705700000000 1.0
C      1  0.4726580000000  0.5711030000000  0.4791990000000 1.0
C      1  0.5716070000000  0.4791830000000  0.4749010000000 1.0
C      1  0.4806550000000  0.5263490000000  0.4288940000000 1.0
C      1  0.5212850000000  0.4758180000000  0.4290810000000 1.0
C      1  0.5206270000000  0.5271480000000  0.5729560000000 1.0
C      1  0.4733460000000  0.4236280000000  0.5198770000000 1.0
C      1  0.5247330000000  0.5695100000000  0.5195540000000 1.0
C      1  0.5251400000000  0.4233700000000  0.4791830000000 1.0
C      1  0.5759440000000  0.5189880000000  0.5262840000000 1.0
C      1  0.4285490000000  0.4804350000000  0.5270120000000 1.0
C      1  0.4237380000000  0.5183530000000  0.4730710000000 1.0
C      1  0.5199860000000  0.4750940000000  0.5694210000000 1.0
C      1  0.5258990000000  0.5709410000000  0.4800840000000 1.0
C      1  0.4292680000000  0.4788390000000  0.4754240000000 1.0
C      1  0.5206560000000  0.5276170000000  0.4281970000000 1.0
C      1  0.4815260000000  0.4750880000000  0.4254470000000 1.0
C      1  0.4804280000000  0.5282790000000  0.5765810000000 1.0
C      1  0.5255070000000  0.4224410000000  0.5198070000000 1.0
C      1  0.4727930000000  0.5716940000000  0.5190500000000 1.0
C      1  0.4744250000000  0.4274270000000  0.4796370000000 1.0
C      1  0.4289190000000  0.5203310000000  0.5263760000000 1.0
C      1  0.5713640000000  0.4789010000000  0.5248080000000 1.0
C      1  0.5763020000000  0.5192900000000  0.4739620000000 1.0
C      1  0.5502430000000  0.5098190000000  0.4395150000000 1.0
C      1  0.5070780000000  0.4402910000000  0.5468380000000 1.0
C      1  0.4376290000000  0.5491060000000  0.5046700000000 1.0
C      1  0.5503030000000  0.4947640000000  0.5614510000000 1.0
C      1  0.4517180000000  0.5099510000000  0.5620560000000 1.0
C      1  0.4529750000000  0.4925690000000  0.4417120000000 1.0
C      1  0.5069990000000  0.5660090000000  0.4488360000000 1.0
C      1  0.4930130000000  0.4423380000000  0.4517710000000 1.0
C      1  0.4904720000000  0.5615170000000  0.5491020000000 1.0
C      1  0.4380400000000  0.4491400000000  0.4955980000000 1.0
C      1  0.5595000000000  0.5466000000000  0.4928940000000 1.0
C      1  0.5573040000000  0.4503080000000  0.5068490000000 1.0
C      1  0.4526870000000  0.5069960000000  0.4425920000000 1.0
C      1  0.4925600000000  0.4404400000000  0.5469780000000 1.0
C      1  0.5593920000000  0.5464980000000  0.5074190000000 1.0
C      1  0.4508900000000  0.4956950000000  0.5621000000000 1.0
C      1  0.5496070000000  0.5090410000000  0.5606770000000 1.0
C      1  0.5511340000000  0.4955720000000  0.4383550000000 1.0
C      1  0.4927000000000  0.5657350000000  0.4487200000000 1.0
C      1  0.5074640000000  0.4413510000000  0.4518040000000 1.0
C      1  0.5047300000000  0.5624380000000  0.5498730000000 1.0
C      1  0.5573600000000  0.4503930000000  0.4923270000000 1.0
C      1  0.4376030000000  0.5479370000000  0.4904370000000 1.0
C      1  0.4391300000000  0.4501840000000  0.5098250000000 1.0
C      1  0.5743120000000  0.4919280000000  0.5300320000000 1.0
C      1  0.4939020000000  0.5327370000000  0.5760010000000 1.0
C      1  0.5306730000000  0.5688630000000  0.4931660000000 1.0
C      1  0.5755580000000  0.5058380000000  0.4694720000000 1.0
C      1  0.4285970000000  0.4915470000000  0.4695800000000 1.0
C      1  0.4295660000000  0.5074970000000  0.5319900000000 1.0
C      1  0.4949880000000  0.4702840000000  0.4265400000000 1.0
C      1  0.5072780000000  0.5321050000000  0.4265640000000 1.0
C      1  0.5069910000000  0.4698370000000  0.5684210000000 1.0
C      1  0.5298640000000  0.4224810000000  0.5062160000000 1.0
C      1  0.4674890000000  0.5722700000000  0.5056140000000 1.0
C      1  0.4693600000000  0.4248970000000  0.4928150000000 1.0
C      1  0.4278720000000  0.4940070000000  0.5320190000000 1.0
C      1  0.5074690000000  0.5323410000000  0.5752730000000 1.0
C      1  0.4673340000000  0.5703960000000  0.4921600000000 1.0
C      1  0.4258320000000  0.5048010000000  0.4688430000000 1.0
C      1  0.5745960000000  0.4922840000000  0.4698580000000 1.0
C      1  0.5752560000000  0.5054760000000  0.5305800000000 1.0
C      1  0.5083580000000  0.4704520000000  0.4287870000000 1.0
C      1  0.4936690000000  0.5316510000000  0.4266840000000 1.0
C      1  0.4934150000000  0.4698350000000  0.5687860000000 1.0
C      1  0.4689510000000  0.4241390000000  0.5063800000000 1.0
C      1  0.5303620000000  0.5684840000000  0.5067310000000 1.0
C      1  0.5297580000000  0.4227330000000  0.4926650000000 1.0
C      1  0.4533270000000  0.4372260000000  0.5258710000000 1.0
C      1  0.4378680000000  0.5241380000000  0.4534770000000 1.0
C      1  0.5270630000000  0.4567440000000  0.4449120000000 1.0
C      1  0.4543350000000  0.5548690000000  0.4721430000000 1.0
C      1  0.5453460000000  0.4371260000000  0.4744950000000 1.0
C      1  0.5436730000000  0.5539550000000  0.5266800000000 1.0
C      1  0.4413670000000  0.4764830000000  0.5473090000000 1.0
C      1  0.5626180000000  0.5250400000000  0.5464670000000 1.0
C      1  0.5594320000000  0.4761300000000  0.4538970000000 1.0
C      1  0.5239050000000  0.5472650000000  0.5593790000000 1.0
C      1  0.4734620000000  0.4562870000000  0.5545960000000 1.0
C      1  0.4757600000000  0.5473840000000  0.4405520000000 1.0
C      1  0.5453020000000  0.4367960000000  0.5245150000000 1.0
C      1  0.5632660000000  0.5257040000000  0.4537100000000 1.0
C      1  0.4756430000000  0.4546870000000  0.4383340000000 1.0
C      1  0.5442760000000  0.5545430000000  0.4733840000000 1.0
C      1  0.4538920000000  0.4404800000000  0.4765400000000 1.0
C      1  0.4524450000000  0.5591410000000  0.5236170000000 1.0
C      1  0.5588940000000  0.4756400000000  0.5456310000000 1.0
C      1  0.4444360000000  0.5279680000000  0.5451960000000 1.0
C      1  0.4455550000000  0.4729110000000  0.4567810000000 1.0
C      1  0.4743730000000  0.5482010000000  0.5628960000000 1.0
C      1  0.5264320000000  0.4561420000000  0.5535990000000 1.0
C      1  0.5245620000000  0.5483230000000  0.4406150000000 1.0
C      1  0.4612070000000  0.5436990000000  0.5630340000000 1.0
C      1  0.5378220000000  0.5529770000000  0.4601280000000 1.0
C      1  0.5513770000000  0.4638830000000  0.5411030000000 1.0
C      1  0.4622990000000  0.4587440000000  0.4382140000000 1.0
C      1  0.5363580000000  0.5433270000000  0.4478760000000 1.0
C      1  0.5394390000000  0.4627500000000  0.5511900000000 1.0
C      1  0.5412190000000  0.4372570000000  0.5378660000000 1.0
C      1  0.4569030000000  0.5526700000000  0.5359350000000 1.0
C      1  0.4585080000000  0.4479590000000  0.4647910000000 1.0
C      1  0.5631330000000  0.5387560000000  0.4585450000000 1.0
C      1  0.4482510000000  0.4599340000000  0.4634970000000 1.0
C      1  0.4469350000000  0.5404690000000  0.5376640000000 1.0
C      1  0.5358080000000  0.5424880000000  0.5522700000000 1.0
C      1  0.4617510000000  0.5524650000000  0.4594900000000 1.0
C      1  0.4481710000000  0.4643320000000  0.5428960000000 1.0
C      1  0.5400590000000  0.4633020000000  0.4477350000000 1.0
C      1  0.4640910000000  0.5421590000000  0.4478560000000 1.0
C      1  0.4605110000000  0.4631030000000  0.5525790000000 1.0
C      1  0.4581890000000  0.4376390000000  0.5389030000000 1.0
C      1  0.5369740000000  0.5520070000000  0.5397660000000 1.0
C      1  0.5413410000000  0.4376850000000  0.4611210000000 1.0
C      1  0.4369050000000  0.5376020000000  0.4569870000000 1.0
C      1  0.5518440000000  0.4643020000000  0.4581300000000 1.0
C      1  0.5623760000000  0.5381200000000  0.5417080000000 1.0
C      1  0.4357800000000  0.5187120000000  0.5382560000000 1.0
C      1  0.5175600000000  0.5406690000000  0.4313660000000 1.0
C      1  0.5379110000000  0.4275210000000  0.5164810000000 1.0
C      1  0.4362500000000  0.4812780000000  0.4637300000000 1.0
C      1  0.5716320000000  0.5166690000000  0.4612450000000 1.0
C      1  0.5686060000000  0.4818880000000  0.5379780000000 1.0
C      1  0.5178350000000  0.4634290000000  0.5623280000000 1.0
C      1  0.4831960000000  0.5408280000000  0.5715500000000 1.0
C      1  0.4841620000000  0.4622960000000  0.4298290000000 1.0
C      1  0.5371620000000  0.5631930000000  0.4821540000000 1.0
C      1  0.4614200000000  0.4306740000000  0.4828040000000 1.0
C      1  0.4596660000000  0.5685170000000  0.5164980000000 1.0
C      1  0.5711410000000  0.5161760000000  0.5389120000000 1.0
C      1  0.4830060000000  0.5396720000000  0.4315300000000 1.0
C      1  0.4607450000000  0.4285070000000  0.5170830000000 1.0
C      1  0.5690040000000  0.4823360000000  0.4617430000000 1.0
C      1  0.4291640000000  0.5155180000000  0.4607300000000 1.0
C      1  0.4318340000000  0.4833370000000  0.5400360000000 1.0
C      1  0.4822990000000  0.4634270000000  0.5632250000000 1.0
C      1  0.5175290000000  0.5400930000000  0.5693630000000 1.0
C      1  0.5187030000000  0.4640350000000  0.4358650000000 1.0
C      1  0.4611230000000  0.5637840000000  0.4811610000000 1.0
C      1  0.5377460000000  0.4279700000000  0.4824550000000 1.0
C      1  0.5365030000000  0.5624850000000  0.5177910000000 1.0
END
