TITL C-112675-8135-21 57.4116179291852 1000000 -1758.11581971125 0 0 240 (C1) n - 1
REM
REM in /home/chem/mssmkc/work/GAP20/Larger-Clusters/Only-C240-new-series
REM
REM
REM
REM
REM
REM ./C.cell (2f3fc68bb9f120311d5b08947c2f1929)
REM
REM compiler GCC version 8.3.0
REM options -cpp -mtune=generic -march=x86-64 -g -O0
REM seed 2112467108 696648522 348047620 -241823198 -1758652869 -363842830 892821171 -1086672227 1728490862 -554522366 -717164300 -852991518 -1101832521 -1540670804 -1509325174 -990188168 -308669876 1455133055 -1523749362 688499004 1111663735 -2130664541 2140125834 1713641343 -1824279264 -1740526610 -655657042 -1376292815 758236682 1864367241 1586927900 432068475 -608572158
REM
CELL 1.54180  100.00000  100.00000  100.00000   90.00000   90.00000   90.00000
LATT -1
SFAC C  
C      1  0.5358140000000  0.5288210000000  0.4516450000000 1.0
C      1  0.5287740000000  0.4515600000000  0.5354850000000 1.0
C      1  0.4513990000000  0.5354240000000  0.5292330000000 1.0
C      1  0.5353470000000  0.4715910000000  0.5483420000000 1.0
C      1  0.4646530000000  0.5284410000000  0.5488720000000 1.0
C      1  0.4641780000000  0.4707860000000  0.4512260000000 1.0
C      1  0.5292460000000  0.5487840000000  0.4645890000000 1.0
C      1  0.4706840000000  0.4507640000000  0.4642180000000 1.0
C      1  0.4713500000000  0.5483500000000  0.5358640000000 1.0
C      1  0.4509760000000  0.4640380000000  0.4710010000000 1.0
C      1  0.5489650000000  0.5355710000000  0.4714750000000 1.0
C      1  0.5484550000000  0.4646820000000  0.5285570000000 1.0
C      1  0.4642620000000  0.5292920000000  0.4511270000000 1.0
C      1  0.4721420000000  0.4521560000000  0.5346450000000 1.0
C      1  0.5481440000000  0.5349420000000  0.5282490000000 1.0
C      1  0.4652020000000  0.4717950000000  0.5479040000000 1.0
C      1  0.5352170000000  0.5282000000000  0.5481000000000 1.0
C      1  0.5350310000000  0.4719180000000  0.4523050000000 1.0
C      1  0.4707970000000  0.5490680000000  0.4643980000000 1.0
C      1  0.5287720000000  0.4515840000000  0.4650360000000 1.0
C      1  0.5281270000000  0.5479030000000  0.5349090000000 1.0
C      1  0.5484500000000  0.4647530000000  0.4717610000000 1.0
C      1  0.4509860000000  0.5358260000000  0.4708930000000 1.0
C      1  0.4522510000000  0.4653420000000  0.5278850000000 1.0
C      1  0.5182870000000  0.4364890000000  0.5179370000000 1.0
C      1  0.4365240000000  0.5172100000000  0.5195420000000 1.0
C      1  0.5180070000000  0.5182570000000  0.4368950000000 1.0
C      1  0.5195460000000  0.5635240000000  0.4829140000000 1.0
C      1  0.4804730000000  0.4361700000000  0.4826830000000 1.0
C      1  0.4818520000000  0.5632750000000  0.5181650000000 1.0
C      1  0.4364760000000  0.4820180000000  0.4817300000000 1.0
C      1  0.5626160000000  0.5171360000000  0.4823640000000 1.0
C      1  0.5624000000000  0.4829190000000  0.5177750000000 1.0
C      1  0.5171340000000  0.4818350000000  0.5629420000000 1.0
C      1  0.4830880000000  0.5179780000000  0.5631140000000 1.0
C      1  0.4827410000000  0.4805680000000  0.4367570000000 1.0
C      1  0.4828230000000  0.4378530000000  0.5163890000000 1.0
C      1  0.5629940000000  0.5169370000000  0.5181300000000 1.0
C      1  0.4818270000000  0.5194730000000  0.4363690000000 1.0
C      1  0.4805970000000  0.5638480000000  0.4819700000000 1.0
C      1  0.5194360000000  0.4359130000000  0.4819310000000 1.0
C      1  0.5173250000000  0.5620890000000  0.5166200000000 1.0
C      1  0.5629640000000  0.4829760000000  0.4820530000000 1.0
C      1  0.4361480000000  0.5182660000000  0.4806430000000 1.0
C      1  0.4379510000000  0.4835910000000  0.5172460000000 1.0
C      1  0.4831390000000  0.4822370000000  0.5623290000000 1.0
C      1  0.5172160000000  0.5175760000000  0.5623740000000 1.0
C      1  0.5165550000000  0.4827940000000  0.4383200000000 1.0
C      1  0.4482190000000  0.5523880000000  0.4931090000000 1.0
C      1  0.5527400000000  0.4928210000000  0.4491400000000 1.0
C      1  0.4929320000000  0.4487100000000  0.5524310000000 1.0
C      1  0.4489630000000  0.4476290000000  0.5070790000000 1.0
C      1  0.5512120000000  0.5525110000000  0.5072460000000 1.0
C      1  0.5520960000000  0.4471250000000  0.4929170000000 1.0
C      1  0.5529600000000  0.5071770000000  0.5511740000000 1.0
C      1  0.4475200000000  0.4927750000000  0.5512210000000 1.0
C      1  0.4476230000000  0.5071410000000  0.4482880000000 1.0
C      1  0.4929900000000  0.5518510000000  0.4478120000000 1.0
C      1  0.5070490000000  0.4491210000000  0.4481370000000 1.0
C      1  0.5072980000000  0.5510870000000  0.5526250000000 1.0
C      1  0.5517110000000  0.5529910000000  0.4928170000000 1.0
C      1  0.4475840000000  0.4926600000000  0.4489690000000 1.0
C      1  0.5073810000000  0.4487860000000  0.5528420000000 1.0
C      1  0.5513960000000  0.4471220000000  0.5074170000000 1.0
C      1  0.4489790000000  0.5523110000000  0.5075890000000 1.0
C      1  0.4483920000000  0.4469390000000  0.4926620000000 1.0
C      1  0.4471820000000  0.5072130000000  0.5516700000000 1.0
C      1  0.5527820000000  0.4927260000000  0.5513320000000 1.0
C      1  0.5528820000000  0.5072660000000  0.4488490000000 1.0
C      1  0.5074700000000  0.5511280000000  0.4478350000000 1.0
C      1  0.4926350000000  0.4486120000000  0.4475710000000 1.0
C      1  0.4928540000000  0.5509960000000  0.5530750000000 1.0
C      1  0.4927980000000  0.5076160000000  0.5646330000000 1.0
C      1  0.5107800000000  0.5649450000000  0.4930450000000 1.0
C      1  0.5644130000000  0.4924590000000  0.5074170000000 1.0
C      1  0.4929340000000  0.4892860000000  0.4354160000000 1.0
C      1  0.5071440000000  0.5084170000000  0.4346180000000 1.0
C      1  0.5074800000000  0.4922200000000  0.5645890000000 1.0
C      1  0.5084370000000  0.4340900000000  0.5071130000000 1.0
C      1  0.4916660000000  0.5656250000000  0.5072880000000 1.0
C      1  0.4892760000000  0.4347890000000  0.4928200000000 1.0
C      1  0.5644850000000  0.5075310000000  0.4927100000000 1.0
C      1  0.4342660000000  0.4929020000000  0.4915940000000 1.0
C      1  0.4350190000000  0.5071280000000  0.5107310000000 1.0
C      1  0.5076620000000  0.5072640000000  0.5644100000000 1.0
C      1  0.4848450000000  0.5690990000000  0.4951620000000 1.0
C      1  0.4355350000000  0.4939810000000  0.5065210000000 1.0
C      1  0.5060890000000  0.4934940000000  0.4359370000000 1.0
C      1  0.4950120000000  0.5152150000000  0.4311160000000 1.0
C      1  0.4926450000000  0.4925690000000  0.5644200000000 1.0
C      1  0.4935130000000  0.4353810000000  0.5059680000000 1.0
C      1  0.5065920000000  0.5644220000000  0.5062000000000 1.0
C      1  0.5152490000000  0.4305250000000  0.4950260000000 1.0
C      1  0.4308500000000  0.5050700000000  0.4848330000000 1.0
C      1  0.5645970000000  0.4926650000000  0.4923740000000 1.0
C      1  0.5646420000000  0.5073000000000  0.5077600000000 1.0
C      1  0.4600690000000  0.5468250000000  0.5276300000000 1.0
C      1  0.5471370000000  0.5272040000000  0.4602760000000 1.0
C      1  0.5271340000000  0.4602730000000  0.5467350000000 1.0
C      1  0.4593270000000  0.4524880000000  0.4724060000000 1.0
C      1  0.5406850000000  0.5471550000000  0.4727060000000 1.0
C      1  0.5400590000000  0.4531140000000  0.5272120000000 1.0
C      1  0.5467440000000  0.4730350000000  0.5397530000000 1.0
C      1  0.4530290000000  0.5272300000000  0.5405720000000 1.0
C      1  0.4527030000000  0.4724020000000  0.4598220000000 1.0
C      1  0.5275770000000  0.5401140000000  0.4531920000000 1.0
C      1  0.4722350000000  0.4593440000000  0.4528140000000 1.0
C      1  0.4729620000000  0.5396680000000  0.5471470000000 1.0
C      1  0.5393930000000  0.5462240000000  0.5266760000000 1.0
C      1  0.4528030000000  0.5277580000000  0.4593960000000 1.0
C      1  0.4735220000000  0.4605380000000  0.5461090000000 1.0
C      1  0.5403010000000  0.4530480000000  0.4729840000000 1.0
C      1  0.4592980000000  0.5472520000000  0.4724670000000 1.0
C      1  0.4608590000000  0.4540250000000  0.5263840000000 1.0
C      1  0.4539100000000  0.4734250000000  0.5392710000000 1.0
C      1  0.5466020000000  0.5267610000000  0.5395850000000 1.0
C      1  0.5465280000000  0.4732310000000  0.4606320000000 1.0
C      1  0.4723500000000  0.5407740000000  0.4529570000000 1.0
C      1  0.5268980000000  0.4605520000000  0.4540910000000 1.0
C      1  0.5268240000000  0.5394140000000  0.5463180000000 1.0
C      1  0.5034710000000  0.4659400000000  0.4258790000000 1.0
C      1  0.4658810000000  0.4253510000000  0.5034700000000 1.0
C      1  0.4266790000000  0.5026710000000  0.4707040000000 1.0
C      1  0.5032830000000  0.5334960000000  0.5745130000000 1.0
C      1  0.4970340000000  0.4662330000000  0.5743790000000 1.0
C      1  0.4974900000000  0.5293340000000  0.4269420000000 1.0
C      1  0.4707190000000  0.5732400000000  0.4976480000000 1.0
C      1  0.5293950000000  0.4263690000000  0.4974540000000 1.0
C      1  0.5341440000000  0.5746140000000  0.5035310000000 1.0
C      1  0.4254530000000  0.4965740000000  0.5341390000000 1.0
C      1  0.5799060000000  0.5082300000000  0.5358930000000 1.0
C      1  0.5798800000000  0.4916250000000  0.4642120000000 1.0
C      1  0.4922790000000  0.4630060000000  0.4206760000000 1.0
C      1  0.5350430000000  0.4205930000000  0.5080870000000 1.0
C      1  0.5745860000000  0.5029630000000  0.4664740000000 1.0
C      1  0.4920330000000  0.5356480000000  0.5800380000000 1.0
C      1  0.5083230000000  0.4640560000000  0.5798150000000 1.0
C      1  0.5080720000000  0.5349340000000  0.4210000000000 1.0
C      1  0.5371310000000  0.5796750000000  0.4922880000000 1.0
C      1  0.4628570000000  0.4201820000000  0.4922850000000 1.0
C      1  0.4651070000000  0.5791230000000  0.5082560000000 1.0
C      1  0.5745650000000  0.4969070000000  0.5336800000000 1.0
C      1  0.4204240000000  0.5078200000000  0.5371710000000 1.0
C      1  0.4206750000000  0.4921470000000  0.4650640000000 1.0
C      1  0.4869980000000  0.4687520000000  0.5650890000000 1.0
C      1  0.4668760000000  0.5661190000000  0.4855970000000 1.0
C      1  0.5665650000000  0.4857790000000  0.4683910000000 1.0
C      1  0.4854570000000  0.5331910000000  0.4340830000000 1.0
C      1  0.5130370000000  0.4692220000000  0.4354890000000 1.0
C      1  0.5133160000000  0.5310380000000  0.5652110000000 1.0
C      1  0.4692310000000  0.4350300000000  0.5129410000000 1.0
C      1  0.5308810000000  0.5650110000000  0.5131070000000 1.0
C      1  0.5331810000000  0.4335940000000  0.4854420000000 1.0
C      1  0.5666170000000  0.5141840000000  0.5317800000000 1.0
C      1  0.4350700000000  0.4870160000000  0.5308310000000 1.0
C      1  0.4338670000000  0.5146970000000  0.4669090000000 1.0
C      1  0.5143290000000  0.4681740000000  0.5665400000000 1.0
C      1  0.5333320000000  0.5672390000000  0.4852580000000 1.0
C      1  0.4330450000000  0.4852450000000  0.4680630000000 1.0
C      1  0.5148780000000  0.5319340000000  0.4334210000000 1.0
C      1  0.4851470000000  0.4667990000000  0.4330420000000 1.0
C      1  0.4859480000000  0.5316120000000  0.5667750000000 1.0
C      1  0.5319840000000  0.4330300000000  0.5148550000000 1.0
C      1  0.4681630000000  0.5667020000000  0.5150400000000 1.0
C      1  0.4666790000000  0.4325520000000  0.4851470000000 1.0
C      1  0.4328690000000  0.5148090000000  0.5333280000000 1.0
C      1  0.5653340000000  0.4868060000000  0.5312230000000 1.0
C      1  0.5654790000000  0.5131760000000  0.4689080000000 1.0
C      1  0.5163220000000  0.5410530000000  0.5556390000000 1.0
C      1  0.5410420000000  0.5554560000000  0.5161570000000 1.0
C      1  0.5562760000000  0.5164370000000  0.5413880000000 1.0
C      1  0.5161330000000  0.4590810000000  0.4450480000000 1.0
C      1  0.4831710000000  0.5428130000000  0.4439340000000 1.0
C      1  0.4839690000000  0.4587830000000  0.5554750000000 1.0
C      1  0.5427210000000  0.4435760000000  0.4832890000000 1.0
C      1  0.4572580000000  0.5562720000000  0.4832910000000 1.0
C      1  0.4591600000000  0.4446960000000  0.5159410000000 1.0
C      1  0.5561280000000  0.4835910000000  0.4588750000000 1.0
C      1  0.4437510000000  0.5169680000000  0.4573190000000 1.0
C      1  0.4445990000000  0.4839010000000  0.5409940000000 1.0
C      1  0.4835650000000  0.5412810000000  0.5565030000000 1.0
C      1  0.4583320000000  0.5561890000000  0.5171040000000 1.0
C      1  0.4434090000000  0.5169050000000  0.5425220000000 1.0
C      1  0.4828860000000  0.4575560000000  0.4435320000000 1.0
C      1  0.5169840000000  0.5418070000000  0.4438970000000 1.0
C      1  0.5166500000000  0.4585470000000  0.5562140000000 1.0
C      1  0.4574520000000  0.4430450000000  0.4829190000000 1.0
C      1  0.5425810000000  0.5567660000000  0.4830880000000 1.0
C      1  0.5418540000000  0.4434740000000  0.5168930000000 1.0
C      1  0.4435360000000  0.4831100000000  0.4582080000000 1.0
C      1  0.5560820000000  0.5163710000000  0.4587840000000 1.0
C      1  0.5558800000000  0.4836870000000  0.5413180000000 1.0
C      1  0.4822690000000  0.5569180000000  0.5310950000000 1.0
C      1  0.5572490000000  0.5307680000000  0.4824500000000 1.0
C      1  0.5306250000000  0.4824230000000  0.5568300000000 1.0
C      1  0.4815430000000  0.4423450000000  0.4691300000000 1.0
C      1  0.5184250000000  0.5571750000000  0.4694520000000 1.0
C      1  0.5178940000000  0.4429150000000  0.5308260000000 1.0
C      1  0.5567930000000  0.4693830000000  0.5176590000000 1.0
C      1  0.4429140000000  0.5306520000000  0.5184430000000 1.0
C      1  0.4426190000000  0.4689800000000  0.4820510000000 1.0
C      1  0.5309660000000  0.5178520000000  0.4431730000000 1.0
C      1  0.4691980000000  0.4816690000000  0.4429760000000 1.0
C      1  0.4695010000000  0.5175010000000  0.5571820000000 1.0
C      1  0.5171580000000  0.5564950000000  0.5301720000000 1.0
C      1  0.4425480000000  0.5308600000000  0.4820880000000 1.0
C      1  0.4696830000000  0.4824840000000  0.5565980000000 1.0
C      1  0.5178260000000  0.4427420000000  0.4695700000000 1.0
C      1  0.4820160000000  0.5574790000000  0.4693640000000 1.0
C      1  0.4830320000000  0.4434780000000  0.5299330000000 1.0
C      1  0.4436170000000  0.4700770000000  0.5169990000000 1.0
C      1  0.5567430000000  0.5303460000000  0.5175040000000 1.0
C      1  0.5569480000000  0.4694540000000  0.4825970000000 1.0
C      1  0.4692150000000  0.5180660000000  0.4427250000000 1.0
C      1  0.5301510000000  0.4829200000000  0.4438360000000 1.0
C      1  0.5307090000000  0.5174180000000  0.5567110000000 1.0
C      1  0.5398150000000  0.5071490000000  0.5576330000000 1.0
C      1  0.5070640000000  0.5575120000000  0.5395710000000 1.0
C      1  0.5576790000000  0.5394330000000  0.5072180000000 1.0
C      1  0.5395140000000  0.4930100000000  0.4428120000000 1.0
C      1  0.4608120000000  0.5070870000000  0.4424060000000 1.0
C      1  0.4605790000000  0.4927500000000  0.5576460000000 1.0
C      1  0.5069860000000  0.4425010000000  0.4610850000000 1.0
C      1  0.4930190000000  0.5577670000000  0.4609880000000 1.0
C      1  0.4931180000000  0.4423500000000  0.5393430000000 1.0
C      1  0.5579510000000  0.4603910000000  0.4929900000000 1.0
C      1  0.4422700000000  0.5392280000000  0.4930970000000 1.0
C      1  0.4425680000000  0.4607110000000  0.5069080000000 1.0
C      1  0.4604770000000  0.5071230000000  0.5579490000000 1.0
C      1  0.4927300000000  0.5575760000000  0.5400090000000 1.0
C      1  0.4427620000000  0.5390700000000  0.5075780000000 1.0
C      1  0.4608650000000  0.4925990000000  0.4428370000000 1.0
C      1  0.5398630000000  0.5073480000000  0.4424090000000 1.0
C      1  0.5396920000000  0.4927630000000  0.5577600000000 1.0
C      1  0.4925140000000  0.4421930000000  0.4608080000000 1.0
C      1  0.5075060000000  0.5573030000000  0.4610930000000 1.0
C      1  0.5074500000000  0.4422450000000  0.5397590000000 1.0
C      1  0.4420280000000  0.4601210000000  0.4925960000000 1.0
C      1  0.5580360000000  0.5397680000000  0.4928460000000 1.0
C      1  0.5575360000000  0.4603420000000  0.5073500000000 1.0
END
