TITL C-112676-196-138 -15.2743389499803 1000000 -1632.31045725726 0 0 240 (C1) n - 1
REM
REM in /home/chem/mssmkc/work/GAP20/Larger-Clusters/Only-C240-new-series
REM
REM
REM
REM
REM
REM ./C.cell (db83009d4c1eceb3c2f0bef44cf3317a)
REM
REM compiler GCC version 8.3.0
REM options -cpp -mtune=generic -march=x86-64 -g -O0
REM seed 289476639 84830168 2005295086 2105998714 -1108004416 2027642187 403694600 1113901365 -964275287 1385298719 807718140 602170017 1572818616 -1762140673 -161844681 282661439 286272750 370374527 -211434962 -1136606005 379445357 854399333 -1743132073 633604827 1629560381 21133880 -1164051326 362070372 -1271828114 334131667 -2140507505 -883854492 -1811963832
REM
CELL 1.54180  100.00000  100.00000  100.00000   90.00000   90.00000   90.00000
LATT -1
SFAC C  
C      1  0.4851550000000  0.5123970000000  0.4337770000000 1.0
C      1  0.5174920000000  0.4297550000000  0.4934560000000 1.0
C      1  0.4313680000000  0.4938930000000  0.5118780000000 1.0
C      1  0.5135960000000  0.4766280000000  0.4281440000000 1.0
C      1  0.4920250000000  0.4837520000000  0.5688950000000 1.0
C      1  0.5078540000000  0.5200200000000  0.5698790000000 1.0
C      1  0.4806090000000  0.5725450000000  0.4896380000000 1.0
C      1  0.5165790000000  0.5694390000000  0.5059250000000 1.0
C      1  0.4808400000000  0.4295480000000  0.5092470000000 1.0
C      1  0.5709650000000  0.5121710000000  0.5211720000000 1.0
C      1  0.4317830000000  0.5152710000000  0.4928010000000 1.0
C      1  0.5723050000000  0.4869750000000  0.4764650000000 1.0
C      1  0.5236060000000  0.4851180000000  0.4278710000000 1.0
C      1  0.4356270000000  0.5236890000000  0.5025550000000 1.0
C      1  0.4897380000000  0.4286270000000  0.5186530000000 1.0
C      1  0.4765500000000  0.5029450000000  0.4386060000000 1.0
C      1  0.4827130000000  0.4930760000000  0.5672070000000 1.0
C      1  0.5174730000000  0.5113950000000  0.5711160000000 1.0
C      1  0.5720620000000  0.4780040000000  0.4862190000000 1.0
C      1  0.5687220000000  0.5215900000000  0.5121090000000 1.0
C      1  0.4310010000000  0.4830430000000  0.5042990000000 1.0
C      1  0.5069850000000  0.5683320000000  0.5149930000000 1.0
C      1  0.5081960000000  0.4302580000000  0.4839060000000 1.0
C      1  0.4891890000000  0.5722890000000  0.4797920000000 1.0
C      1  0.5576330000000  0.5319700000000  0.4781820000000 1.0
C      1  0.5223440000000  0.4817780000000  0.5596130000000 1.0
C      1  0.4762520000000  0.5592720000000  0.5331970000000 1.0
C      1  0.4417230000000  0.4652860000000  0.4768760000000 1.0
C      1  0.5605240000000  0.4774770000000  0.5193550000000 1.0
C      1  0.4395560000000  0.5352270000000  0.5224160000000 1.0
C      1  0.4663280000000  0.5228000000000  0.5566600000000 1.0
C      1  0.5235410000000  0.5157500000000  0.4378910000000 1.0
C      1  0.4684130000000  0.4813800000000  0.4434630000000 1.0
C      1  0.5187270000000  0.4397470000000  0.5232910000000 1.0
C      1  0.4781720000000  0.4406510000000  0.4672010000000 1.0
C      1  0.5189280000000  0.5575770000000  0.4765650000000 1.0
C      1  0.5329450000000  0.5560400000000  0.4793080000000 1.0
C      1  0.4768150000000  0.5348260000000  0.5576360000000 1.0
C      1  0.5585840000000  0.4804910000000  0.5334340000000 1.0
C      1  0.4658560000000  0.4398410000000  0.4774460000000 1.0
C      1  0.4643470000000  0.5608020000000  0.5228020000000 1.0
C      1  0.5327620000000  0.4416660000000  0.5200680000000 1.0
C      1  0.5192980000000  0.4676530000000  0.5582040000000 1.0
C      1  0.5187310000000  0.5295800000000  0.4407650000000 1.0
C      1  0.4819620000000  0.4770750000000  0.4404650000000 1.0
C      1  0.4414650000000  0.5230580000000  0.5316940000000 1.0
C      1  0.4432710000000  0.4779130000000  0.4677080000000 1.0
C      1  0.5589290000000  0.5208700000000  0.4666350000000 1.0
C      1  0.4849050000000  0.4648060000000  0.4470920000000 1.0
C      1  0.4637980000000  0.4389470000000  0.4902930000000 1.0
C      1  0.4424580000000  0.4910380000000  0.4681170000000 1.0
C      1  0.5066580000000  0.5352220000000  0.4404670000000 1.0
C      1  0.4895960000000  0.5372860000000  0.5572980000000 1.0
C      1  0.5075570000000  0.4613540000000  0.5590970000000 1.0
C      1  0.5396590000000  0.5568130000000  0.4908760000000 1.0
C      1  0.4626640000000  0.5621080000000  0.5099490000000 1.0
C      1  0.5392670000000  0.4405880000000  0.5084470000000 1.0
C      1  0.5610490000000  0.5082280000000  0.4637080000000 1.0
C      1  0.4432580000000  0.5100920000000  0.5323340000000 1.0
C      1  0.5597490000000  0.4922050000000  0.5398590000000 1.0
C      1  0.4651390000000  0.4950790000000  0.4435630000000 1.0
C      1  0.4422460000000  0.4605300000000  0.4890510000000 1.0
C      1  0.4911170000000  0.4403570000000  0.4653550000000 1.0
C      1  0.5360360000000  0.5137170000000  0.4443940000000 1.0
C      1  0.5348410000000  0.4844610000000  0.5537550000000 1.0
C      1  0.4647990000000  0.5099050000000  0.5553810000000 1.0
C      1  0.5588100000000  0.5338780000000  0.4910970000000 1.0
C      1  0.5537950000000  0.4653550000000  0.5158750000000 1.0
C      1  0.4389500000000  0.5361100000000  0.5086880000000 1.0
C      1  0.5156710000000  0.5513070000000  0.4643120000000 1.0
C      1  0.5156400000000  0.4462750000000  0.5353560000000 1.0
C      1  0.4892120000000  0.5579850000000  0.5343420000000 1.0
C      1  0.4579630000000  0.4471160000000  0.4671890000000 1.0
C      1  0.4507570000000  0.4689300000000  0.4582650000000 1.0
C      1  0.4715280000000  0.4593680000000  0.4507690000000 1.0
C      1  0.5385400000000  0.5483220000000  0.4680080000000 1.0
C      1  0.4557570000000  0.5538710000000  0.5325600000000 1.0
C      1  0.5383580000000  0.4501110000000  0.5308020000000 1.0
C      1  0.5505840000000  0.5296550000000  0.4584520000000 1.0
C      1  0.4469670000000  0.5329130000000  0.5416440000000 1.0
C      1  0.5501330000000  0.4695340000000  0.5388510000000 1.0
C      1  0.5297660000000  0.5360710000000  0.4486300000000 1.0
C      1  0.4663110000000  0.5434280000000  0.5521150000000 1.0
C      1  0.5303100000000  0.4617900000000  0.5503190000000 1.0
C      1  0.4487610000000  0.4575250000000  0.4666740000000 1.0
C      1  0.4690610000000  0.4482560000000  0.4584640000000 1.0
C      1  0.4618240000000  0.4698410000000  0.4497780000000 1.0
C      1  0.5495250000000  0.5398300000000  0.4682990000000 1.0
C      1  0.5484400000000  0.4595310000000  0.5289730000000 1.0
C      1  0.4459300000000  0.5437720000000  0.5322050000000 1.0
C      1  0.5283780000000  0.5460140000000  0.4584120000000 1.0
C      1  0.5286300000000  0.4516480000000  0.5409240000000 1.0
C      1  0.4661400000000  0.5533120000000  0.5423620000000 1.0
C      1  0.5406000000000  0.5271080000000  0.4492190000000 1.0
C      1  0.5405400000000  0.4713790000000  0.5487420000000 1.0
C      1  0.4567600000000  0.5328090000000  0.5513230000000 1.0
C      1  0.4672510000000  0.5519010000000  0.4619570000000 1.0
C      1  0.5520530000000  0.4588490000000  0.4671890000000 1.0
C      1  0.4602690000000  0.4707410000000  0.5480440000000 1.0
C      1  0.5305010000000  0.4472550000000  0.4605190000000 1.0
C      1  0.4674680000000  0.4488140000000  0.5389480000000 1.0
C      1  0.5283570000000  0.5524930000000  0.5386800000000 1.0
C      1  0.4473750000000  0.5415050000000  0.4724370000000 1.0
C      1  0.5494880000000  0.5398490000000  0.5310660000000 1.0
C      1  0.4481660000000  0.4603530000000  0.5277300000000 1.0
C      1  0.5375260000000  0.5328910000000  0.5513930000000 1.0
C      1  0.4591200000000  0.5306630000000  0.4527360000000 1.0
C      1  0.5434160000000  0.4658370000000  0.4465930000000 1.0
C      1  0.5537400000000  0.4684070000000  0.4569410000000 1.0
C      1  0.4570250000000  0.5529150000000  0.4714930000000 1.0
C      1  0.4696940000000  0.4604300000000  0.5487120000000 1.0
C      1  0.4483740000000  0.5308180000000  0.4633420000000 1.0
C      1  0.4494610000000  0.4708550000000  0.5370750000000 1.0
C      1  0.5491440000000  0.5307010000000  0.5418950000000 1.0
C      1  0.5405530000000  0.4490590000000  0.4700570000000 1.0
C      1  0.5389410000000  0.5506800000000  0.5294970000000 1.0
C      1  0.4575150000000  0.4484410000000  0.5290170000000 1.0
C      1  0.5282820000000  0.5434070000000  0.5507360000000 1.0
C      1  0.5331990000000  0.4560910000000  0.4483870000000 1.0
C      1  0.4687390000000  0.5409600000000  0.4515400000000 1.0
C      1  0.5065160000000  0.5534190000000  0.5141770000000 1.0
C      1  0.5557660000000  0.5158910000000  0.5090710000000 1.0
C      1  0.5157270000000  0.5062270000000  0.5568660000000 1.0
C      1  0.4955540000000  0.4428590000000  0.5157440000000 1.0
C      1  0.5078020000000  0.4451870000000  0.4841130000000 1.0
C      1  0.4936660000000  0.5583090000000  0.4826840000000 1.0
C      1  0.4463890000000  0.4824750000000  0.5035960000000 1.0
C      1  0.5583480000000  0.4813050000000  0.4906700000000 1.0
C      1  0.4492050000000  0.5176100000000  0.5014580000000 1.0
C      1  0.4844800000000  0.4931730000000  0.5523950000000 1.0
C      1  0.5204540000000  0.4895330000000  0.4417850000000 1.0
C      1  0.4838790000000  0.5038260000000  0.4513190000000 1.0
C      1  0.5568080000000  0.5064310000000  0.5195960000000 1.0
C      1  0.5165390000000  0.5536670000000  0.5042030000000 1.0
C      1  0.5051280000000  0.5159090000000  0.5549460000000 1.0
C      1  0.4463700000000  0.4928660000000  0.5130440000000 1.0
C      1  0.4451240000000  0.5099760000000  0.4896360000000 1.0
C      1  0.5581950000000  0.4908300000000  0.4802930000000 1.0
C      1  0.4852700000000  0.4435640000000  0.5054000000000 1.0
C      1  0.4840350000000  0.5581630000000  0.4936210000000 1.0
C      1  0.5177990000000  0.4451180000000  0.4943520000000 1.0
C      1  0.4945420000000  0.4832080000000  0.5535330000000 1.0
C      1  0.4911190000000  0.5154810000000  0.4471590000000 1.0
C      1  0.5099520000000  0.4800680000000  0.4423020000000 1.0
C      1  0.5393900000000  0.5012340000000  0.4503310000000 1.0
C      1  0.5026600000000  0.4516180000000  0.5367780000000 1.0
C      1  0.4510490000000  0.5405400000000  0.5000980000000 1.0
C      1  0.4616450000000  0.5030530000000  0.4558490000000 1.0
C      1  0.5373870000000  0.4973510000000  0.5493140000000 1.0
C      1  0.4629990000000  0.4990100000000  0.5461380000000 1.0
C      1  0.5000310000000  0.5486730000000  0.5360400000000 1.0
C      1  0.5025400000000  0.5475860000000  0.4619020000000 1.0
C      1  0.5014310000000  0.4506420000000  0.4618760000000 1.0
C      1  0.5487640000000  0.4630640000000  0.5028860000000 1.0
C      1  0.4519410000000  0.4600390000000  0.4997850000000 1.0
C      1  0.5499880000000  0.5364270000000  0.5024880000000 1.0
C      1  0.4972180000000  0.5385650000000  0.4514730000000 1.0
C      1  0.4520830000000  0.4990500000000  0.5347900000000 1.0
C      1  0.5405550000000  0.4513180000000  0.4985100000000 1.0
C      1  0.4975540000000  0.4620290000000  0.4528070000000 1.0
C      1  0.5005490000000  0.5383450000000  0.5481750000000 1.0
C      1  0.4980700000000  0.4602650000000  0.5479000000000 1.0
C      1  0.5487920000000  0.5019220000000  0.5413880000000 1.0
C      1  0.5512750000000  0.4974580000000  0.4588780000000 1.0
C      1  0.4505050000000  0.5028750000000  0.4668700000000 1.0
C      1  0.4613710000000  0.5525020000000  0.4993410000000 1.0
C      1  0.4624410000000  0.4484090000000  0.5012800000000 1.0
C      1  0.5393000000000  0.5476020000000  0.5017460000000 1.0
C      1  0.4835700000000  0.4559100000000  0.5502030000000 1.0
C      1  0.4549000000000  0.5559230000000  0.4854190000000 1.0
C      1  0.5543770000000  0.4830050000000  0.4531160000000 1.0
C      1  0.5140780000000  0.5456950000000  0.5524460000000 1.0
C      1  0.4828130000000  0.5444150000000  0.4503460000000 1.0
C      1  0.5193940000000  0.4553230000000  0.4456140000000 1.0
C      1  0.5454150000000  0.4482190000000  0.4840180000000 1.0
C      1  0.4555070000000  0.4451560000000  0.5150870000000 1.0
C      1  0.5435820000000  0.5525170000000  0.5160230000000 1.0
C      1  0.4456960000000  0.5169070000000  0.4608580000000 1.0
C      1  0.5495060000000  0.5166930000000  0.5462190000000 1.0
C      1  0.4470730000000  0.4847850000000  0.5402390000000 1.0
C      1  0.4572050000000  0.4846890000000  0.5506720000000 1.0
C      1  0.5558060000000  0.4570440000000  0.4807190000000 1.0
C      1  0.4814820000000  0.5537220000000  0.4613280000000 1.0
C      1  0.5375040000000  0.5187310000000  0.5540050000000 1.0
C      1  0.5447250000000  0.4796120000000  0.4431090000000 1.0
C      1  0.4561640000000  0.5166520000000  0.4507220000000 1.0
C      1  0.4455130000000  0.5448030000000  0.4864740000000 1.0
C      1  0.4461470000000  0.4562150000000  0.5139170000000 1.0
C      1  0.5537860000000  0.5422010000000  0.5171800000000 1.0
C      1  0.5159570000000  0.4470960000000  0.4565390000000 1.0
C      1  0.5140340000000  0.5546720000000  0.5411480000000 1.0
C      1  0.4809450000000  0.4452690000000  0.5413230000000 1.0
C      1  0.5325240000000  0.5209210000000  0.5128520000000 1.0
C      1  0.5229750000000  0.5120900000000  0.5337860000000 1.0
C      1  0.5121770000000  0.5312580000000  0.5219220000000 1.0
C      1  0.4687650000000  0.4762630000000  0.5100240000000 1.0
C      1  0.5349240000000  0.4768140000000  0.4864690000000 1.0
C      1  0.4690780000000  0.5253410000000  0.4910890000000 1.0
C      1  0.4788660000000  0.4870850000000  0.5298660000000 1.0
C      1  0.5254310000000  0.4853170000000  0.4649330000000 1.0
C      1  0.4777460000000  0.5135160000000  0.4722020000000 1.0
C      1  0.4883420000000  0.4658180000000  0.5214130000000 1.0
C      1  0.5141160000000  0.4671450000000  0.4767610000000 1.0
C      1  0.4873730000000  0.5353840000000  0.4781060000000 1.0
C      1  0.5224520000000  0.5310150000000  0.5119910000000 1.0
C      1  0.5124680000000  0.5217510000000  0.5327520000000 1.0
C      1  0.5328310000000  0.5112920000000  0.5237060000000 1.0
C      1  0.4783520000000  0.4656550000000  0.5111490000000 1.0
C      1  0.4781760000000  0.5359390000000  0.4888780000000 1.0
C      1  0.5243060000000  0.4673380000000  0.4870810000000 1.0
C      1  0.4885550000000  0.4764670000000  0.5308490000000 1.0
C      1  0.4874630000000  0.5240220000000  0.4698230000000 1.0
C      1  0.5147250000000  0.4760460000000  0.4656000000000 1.0
C      1  0.4689700000000  0.4870200000000  0.5195030000000 1.0
C      1  0.4675940000000  0.5145730000000  0.4818680000000 1.0
C      1  0.5353220000000  0.4857830000000  0.4752920000000 1.0
C      1  0.4955120000000  0.4743120000000  0.5430310000000 1.0
C      1  0.4751510000000  0.5480070000000  0.4958140000000 1.0
C      1  0.5471830000000  0.4930410000000  0.4725350000000 1.0
C      1  0.5045790000000  0.5245980000000  0.5443170000000 1.0
C      1  0.4935500000000  0.5252090000000  0.4569000000000 1.0
C      1  0.5067110000000  0.4730550000000  0.4538150000000 1.0
C      1  0.5265070000000  0.4557510000000  0.4950270000000 1.0
C      1  0.4758950000000  0.4535000000000  0.5043070000000 1.0
C      1  0.5251170000000  0.5426680000000  0.5039380000000 1.0
C      1  0.4551290000000  0.5074710000000  0.4801090000000 1.0
C      1  0.5450940000000  0.5045800000000  0.5269490000000 1.0
C      1  0.4572690000000  0.4951020000000  0.5213350000000 1.0
C      1  0.4763780000000  0.4949440000000  0.5414170000000 1.0
C      1  0.5470140000000  0.4742200000000  0.4941510000000 1.0
C      1  0.4922180000000  0.5486880000000  0.4721290000000 1.0
C      1  0.5271040000000  0.5076330000000  0.5482570000000 1.0
C      1  0.5281360000000  0.4926620000000  0.4528060000000 1.0
C      1  0.4749190000000  0.5045860000000  0.4618670000000 1.0
C      1  0.4583180000000  0.5279180000000  0.4995740000000 1.0
C      1  0.4570470000000  0.4737780000000  0.5022500000000 1.0
C      1  0.5446440000000  0.5231910000000  0.5059950000000 1.0
C      1  0.5062360000000  0.4554710000000  0.4752260000000 1.0
C      1  0.5043990000000  0.5430660000000  0.5230980000000 1.0
C      1  0.4953440000000  0.4535880000000  0.5247580000000 1.0
END
