TITL C-112676-196-16 -1.82762101796041 1000000 -1706.8153228184 0 0 240 (Td) n - 1
REM
REM in /home/chem/mssmkc/work/GAP20/Larger-Clusters/Only-C240-new-series
REM
REM
REM
REM
REM
REM ./C.cell (2f3fc68bb9f120311d5b08947c2f1929)
REM
REM compiler GCC version 8.3.0
REM options -cpp -mtune=generic -march=x86-64 -g -O0
REM seed 775539039 1203989735 2133916258 -937323426 894291332 1845700233 1042004742 -348620434 1579106697 -1341923437 1393588370 -1416624095 1581061125 933918558 1758047482 -190285236 -2134281226 271206372 1944522885 5456092 -1500351605 -1791560080 -763646245 -1254714300 274347946 561786147 1205866950 -1859407440 -2082410378 176485075 534321207 -1167361907 455639675
REM
CELL 1.54180  100.00000  100.00000  100.00000   90.00000   90.00000   90.00000
LATT -1
SFAC C  
C      1  0.4454890000000  0.5154630000000  0.5354040000000 1.0
C      1  0.5354130000000  0.4454970000000  0.5154720000000 1.0
C      1  0.5154640000000  0.5354040000000  0.4454890000000 1.0
C      1  0.4454940000000  0.4845240000000  0.4645930000000 1.0
C      1  0.5545090000000  0.4845430000000  0.5354100000000 1.0
C      1  0.5545080000000  0.5154690000000  0.4645930000000 1.0
C      1  0.5354010000000  0.5545110000000  0.4845300000000 1.0
C      1  0.4645860000000  0.5545060000000  0.5154600000000 1.0
C      1  0.4646000000000  0.4454860000000  0.4845380000000 1.0
C      1  0.5154690000000  0.4646000000000  0.5545120000000 1.0
C      1  0.4845390000000  0.4645860000000  0.4454940000000 1.0
C      1  0.4845280000000  0.5354100000000  0.5545050000000 1.0
C      1  0.4454870000000  0.5354020000000  0.5154620000000 1.0
C      1  0.5354070000000  0.5154650000000  0.4454910000000 1.0
C      1  0.5154720000000  0.4454960000000  0.5354130000000 1.0
C      1  0.4454960000000  0.4645850000000  0.4845350000000 1.0
C      1  0.5545050000000  0.5354120000000  0.4845320000000 1.0
C      1  0.5545120000000  0.4646010000000  0.5154710000000 1.0
C      1  0.5354070000000  0.4845430000000  0.5545110000000 1.0
C      1  0.4645900000000  0.5154670000000  0.5545060000000 1.0
C      1  0.4645960000000  0.4845240000000  0.4454920000000 1.0
C      1  0.5154610000000  0.5545070000000  0.4645880000000 1.0
C      1  0.4845410000000  0.4454860000000  0.4645970000000 1.0
C      1  0.4845260000000  0.5545100000000  0.5354020000000 1.0
C      1  0.5416890000000  0.5317180000000  0.5077800000000 1.0
C      1  0.5077760000000  0.5416980000000  0.5317090000000 1.0
C      1  0.5317110000000  0.5077900000000  0.5416930000000 1.0
C      1  0.5416970000000  0.4682910000000  0.4922220000000 1.0
C      1  0.4583100000000  0.4682830000000  0.5077840000000 1.0
C      1  0.4583030000000  0.5317070000000  0.4922140000000 1.0
C      1  0.5077880000000  0.4583040000000  0.4682910000000 1.0
C      1  0.4922220000000  0.4583090000000  0.5317160000000 1.0
C      1  0.4922140000000  0.5416890000000  0.4682830000000 1.0
C      1  0.5317150000000  0.4922180000000  0.4583080000000 1.0
C      1  0.4682870000000  0.4922180000000  0.5416930000000 1.0
C      1  0.4682870000000  0.5077750000000  0.4583050000000 1.0
C      1  0.5416920000000  0.5077900000000  0.5317130000000 1.0
C      1  0.5077770000000  0.5317180000000  0.5416900000000 1.0
C      1  0.5317080000000  0.5416980000000  0.5077790000000 1.0
C      1  0.5416950000000  0.4922200000000  0.4682890000000 1.0
C      1  0.4583070000000  0.5077740000000  0.4682850000000 1.0
C      1  0.4583070000000  0.4922160000000  0.5317120000000 1.0
C      1  0.5077870000000  0.4682840000000  0.4583100000000 1.0
C      1  0.4922150000000  0.5317080000000  0.4583030000000 1.0
C      1  0.4922210000000  0.4682900000000  0.5416960000000 1.0
C      1  0.5317180000000  0.4583100000000  0.4922230000000 1.0
C      1  0.4682830000000  0.5416890000000  0.4922130000000 1.0
C      1  0.4682920000000  0.4583040000000  0.5077850000000 1.0
C      1  0.5512220000000  0.4598940000000  0.5020480000000 1.0
C      1  0.5020380000000  0.5512140000000  0.4598830000000 1.0
C      1  0.4598860000000  0.5020430000000  0.5512160000000 1.0
C      1  0.5512130000000  0.5401180000000  0.4979550000000 1.0
C      1  0.4487780000000  0.5401070000000  0.5020380000000 1.0
C      1  0.4487870000000  0.4598810000000  0.4979590000000 1.0
C      1  0.5020480000000  0.4487860000000  0.5401170000000 1.0
C      1  0.4979640000000  0.4487780000000  0.4598920000000 1.0
C      1  0.4979500000000  0.5512210000000  0.5401080000000 1.0
C      1  0.4598890000000  0.4979480000000  0.4487820000000 1.0
C      1  0.5401110000000  0.4979660000000  0.5512190000000 1.0
C      1  0.5401140000000  0.5020430000000  0.4487840000000 1.0
C      1  0.5512180000000  0.5020450000000  0.4598890000000 1.0
C      1  0.5020460000000  0.4598920000000  0.5512210000000 1.0
C      1  0.4598810000000  0.5512130000000  0.5020370000000 1.0
C      1  0.5512170000000  0.4979670000000  0.5401140000000 1.0
C      1  0.4487810000000  0.5020410000000  0.5401110000000 1.0
C      1  0.4487840000000  0.4979470000000  0.4598860000000 1.0
C      1  0.5020400000000  0.5401080000000  0.4487790000000 1.0
C      1  0.4979630000000  0.4598820000000  0.4487860000000 1.0
C      1  0.4979510000000  0.5401170000000  0.5512140000000 1.0
C      1  0.4598930000000  0.4487780000000  0.4979610000000 1.0
C      1  0.5401070000000  0.5512220000000  0.4979530000000 1.0
C      1  0.5401190000000  0.4487870000000  0.5020490000000 1.0
C      1  0.4505090000000  0.5396790000000  0.4702300000000 1.0
C      1  0.4702400000000  0.4505130000000  0.5396910000000 1.0
C      1  0.5396920000000  0.4702350000000  0.4505170000000 1.0
C      1  0.4505170000000  0.4603090000000  0.5297670000000 1.0
C      1  0.5494920000000  0.4603150000000  0.4702400000000 1.0
C      1  0.5494810000000  0.5396960000000  0.5297620000000 1.0
C      1  0.4702310000000  0.5494800000000  0.4603070000000 1.0
C      1  0.5297580000000  0.5494940000000  0.5396840000000 1.0
C      1  0.5297720000000  0.4505130000000  0.4603180000000 1.0
C      1  0.5396830000000  0.5297740000000  0.5494850000000 1.0
C      1  0.4603100000000  0.5297550000000  0.4505090000000 1.0
C      1  0.4603150000000  0.4702350000000  0.5494880000000 1.0
C      1  0.4505160000000  0.4702330000000  0.5396890000000 1.0
C      1  0.4702320000000  0.5396800000000  0.4505090000000 1.0
C      1  0.5396940000000  0.4505150000000  0.4702410000000 1.0
C      1  0.4505110000000  0.5297550000000  0.4603080000000 1.0
C      1  0.5494910000000  0.4702370000000  0.4603170000000 1.0
C      1  0.5494820000000  0.5297740000000  0.5396860000000 1.0
C      1  0.4702390000000  0.4603130000000  0.5494900000000 1.0
C      1  0.5297590000000  0.5396960000000  0.5494840000000 1.0
C      1  0.5297710000000  0.4603110000000  0.4505180000000 1.0
C      1  0.5396810000000  0.5494940000000  0.5297610000000 1.0
C      1  0.4603170000000  0.4505110000000  0.5297680000000 1.0
C      1  0.4603070000000  0.5494790000000  0.4702300000000 1.0
C      1  0.4629080000000  0.5271090000000  0.5469830000000 1.0
C      1  0.5469910000000  0.4629200000000  0.5271130000000 1.0
C      1  0.5271040000000  0.5469870000000  0.4629090000000 1.0
C      1  0.4629170000000  0.4728830000000  0.4530140000000 1.0
C      1  0.5370900000000  0.4729000000000  0.5469910000000 1.0
C      1  0.5370860000000  0.5271080000000  0.4530120000000 1.0
C      1  0.5469830000000  0.5370910000000  0.4728900000000 1.0
C      1  0.4530080000000  0.5370850000000  0.5271040000000 1.0
C      1  0.4530180000000  0.4629040000000  0.4728940000000 1.0
C      1  0.5271130000000  0.4530200000000  0.5370930000000 1.0
C      1  0.4728980000000  0.4530060000000  0.4629160000000 1.0
C      1  0.4728850000000  0.5469870000000  0.5370830000000 1.0
C      1  0.4629060000000  0.5469850000000  0.5271030000000 1.0
C      1  0.5469850000000  0.5271100000000  0.4629110000000 1.0
C      1  0.5271120000000  0.4629200000000  0.5469910000000 1.0
C      1  0.4629180000000  0.4530060000000  0.4728950000000 1.0
C      1  0.5370830000000  0.5469890000000  0.4728880000000 1.0
C      1  0.5370920000000  0.4530200000000  0.5271140000000 1.0
C      1  0.5469890000000  0.4729000000000  0.5370920000000 1.0
C      1  0.4530090000000  0.5271060000000  0.5370840000000 1.0
C      1  0.4530170000000  0.4728830000000  0.4629130000000 1.0
C      1  0.5271050000000  0.5370860000000  0.4530100000000 1.0
C      1  0.4728970000000  0.4629050000000  0.4530160000000 1.0
C      1  0.4728860000000  0.5370890000000  0.5469830000000 1.0
C      1  0.5633960000000  0.4851740000000  0.5247270000000 1.0
C      1  0.5247170000000  0.5633960000000  0.4851590000000 1.0
C      1  0.4851600000000  0.5247280000000  0.5633920000000 1.0
C      1  0.5633940000000  0.5148410000000  0.4752760000000 1.0
C      1  0.4366030000000  0.5148310000000  0.5247210000000 1.0
C      1  0.4366080000000  0.4851550000000  0.4752750000000 1.0
C      1  0.5247310000000  0.4366090000000  0.5148420000000 1.0
C      1  0.4752830000000  0.4366010000000  0.4851690000000 1.0
C      1  0.4752680000000  0.5633930000000  0.5148290000000 1.0
C      1  0.4851690000000  0.4752680000000  0.4366070000000 1.0
C      1  0.5148370000000  0.4752830000000  0.5633980000000 1.0
C      1  0.5148350000000  0.5247200000000  0.4366030000000 1.0
C      1  0.5633920000000  0.5247300000000  0.4851640000000 1.0
C      1  0.5247240000000  0.4851730000000  0.5633970000000 1.0
C      1  0.4851560000000  0.5633960000000  0.5247180000000 1.0
C      1  0.5633970000000  0.4752840000000  0.5148400000000 1.0
C      1  0.4366020000000  0.5247180000000  0.5148320000000 1.0
C      1  0.4366080000000  0.4752670000000  0.4851650000000 1.0
C      1  0.5247240000000  0.5148330000000  0.4366040000000 1.0
C      1  0.4752790000000  0.4851560000000  0.4366060000000 1.0
C      1  0.4752720000000  0.5148390000000  0.5633930000000 1.0
C      1  0.4851720000000  0.4366010000000  0.4752810000000 1.0
C      1  0.5148290000000  0.5633940000000  0.4752700000000 1.0
C      1  0.5148420000000  0.4366090000000  0.5247310000000 1.0
C      1  0.5103250000000  0.4267770000000  0.4998220000000 1.0
C      1  0.4998160000000  0.5103090000000  0.4267750000000 1.0
C      1  0.4267760000000  0.4998070000000  0.5103140000000 1.0
C      1  0.5103080000000  0.5732250000000  0.5001790000000 1.0
C      1  0.4896750000000  0.5732230000000  0.4998080000000 1.0
C      1  0.4896920000000  0.4267750000000  0.5001920000000 1.0
C      1  0.4998140000000  0.4896910000000  0.5732250000000 1.0
C      1  0.5001890000000  0.4896770000000  0.4267770000000 1.0
C      1  0.5001820000000  0.5103230000000  0.5732230000000 1.0
C      1  0.4267770000000  0.5001760000000  0.4896820000000 1.0
C      1  0.5732230000000  0.5001950000000  0.5103180000000 1.0
C      1  0.5732240000000  0.4998220000000  0.4896860000000 1.0
C      1  0.5103180000000  0.4998090000000  0.4267760000000 1.0
C      1  0.4998230000000  0.4267770000000  0.5103230000000 1.0
C      1  0.4267750000000  0.5103080000000  0.4998120000000 1.0
C      1  0.5103140000000  0.5001930000000  0.5732240000000 1.0
C      1  0.4896820000000  0.4998200000000  0.5732230000000 1.0
C      1  0.4896860000000  0.5001770000000  0.4267760000000 1.0
C      1  0.4998070000000  0.5732230000000  0.4896770000000 1.0
C      1  0.5001940000000  0.4267750000000  0.4896910000000 1.0
C      1  0.5001760000000  0.5732250000000  0.5103090000000 1.0
C      1  0.4267780000000  0.4896750000000  0.5001840000000 1.0
C      1  0.5732230000000  0.5103250000000  0.5001860000000 1.0
C      1  0.5732250000000  0.4896920000000  0.4998180000000 1.0
C      1  0.4475220000000  0.4813620000000  0.5297910000000 1.0
C      1  0.5297970000000  0.4475220000000  0.4813710000000 1.0
C      1  0.4813630000000  0.5297840000000  0.4475170000000 1.0
C      1  0.4475190000000  0.5186260000000  0.4702060000000 1.0
C      1  0.5524760000000  0.5186440000000  0.5297910000000 1.0
C      1  0.5524820000000  0.4813690000000  0.4702120000000 1.0
C      1  0.5297840000000  0.5524850000000  0.5186310000000 1.0
C      1  0.4702040000000  0.5524740000000  0.4813590000000 1.0
C      1  0.4702150000000  0.4475190000000  0.5186390000000 1.0
C      1  0.4813670000000  0.4702120000000  0.5524810000000 1.0
C      1  0.5186400000000  0.4702060000000  0.4475240000000 1.0
C      1  0.5186300000000  0.5297980000000  0.5524770000000 1.0
C      1  0.4475180000000  0.5297830000000  0.4813610000000 1.0
C      1  0.5297940000000  0.4813640000000  0.4475230000000 1.0
C      1  0.4813710000000  0.4475210000000  0.5297950000000 1.0
C      1  0.4475240000000  0.4702050000000  0.5186360000000 1.0
C      1  0.5524750000000  0.5297990000000  0.5186340000000 1.0
C      1  0.5524830000000  0.4702140000000  0.4813690000000 1.0
C      1  0.5297870000000  0.5186430000000  0.5524780000000 1.0
C      1  0.4702100000000  0.4813670000000  0.5524800000000 1.0
C      1  0.4702080000000  0.5186270000000  0.4475180000000 1.0
C      1  0.4813600000000  0.5524740000000  0.4702040000000 1.0
C      1  0.5186420000000  0.4475200000000  0.4702150000000 1.0
C      1  0.5186280000000  0.5524840000000  0.5297870000000 1.0
C      1  0.5228240000000  0.5676570000000  0.4985640000000 1.0
C      1  0.4985650000000  0.5228380000000  0.5676530000000 1.0
C      1  0.5676550000000  0.4985790000000  0.5228330000000 1.0
C      1  0.5228390000000  0.4323480000000  0.5014370000000 1.0
C      1  0.4771760000000  0.4323420000000  0.4985750000000 1.0
C      1  0.4771610000000  0.5676530000000  0.5014240000000 1.0
C      1  0.4985740000000  0.4771620000000  0.4323470000000 1.0
C      1  0.5014310000000  0.4771750000000  0.5676570000000 1.0
C      1  0.5014300000000  0.5228250000000  0.4323430000000 1.0
C      1  0.5676550000000  0.5014360000000  0.4771700000000 1.0
C      1  0.4323440000000  0.5014250000000  0.5228290000000 1.0
C      1  0.4323460000000  0.4985590000000  0.4771670000000 1.0
C      1  0.5228300000000  0.4985780000000  0.5676560000000 1.0
C      1  0.4985610000000  0.5676570000000  0.5228250000000 1.0
C      1  0.5676520000000  0.5228390000000  0.4985690000000 1.0
C      1  0.5228330000000  0.5014270000000  0.4323450000000 1.0
C      1  0.4771710000000  0.4985610000000  0.4323450000000 1.0
C      1  0.4771670000000  0.5014340000000  0.5676540000000 1.0
C      1  0.4985780000000  0.4323430000000  0.4771750000000 1.0
C      1  0.5014230000000  0.5676530000000  0.4771620000000 1.0
C      1  0.5014380000000  0.4323470000000  0.5228380000000 1.0
C      1  0.5676580000000  0.4771770000000  0.5014350000000 1.0
C      1  0.4323420000000  0.5228240000000  0.5014270000000 1.0
C      1  0.4323480000000  0.4771600000000  0.4985700000000 1.0
C      1  0.4929100000000  0.4674900000000  0.5611000000000 1.0
C      1  0.5610990000000  0.4929120000000  0.4674880000000 1.0
C      1  0.4674780000000  0.5610930000000  0.4929010000000 1.0
C      1  0.4929050000000  0.5325080000000  0.4389000000000 1.0
C      1  0.5070870000000  0.5325210000000  0.5610940000000 1.0
C      1  0.5070980000000  0.4674800000000  0.4389060000000 1.0
C      1  0.5610950000000  0.5071030000000  0.5325160000000 1.0
C      1  0.4389030000000  0.5070820000000  0.4674830000000 1.0
C      1  0.4389030000000  0.4929030000000  0.5325140000000 1.0
C      1  0.4674920000000  0.4389000000000  0.5070970000000 1.0
C      1  0.5325220000000  0.4389060000000  0.4929140000000 1.0
C      1  0.5325080000000  0.5611020000000  0.5070880000000 1.0
C      1  0.4929010000000  0.5610930000000  0.4674790000000 1.0
C      1  0.5611010000000  0.4674920000000  0.4929120000000 1.0
C      1  0.4674840000000  0.4929090000000  0.5610970000000 1.0
C      1  0.4929140000000  0.4389050000000  0.5325200000000 1.0
C      1  0.5070840000000  0.5611010000000  0.5325090000000 1.0
C      1  0.5071010000000  0.4389010000000  0.4674910000000 1.0
C      1  0.5610930000000  0.5325230000000  0.5070910000000 1.0
C      1  0.4389070000000  0.4674790000000  0.5070940000000 1.0
C      1  0.4388990000000  0.5325070000000  0.4929030000000 1.0
C      1  0.4674860000000  0.5070830000000  0.4389020000000 1.0
C      1  0.5325170000000  0.4929060000000  0.4389050000000 1.0
C      1  0.5325120000000  0.5071020000000  0.5610970000000 1.0
END
