TITL C-112676-196-103 -13.3778796574619 1000000 -1779.62925960649 0 0 240 (Oh) n - 1
REM
REM in /home/chem/mssmkc/work/GAP20/Larger-Clusters/Only-C240-new-series
REM
REM
REM
REM
REM
REM ./C.cell (db83009d4c1eceb3c2f0bef44cf3317a)
REM
REM compiler GCC version 8.3.0
REM options -cpp -mtune=generic -march=x86-64 -g -O0
REM seed 1222707677 819098605 -227076436 -1448358214 877017886 -163879250 -580700443 2041770375 1190296894 -1410671241 -1691198280 1292858409 -95295943 1586502450 -494655600 1648098318 1040654153 1777402989 -59577255 1737468252 -1355099737 -845731380 -704458890 613807498 -152040587 902778405 -1998944165 552086731 982719462 1816999845 1599505239 1786118447 1160821172
REM
CELL 1.54180  100.00000  100.00000  100.00000   90.00000   90.00000   90.00000
LATT -1
SFAC C  
C      1  0.4758420000000  0.4384510000000  0.4860100000000 1.0
C      1  0.4384520000000  0.4860100000000  0.4758410000000 1.0
C      1  0.4860110000000  0.4758410000000  0.4384510000000 1.0
C      1  0.5241580000000  0.4384520000000  0.5139900000000 1.0
C      1  0.5241590000000  0.5615480000000  0.4860100000000 1.0
C      1  0.4758410000000  0.5615480000000  0.5139890000000 1.0
C      1  0.5615480000000  0.4860100000000  0.5241590000000 1.0
C      1  0.5615490000000  0.5139900000000  0.4758420000000 1.0
C      1  0.4384510000000  0.5139900000000  0.5241580000000 1.0
C      1  0.5139890000000  0.4758420000000  0.5615490000000 1.0
C      1  0.5139910000000  0.5241580000000  0.4384520000000 1.0
C      1  0.4860090000000  0.5241590000000  0.5615480000000 1.0
C      1  0.4860110000000  0.4384510000000  0.4758410000000 1.0
C      1  0.4758420000000  0.4860100000000  0.4384510000000 1.0
C      1  0.4384520000000  0.4758410000000  0.4860090000000 1.0
C      1  0.5139890000000  0.4384520000000  0.5241590000000 1.0
C      1  0.4860100000000  0.5615490000000  0.5241580000000 1.0
C      1  0.5139900000000  0.5615480000000  0.4758410000000 1.0
C      1  0.5241580000000  0.4860100000000  0.5615490000000 1.0
C      1  0.4758410000000  0.5139900000000  0.5615480000000 1.0
C      1  0.5241590000000  0.5139900000000  0.4384520000000 1.0
C      1  0.5615480000000  0.4758420000000  0.5139910000000 1.0
C      1  0.4384510000000  0.5241580000000  0.5139890000000 1.0
C      1  0.5615490000000  0.5241590000000  0.4860110000000 1.0
C      1  0.4926890000000  0.5571910000000  0.4529870000000 1.0
C      1  0.5571920000000  0.4529880000000  0.4926890000000 1.0
C      1  0.4529870000000  0.4926890000000  0.5571910000000 1.0
C      1  0.5073110000000  0.5571920000000  0.5470120000000 1.0
C      1  0.5073120000000  0.4428080000000  0.4529880000000 1.0
C      1  0.4926880000000  0.4428090000000  0.5470130000000 1.0
C      1  0.4428080000000  0.4529870000000  0.5073110000000 1.0
C      1  0.4428080000000  0.5470120000000  0.4926870000000 1.0
C      1  0.5571910000000  0.5470130000000  0.5073120000000 1.0
C      1  0.5470130000000  0.4926880000000  0.4428090000000 1.0
C      1  0.5470120000000  0.5073120000000  0.5571920000000 1.0
C      1  0.4529880000000  0.5073110000000  0.4428080000000 1.0
C      1  0.4529880000000  0.5571920000000  0.4926880000000 1.0
C      1  0.4926880000000  0.4529880000000  0.5571920000000 1.0
C      1  0.5571920000000  0.4926880000000  0.4529880000000 1.0
C      1  0.5470120000000  0.5571920000000  0.5073120000000 1.0
C      1  0.4529870000000  0.4428080000000  0.5073110000000 1.0
C      1  0.5470130000000  0.4428080000000  0.4926890000000 1.0
C      1  0.5073120000000  0.4529870000000  0.4428090000000 1.0
C      1  0.4926890000000  0.5470120000000  0.4428080000000 1.0
C      1  0.5073110000000  0.5470130000000  0.5571920000000 1.0
C      1  0.4428080000000  0.4926890000000  0.5470120000000 1.0
C      1  0.5571910000000  0.5073120000000  0.5470130000000 1.0
C      1  0.4428090000000  0.5073110000000  0.4529870000000 1.0
C      1  0.4625850000000  0.5576990000000  0.5174510000000 1.0
C      1  0.5577000000000  0.5174510000000  0.4625860000000 1.0
C      1  0.5174510000000  0.4625850000000  0.5577000000000 1.0
C      1  0.5374150000000  0.5576990000000  0.4825490000000 1.0
C      1  0.5374150000000  0.4423010000000  0.5174520000000 1.0
C      1  0.4625850000000  0.4423000000000  0.4825480000000 1.0
C      1  0.4423000000000  0.5174510000000  0.5374140000000 1.0
C      1  0.4423010000000  0.4825480000000  0.4625840000000 1.0
C      1  0.5576990000000  0.4825490000000  0.5374160000000 1.0
C      1  0.4825500000000  0.4625850000000  0.4423000000000 1.0
C      1  0.4825480000000  0.5374150000000  0.5576990000000 1.0
C      1  0.5174520000000  0.5374150000000  0.4423010000000 1.0
C      1  0.5174520000000  0.5576990000000  0.4625850000000 1.0
C      1  0.4625840000000  0.5174510000000  0.5576990000000 1.0
C      1  0.5576990000000  0.4625850000000  0.5174520000000 1.0
C      1  0.4825480000000  0.5577000000000  0.5374140000000 1.0
C      1  0.5174510000000  0.4423010000000  0.5374150000000 1.0
C      1  0.4825490000000  0.4423000000000  0.4625850000000 1.0
C      1  0.5374160000000  0.5174510000000  0.4423010000000 1.0
C      1  0.4625860000000  0.4825480000000  0.4423000000000 1.0
C      1  0.5374140000000  0.4825490000000  0.5577000000000 1.0
C      1  0.4423010000000  0.4625850000000  0.4825480000000 1.0
C      1  0.5577000000000  0.5374150000000  0.4825490000000 1.0
C      1  0.4423000000000  0.5374150000000  0.5174500000000 1.0
C      1  0.4502110000000  0.5396070000000  0.4704640000000 1.0
C      1  0.5396070000000  0.4704650000000  0.4502120000000 1.0
C      1  0.4704640000000  0.4502110000000  0.5396060000000 1.0
C      1  0.5497890000000  0.5396070000000  0.5295360000000 1.0
C      1  0.5497900000000  0.4603930000000  0.4704650000000 1.0
C      1  0.4502110000000  0.4603930000000  0.5295350000000 1.0
C      1  0.4603930000000  0.4704650000000  0.5497890000000 1.0
C      1  0.4603940000000  0.5295350000000  0.4502100000000 1.0
C      1  0.5396060000000  0.5295360000000  0.5497900000000 1.0
C      1  0.5295360000000  0.4502110000000  0.4603940000000 1.0
C      1  0.5295350000000  0.5497890000000  0.5396070000000 1.0
C      1  0.4704650000000  0.5497890000000  0.4603930000000 1.0
C      1  0.4704650000000  0.5396060000000  0.4502100000000 1.0
C      1  0.4502100000000  0.4704650000000  0.5396060000000 1.0
C      1  0.5396070000000  0.4502110000000  0.4704650000000 1.0
C      1  0.5295350000000  0.5396070000000  0.5497890000000 1.0
C      1  0.4704640000000  0.4603930000000  0.5497890000000 1.0
C      1  0.5295360000000  0.4603930000000  0.4502110000000 1.0
C      1  0.5497900000000  0.4704650000000  0.4603940000000 1.0
C      1  0.4502110000000  0.5295350000000  0.4603930000000 1.0
C      1  0.5497890000000  0.5295360000000  0.5396070000000 1.0
C      1  0.4603930000000  0.4502110000000  0.5295350000000 1.0
C      1  0.5396060000000  0.5497890000000  0.5295360000000 1.0
C      1  0.4603940000000  0.5497890000000  0.4704640000000 1.0
C      1  0.4529880000000  0.4926880000000  0.4428080000000 1.0
C      1  0.4926890000000  0.4428080000000  0.4529880000000 1.0
C      1  0.4428090000000  0.4529870000000  0.4926880000000 1.0
C      1  0.5470120000000  0.4926890000000  0.5571920000000 1.0
C      1  0.5470130000000  0.5073110000000  0.4428090000000 1.0
C      1  0.4529870000000  0.5073120000000  0.5571910000000 1.0
C      1  0.5073110000000  0.4428090000000  0.5470130000000 1.0
C      1  0.5073120000000  0.5571910000000  0.4529870000000 1.0
C      1  0.4926880000000  0.5571920000000  0.5470120000000 1.0
C      1  0.5571920000000  0.4529880000000  0.5073130000000 1.0
C      1  0.5571920000000  0.5470130000000  0.4926890000000 1.0
C      1  0.4428080000000  0.5470120000000  0.5073110000000 1.0
C      1  0.4428090000000  0.4926880000000  0.4529870000000 1.0
C      1  0.4529880000000  0.4428080000000  0.4926880000000 1.0
C      1  0.4926890000000  0.4529870000000  0.4428080000000 1.0
C      1  0.5571910000000  0.4926890000000  0.5470130000000 1.0
C      1  0.4428080000000  0.5073120000000  0.5470120000000 1.0
C      1  0.5571920000000  0.5073110000000  0.4529880000000 1.0
C      1  0.5470120000000  0.4428080000000  0.5073120000000 1.0
C      1  0.4529870000000  0.5571920000000  0.5073110000000 1.0
C      1  0.5470130000000  0.5571920000000  0.4926890000000 1.0
C      1  0.5073110000000  0.4529880000000  0.5571920000000 1.0
C      1  0.4926880000000  0.5470130000000  0.5571910000000 1.0
C      1  0.5073120000000  0.5470120000000  0.4428080000000 1.0
C      1  0.4704640000000  0.5396070000000  0.5497890000000 1.0
C      1  0.5396070000000  0.5497890000000  0.4704650000000 1.0
C      1  0.5497890000000  0.4704650000000  0.5396070000000 1.0
C      1  0.5295360000000  0.5396070000000  0.4502110000000 1.0
C      1  0.5295350000000  0.4603940000000  0.5497900000000 1.0
C      1  0.4704650000000  0.4603930000000  0.4502110000000 1.0
C      1  0.4603930000000  0.5497890000000  0.5295350000000 1.0
C      1  0.4603940000000  0.4502110000000  0.4704640000000 1.0
C      1  0.5396060000000  0.4502110000000  0.5295360000000 1.0
C      1  0.4502120000000  0.4704640000000  0.4603930000000 1.0
C      1  0.4502100000000  0.5295350000000  0.5396060000000 1.0
C      1  0.5497900000000  0.5295350000000  0.4603940000000 1.0
C      1  0.5497890000000  0.5396070000000  0.4704650000000 1.0
C      1  0.4704640000000  0.5497890000000  0.5396060000000 1.0
C      1  0.5396060000000  0.4704650000000  0.5497900000000 1.0
C      1  0.4502100000000  0.5396070000000  0.5295350000000 1.0
C      1  0.5497890000000  0.4603930000000  0.5295360000000 1.0
C      1  0.4502110000000  0.4603930000000  0.4704640000000 1.0
C      1  0.5295360000000  0.5497890000000  0.4603940000000 1.0
C      1  0.4704650000000  0.4502110000000  0.4603930000000 1.0
C      1  0.5295350000000  0.4502110000000  0.5396070000000 1.0
C      1  0.4603940000000  0.4704640000000  0.4502100000000 1.0
C      1  0.5396070000000  0.5295350000000  0.4502110000000 1.0
C      1  0.4603930000000  0.5295350000000  0.5497880000000 1.0
C      1  0.5000010000000  0.5199570000000  0.4396730000000 1.0
C      1  0.5199570000000  0.4396730000000  0.5000000000000 1.0
C      1  0.4396730000000  0.5000000000000  0.5199560000000 1.0
C      1  0.4999990000000  0.5199570000000  0.5603270000000 1.0
C      1  0.5000010000000  0.4800430000000  0.4396730000000 1.0
C      1  0.4999990000000  0.4800430000000  0.5603270000000 1.0
C      1  0.4800430000000  0.4396730000000  0.5000000000000 1.0
C      1  0.4800430000000  0.5603270000000  0.5000000000000 1.0
C      1  0.5199570000000  0.5603270000000  0.5000000000000 1.0
C      1  0.5603270000000  0.5000000000000  0.4800440000000 1.0
C      1  0.5603270000000  0.5000000000000  0.5199580000000 1.0
C      1  0.4396730000000  0.5000000000000  0.4800420000000 1.0
C      1  0.4396730000000  0.5199570000000  0.4999990000000 1.0
C      1  0.5000000000000  0.4396730000000  0.5199570000000 1.0
C      1  0.5199580000000  0.5000000000000  0.4396730000000 1.0
C      1  0.5603270000000  0.5199570000000  0.5000010000000 1.0
C      1  0.4396730000000  0.4800430000000  0.4999990000000 1.0
C      1  0.5603270000000  0.4800430000000  0.5000010000000 1.0
C      1  0.5000000000000  0.4396730000000  0.4800430000000 1.0
C      1  0.5000000000000  0.5603270000000  0.4800430000000 1.0
C      1  0.5000000000000  0.5603270000000  0.5199570000000 1.0
C      1  0.4800420000000  0.5000000000000  0.5603270000000 1.0
C      1  0.5199560000000  0.5000000000000  0.5603270000000 1.0
C      1  0.4800440000000  0.5000000000000  0.4396730000000 1.0
C      1  0.5174500000000  0.5374150000000  0.5577000000000 1.0
C      1  0.5374150000000  0.5577000000000  0.5174520000000 1.0
C      1  0.5576990000000  0.5174520000000  0.5374160000000 1.0
C      1  0.4825490000000  0.5374150000000  0.4423000000000 1.0
C      1  0.4825480000000  0.4625850000000  0.5576990000000 1.0
C      1  0.5174520000000  0.4625850000000  0.4423010000000 1.0
C      1  0.4625850000000  0.5576990000000  0.4825480000000 1.0
C      1  0.4625850000000  0.4423010000000  0.5174510000000 1.0
C      1  0.5374150000000  0.4423010000000  0.4825490000000 1.0
C      1  0.4423010000000  0.5174510000000  0.4625840000000 1.0
C      1  0.4423000000000  0.4825490000000  0.5374140000000 1.0
C      1  0.5577000000000  0.4825490000000  0.4625860000000 1.0
C      1  0.5576990000000  0.5374150000000  0.5174520000000 1.0
C      1  0.5174510000000  0.5577000000000  0.5374150000000 1.0
C      1  0.5374140000000  0.5174520000000  0.5577000000000 1.0
C      1  0.4423010000000  0.5374150000000  0.4825480000000 1.0
C      1  0.5577000000000  0.4625850000000  0.4825500000000 1.0
C      1  0.4423000000000  0.4625850000000  0.5174510000000 1.0
C      1  0.4825490000000  0.5576990000000  0.4625850000000 1.0
C      1  0.5174520000000  0.4423000000000  0.4625860000000 1.0
C      1  0.4825480000000  0.4423010000000  0.5374150000000 1.0
C      1  0.4625860000000  0.5174510000000  0.4423000000000 1.0
C      1  0.5374160000000  0.4825490000000  0.4423010000000 1.0
C      1  0.4625840000000  0.4825490000000  0.5576990000000 1.0
C      1  0.4999990000000  0.5101000000000  0.5504490000000 1.0
C      1  0.5101000000000  0.5504490000000  0.5000000000000 1.0
C      1  0.5504490000000  0.5000000000000  0.5101010000000 1.0
C      1  0.5000010000000  0.5101000000000  0.4495510000000 1.0
C      1  0.4999990000000  0.4899000000000  0.5504490000000 1.0
C      1  0.5000010000000  0.4899000000000  0.4495510000000 1.0
C      1  0.4899000000000  0.5504490000000  0.5000000000000 1.0
C      1  0.4899000000000  0.4495510000000  0.5000000000000 1.0
C      1  0.5101000000000  0.4495510000000  0.5000000000000 1.0
C      1  0.4495510000000  0.5000000000000  0.4898990000000 1.0
C      1  0.4495510000000  0.5000000000000  0.5100990000000 1.0
C      1  0.5504490000000  0.5000000000000  0.4899010000000 1.0
C      1  0.5504490000000  0.5101000000000  0.5000010000000 1.0
C      1  0.5000000000000  0.5504490000000  0.5101000000000 1.0
C      1  0.5100990000000  0.5000000000000  0.5504490000000 1.0
C      1  0.4495510000000  0.5101000000000  0.4999990000000 1.0
C      1  0.5504490000000  0.4899000000000  0.5000010000000 1.0
C      1  0.4495510000000  0.4899000000000  0.4999990000000 1.0
C      1  0.5000000000000  0.5504490000000  0.4899000000000 1.0
C      1  0.5000000000000  0.4495510000000  0.4899000000000 1.0
C      1  0.5000000000000  0.4495510000000  0.5101000000000 1.0
C      1  0.4899010000000  0.5000000000000  0.4495510000000 1.0
C      1  0.5101010000000  0.5000000000000  0.4495510000000 1.0
C      1  0.4898990000000  0.5000000000000  0.5504490000000 1.0
C      1  0.4860110000000  0.5241580000000  0.4384510000000 1.0
C      1  0.5241590000000  0.4384520000000  0.4860110000000 1.0
C      1  0.4384510000000  0.4860100000000  0.5241580000000 1.0
C      1  0.5139890000000  0.5241590000000  0.5615490000000 1.0
C      1  0.5139910000000  0.4758410000000  0.4384520000000 1.0
C      1  0.4860090000000  0.4758420000000  0.5615480000000 1.0
C      1  0.4758410000000  0.4384520000000  0.5139900000000 1.0
C      1  0.4758420000000  0.5615480000000  0.4860100000000 1.0
C      1  0.5241580000000  0.5615490000000  0.5139900000000 1.0
C      1  0.5615490000000  0.4860100000000  0.4758420000000 1.0
C      1  0.5615480000000  0.5139900000000  0.5241590000000 1.0
C      1  0.4384520000000  0.5139900000000  0.4758410000000 1.0
C      1  0.4384520000000  0.5241580000000  0.4860090000000 1.0
C      1  0.4860100000000  0.4384520000000  0.5241590000000 1.0
C      1  0.5241590000000  0.4860100000000  0.4384520000000 1.0
C      1  0.5615480000000  0.5241590000000  0.5139910000000 1.0
C      1  0.4384510000000  0.4758410000000  0.5139890000000 1.0
C      1  0.5615490000000  0.4758420000000  0.4860110000000 1.0
C      1  0.5139900000000  0.4384510000000  0.4758420000000 1.0
C      1  0.4860110000000  0.5615480000000  0.4758410000000 1.0
C      1  0.5139890000000  0.5615490000000  0.5241590000000 1.0
C      1  0.4758410000000  0.4860100000000  0.5615480000000 1.0
C      1  0.5241580000000  0.5139900000000  0.5615490000000 1.0
C      1  0.4758420000000  0.5139900000000  0.4384510000000 1.0
END
