TITL C-112676-196-203 1.07514487815516 1000000 -1741.34320383335 0 0 240 (C1) n - 1
REM
REM in /home/chem/mssmkc/work/GAP20/Larger-Clusters/Only-C240-new-series
REM
REM
REM
REM
REM
REM ./C.cell (c58642faaf353743302a0f2d8ff18644)
REM
REM compiler GCC version 8.3.0
REM options -cpp -mtune=generic -march=x86-64 -g -O0
REM seed -1364981001 536194316 -1168422304 1242160701 -30302162 98646529 217791446 -926498594 1642352595 -138536187 1456700106 -895981228 1341804888 -1378511619 -700140175 826692856 -731710032 1294527995 -1125161437 1465277546 1259109387 -519528042 1921162882 -775062309 -1764844348 1603821432 109689392 728651768 1567630718 -672982095 -43777440 -1217655521 -1377938513
REM
CELL 1.54180  100.00000  100.00000  100.00000   90.00000   90.00000   90.00000
LATT -1
SFAC C  
C      1  0.4546050000000  0.4578590000000  0.4729210000000 1.0
C      1  0.4578830000000  0.4729860000000  0.4545150000000 1.0
C      1  0.4730440000000  0.4546130000000  0.4578290000000 1.0
C      1  0.5449150000000  0.5422040000000  0.4730860000000 1.0
C      1  0.4543200000000  0.5417030000000  0.5268060000000 1.0
C      1  0.5451390000000  0.4582660000000  0.5265590000000 1.0
C      1  0.5416220000000  0.5271260000000  0.4546410000000 1.0
C      1  0.4577470000000  0.5265760000000  0.5451560000000 1.0
C      1  0.5418100000000  0.4733550000000  0.5449760000000 1.0
C      1  0.5263850000000  0.5453920000000  0.4580930000000 1.0
C      1  0.4727460000000  0.5451010000000  0.5418760000000 1.0
C      1  0.5267530000000  0.4549050000000  0.5416830000000 1.0
C      1  0.4547540000000  0.4578080000000  0.5266680000000 1.0
C      1  0.4579440000000  0.4728360000000  0.5451800000000 1.0
C      1  0.4731330000000  0.4544930000000  0.5417850000000 1.0
C      1  0.5449370000000  0.5421140000000  0.5268220000000 1.0
C      1  0.4542960000000  0.5417960000000  0.4731750000000 1.0
C      1  0.5452550000000  0.4583120000000  0.4729470000000 1.0
C      1  0.5416640000000  0.5269730000000  0.5452220000000 1.0
C      1  0.4577120000000  0.5267320000000  0.4547730000000 1.0
C      1  0.5418050000000  0.4735000000000  0.4546440000000 1.0
C      1  0.5264200000000  0.5452450000000  0.5418430000000 1.0
C      1  0.4727100000000  0.5452500000000  0.4581030000000 1.0
C      1  0.5267850000000  0.4550160000000  0.4578780000000 1.0
C      1  0.5426240000000  0.4872450000000  0.5461370000000 1.0
C      1  0.4866600000000  0.5462220000000  0.5426010000000 1.0
C      1  0.5460360000000  0.5428980000000  0.4870070000000 1.0
C      1  0.4570980000000  0.5126530000000  0.5462020000000 1.0
C      1  0.5424970000000  0.5132250000000  0.4535240000000 1.0
C      1  0.4571510000000  0.4869210000000  0.4535160000000 1.0
C      1  0.5128700000000  0.4537080000000  0.5425480000000 1.0
C      1  0.4869830000000  0.4536480000000  0.4571500000000 1.0
C      1  0.5124740000000  0.5463870000000  0.4573800000000 1.0
C      1  0.4535890000000  0.4571600000000  0.4868550000000 1.0
C      1  0.5462830000000  0.4574230000000  0.5126700000000 1.0
C      1  0.4531770000000  0.5425360000000  0.5129110000000 1.0
C      1  0.5425800000000  0.4873980000000  0.4535720000000 1.0
C      1  0.4866240000000  0.5463770000000  0.4573700000000 1.0
C      1  0.5460450000000  0.5428550000000  0.5129020000000 1.0
C      1  0.4570660000000  0.5128130000000  0.4536810000000 1.0
C      1  0.5425450000000  0.5130670000000  0.5462910000000 1.0
C      1  0.4571810000000  0.4867630000000  0.5462660000000 1.0
C      1  0.5128710000000  0.4538750000000  0.4571610000000 1.0
C      1  0.4870470000000  0.4534740000000  0.5425840000000 1.0
C      1  0.5125090000000  0.5462340000000  0.5425710000000 1.0
C      1  0.4537050000000  0.4571380000000  0.5127470000000 1.0
C      1  0.5463840000000  0.4574450000000  0.4868490000000 1.0
C      1  0.4531640000000  0.5425810000000  0.4870740000000 1.0
C      1  0.5065510000000  0.5545820000000  0.4670880000000 1.0
C      1  0.5546370000000  0.4670460000000  0.5067940000000 1.0
C      1  0.4668230000000  0.5067830000000  0.5543740000000 1.0
C      1  0.4929510000000  0.4455340000000  0.4668470000000 1.0
C      1  0.5070130000000  0.4453120000000  0.5329500000000 1.0
C      1  0.4925350000000  0.5544550000000  0.5329140000000 1.0
C      1  0.4448800000000  0.5329060000000  0.5069850000000 1.0
C      1  0.5542500000000  0.5332310000000  0.4928980000000 1.0
C      1  0.4454320000000  0.4668320000000  0.4928030000000 1.0
C      1  0.5330160000000  0.4930810000000  0.5545360000000 1.0
C      1  0.4668430000000  0.4929080000000  0.4454120000000 1.0
C      1  0.5329030000000  0.5072780000000  0.4452110000000 1.0
C      1  0.5065780000000  0.5544640000000  0.5328980000000 1.0
C      1  0.5546780000000  0.4670640000000  0.4927830000000 1.0
C      1  0.4667900000000  0.5069730000000  0.4454860000000 1.0
C      1  0.4930040000000  0.4452060000000  0.5329570000000 1.0
C      1  0.5070160000000  0.4456350000000  0.4668390000000 1.0
C      1  0.4925060000000  0.5545730000000  0.4670830000000 1.0
C      1  0.4448720000000  0.5329300000000  0.4929720000000 1.0
C      1  0.5542550000000  0.5332080000000  0.5069700000000 1.0
C      1  0.4454810000000  0.4668130000000  0.5068670000000 1.0
C      1  0.5329520000000  0.4932710000000  0.4452230000000 1.0
C      1  0.4668680000000  0.4927170000000  0.5544020000000 1.0
C      1  0.5329620000000  0.5070900000000  0.5545970000000 1.0
C      1  0.5142660000000  0.5611010000000  0.5221290000000 1.0
C      1  0.5609430000000  0.5224970000000  0.5147360000000 1.0
C      1  0.5222080000000  0.5147260000000  0.5611670000000 1.0
C      1  0.4853360000000  0.4386290000000  0.5222270000000 1.0
C      1  0.5148400000000  0.4389730000000  0.4775290000000 1.0
C      1  0.4847670000000  0.5611230000000  0.4778720000000 1.0
C      1  0.4387660000000  0.4774800000000  0.5146750000000 1.0
C      1  0.5611990000000  0.4778240000000  0.4851070000000 1.0
C      1  0.4383900000000  0.5221820000000  0.4852550000000 1.0
C      1  0.4776180000000  0.4849740000000  0.5610570000000 1.0
C      1  0.5222590000000  0.4855420000000  0.4386520000000 1.0
C      1  0.4774710000000  0.5148200000000  0.4388340000000 1.0
C      1  0.5142490000000  0.5611790000000  0.4778740000000 1.0
C      1  0.5609350000000  0.5225440000000  0.4850900000000 1.0
C      1  0.5221460000000  0.5149390000000  0.4386740000000 1.0
C      1  0.4852080000000  0.4388130000000  0.4775550000000 1.0
C      1  0.5147400000000  0.4387920000000  0.5222250000000 1.0
C      1  0.4847870000000  0.5610440000000  0.5221550000000 1.0
C      1  0.4387070000000  0.4775270000000  0.4850480000000 1.0
C      1  0.5611630000000  0.4777770000000  0.5145120000000 1.0
C      1  0.4384080000000  0.5221320000000  0.5146700000000 1.0
C      1  0.4775900000000  0.4851920000000  0.4387290000000 1.0
C      1  0.5223310000000  0.4853260000000  0.5610990000000 1.0
C      1  0.4775150000000  0.5146050000000  0.5610390000000 1.0
C      1  0.4804970000000  0.5276950000000  0.4444700000000 1.0
C      1  0.5276990000000  0.4446080000000  0.4806150000000 1.0
C      1  0.4443590000000  0.4805580000000  0.5275570000000 1.0
C      1  0.5189450000000  0.4727390000000  0.4443390000000 1.0
C      1  0.4807490000000  0.4721160000000  0.5554460000000 1.0
C      1  0.5187810000000  0.5274900000000  0.5554630000000 1.0
C      1  0.4719260000000  0.5554420000000  0.4809510000000 1.0
C      1  0.5271530000000  0.5555330000000  0.5190320000000 1.0
C      1  0.4725330000000  0.4442970000000  0.5188780000000 1.0
C      1  0.5553470000000  0.5193740000000  0.5276070000000 1.0
C      1  0.4441340000000  0.5188760000000  0.4724720000000 1.0
C      1  0.5554690000000  0.4812080000000  0.4723430000000 1.0
C      1  0.4805420000000  0.5274980000000  0.5554420000000 1.0
C      1  0.5274920000000  0.4445500000000  0.5188520000000 1.0
C      1  0.4442910000000  0.4806460000000  0.4721720000000 1.0
C      1  0.5189960000000  0.4725480000000  0.5553750000000 1.0
C      1  0.4807150000000  0.4723140000000  0.4443030000000 1.0
C      1  0.5187310000000  0.5276850000000  0.4444210000000 1.0
C      1  0.4719450000000  0.5553750000000  0.5190640000000 1.0
C      1  0.5271390000000  0.5555990000000  0.4809380000000 1.0
C      1  0.4723060000000  0.4443570000000  0.4806430000000 1.0
C      1  0.5553260000000  0.5194640000000  0.4722130000000 1.0
C      1  0.4441600000000  0.5187840000000  0.5274370000000 1.0
C      1  0.5554450000000  0.4811240000000  0.5272910000000 1.0
C      1  0.4927190000000  0.4273150000000  0.5179930000000 1.0
C      1  0.4270600000000  0.5178780000000  0.4925790000000 1.0
C      1  0.5180150000000  0.4928560000000  0.4272950000000 1.0
C      1  0.5068750000000  0.5721370000000  0.5171580000000 1.0
C      1  0.4921020000000  0.5721660000000  0.4829040000000 1.0
C      1  0.5073930000000  0.4280820000000  0.4825830000000 1.0
C      1  0.5725370000000  0.4820660000000  0.4924470000000 1.0
C      1  0.4278790000000  0.4824950000000  0.5071950000000 1.0
C      1  0.5717890000000  0.5174590000000  0.5072090000000 1.0
C      1  0.4825620000000  0.5073700000000  0.4279600000000 1.0
C      1  0.5180260000000  0.5073640000000  0.5725110000000 1.0
C      1  0.4826720000000  0.4925050000000  0.5718880000000 1.0
C      1  0.4927810000000  0.4280020000000  0.4825950000000 1.0
C      1  0.4270720000000  0.5178530000000  0.5073450000000 1.0
C      1  0.5180940000000  0.4926050000000  0.5724810000000 1.0
C      1  0.5068610000000  0.5721930000000  0.4828980000000 1.0
C      1  0.4921170000000  0.5721090000000  0.5171640000000 1.0
C      1  0.5074780000000  0.4273970000000  0.5179960000000 1.0
C      1  0.5725200000000  0.4820360000000  0.5072070000000 1.0
C      1  0.4278500000000  0.4825200000000  0.4925840000000 1.0
C      1  0.5717870000000  0.5174840000000  0.4925940000000 1.0
C      1  0.4826150000000  0.5071170000000  0.5718820000000 1.0
C      1  0.5179510000000  0.5076150000000  0.4273100000000 1.0
C      1  0.4826240000000  0.4927590000000  0.4279120000000 1.0
C      1  0.4693250000000  0.4659320000000  0.5492420000000 1.0
C      1  0.4657720000000  0.5492510000000  0.4694760000000 1.0
C      1  0.5492410000000  0.4697600000000  0.4661050000000 1.0
C      1  0.5302070000000  0.5337810000000  0.5492510000000 1.0
C      1  0.4690150000000  0.5337610000000  0.4506740000000 1.0
C      1  0.5304370000000  0.4665650000000  0.4505500000000 1.0
C      1  0.5337830000000  0.4508880000000  0.4691850000000 1.0
C      1  0.4662750000000  0.4504490000000  0.5303610000000 1.0
C      1  0.5333550000000  0.5493940000000  0.5305080000000 1.0
C      1  0.4502980000000  0.5303840000000  0.4662700000000 1.0
C      1  0.5490820000000  0.5307820000000  0.5337600000000 1.0
C      1  0.4505780000000  0.4691030000000  0.5336680000000 1.0
C      1  0.4692650000000  0.4660920000000  0.4504260000000 1.0
C      1  0.4658000000000  0.5491430000000  0.5305220000000 1.0
C      1  0.5491860000000  0.4696630000000  0.5334650000000 1.0
C      1  0.5301640000000  0.5339530000000  0.4506440000000 1.0
C      1  0.4690560000000  0.5335880000000  0.5492700000000 1.0
C      1  0.5304470000000  0.4664140000000  0.5490590000000 1.0
C      1  0.5336600000000  0.4508580000000  0.5302870000000 1.0
C      1  0.4661150000000  0.4504870000000  0.4691770000000 1.0
C      1  0.5333300000000  0.5494990000000  0.4694360000000 1.0
C      1  0.4503270000000  0.5302690000000  0.5336760000000 1.0
C      1  0.5490530000000  0.5308950000000  0.4661070000000 1.0
C      1  0.4504760000000  0.4692050000000  0.4659900000000 1.0
C      1  0.4128280000000  0.5189290000000  0.5076090000000 1.0
C      1  0.5190780000000  0.5078910000000  0.4130700000000 1.0
C      1  0.5078150000000  0.4131570000000  0.5190870000000 1.0
C      1  0.5867640000000  0.4809550000000  0.5074740000000 1.0
C      1  0.4141310000000  0.4862980000000  0.4923560000000 1.0
C      1  0.5854880000000  0.5136410000000  0.4923310000000 1.0
C      1  0.4864740000000  0.4925580000000  0.4142140000000 1.0
C      1  0.5192170000000  0.4923280000000  0.5867220000000 1.0
C      1  0.4864920000000  0.5073920000000  0.5855750000000 1.0
C      1  0.4918550000000  0.5863090000000  0.5162610000000 1.0
C      1  0.5070710000000  0.5863860000000  0.4838820000000 1.0
C      1  0.4926030000000  0.4142970000000  0.4864310000000 1.0
C      1  0.4128140000000  0.5189520000000  0.4923460000000 1.0
C      1  0.5191580000000  0.5075940000000  0.5867520000000 1.0
C      1  0.5077340000000  0.4143850000000  0.4864260000000 1.0
C      1  0.5867810000000  0.4809790000000  0.4922070000000 1.0
C      1  0.4141600000000  0.4862750000000  0.5074880000000 1.0
C      1  0.5854870000000  0.5136160000000  0.5074620000000 1.0
C      1  0.4865510000000  0.4922620000000  0.5855760000000 1.0
C      1  0.5191360000000  0.4926250000000  0.4130530000000 1.0
C      1  0.4864140000000  0.5076890000000  0.4142610000000 1.0
C      1  0.4918420000000  0.5863590000000  0.4838860000000 1.0
C      1  0.5070850000000  0.5863360000000  0.5162520000000 1.0
C      1  0.4925480000000  0.4130690000000  0.5190910000000 1.0
C      1  0.4640950000000  0.4484630000000  0.5069400000000 1.0
C      1  0.4483610000000  0.5069660000000  0.4640240000000 1.0
C      1  0.5070360000000  0.4642340000000  0.4484710000000 1.0
C      1  0.5356290000000  0.5514900000000  0.5071320000000 1.0
C      1  0.4634940000000  0.5513040000000  0.4928470000000 1.0
C      1  0.5360460000000  0.4486930000000  0.4925800000000 1.0
C      1  0.5512930000000  0.4931680000000  0.4639400000000 1.0
C      1  0.4484440000000  0.4925170000000  0.5359180000000 1.0
C      1  0.5512850000000  0.5073770000000  0.5359190000000 1.0
C      1  0.4924230000000  0.5360720000000  0.4486220000000 1.0
C      1  0.5067890000000  0.5358490000000  0.5512980000000 1.0
C      1  0.4927490000000  0.4638490000000  0.5513130000000 1.0
C      1  0.4639790000000  0.4484720000000  0.4926110000000 1.0
C      1  0.4483910000000  0.5068450000000  0.5358380000000 1.0
C      1  0.5070730000000  0.4640400000000  0.5512810000000 1.0
C      1  0.5356240000000  0.5515150000000  0.4928170000000 1.0
C      1  0.4635010000000  0.5512790000000  0.5071600000000 1.0
C      1  0.5359370000000  0.4486850000000  0.5069040000000 1.0
C      1  0.5513150000000  0.4930510000000  0.5357720000000 1.0
C      1  0.4484070000000  0.4926380000000  0.4638800000000 1.0
C      1  0.5512530000000  0.5074950000000  0.4638600000000 1.0
C      1  0.4924660000000  0.5358870000000  0.5513100000000 1.0
C      1  0.5067450000000  0.5360340000000  0.4486230000000 1.0
C      1  0.4927090000000  0.4640460000000  0.4484520000000 1.0
C      1  0.5070210000000  0.5970550000000  0.5073590000000 1.0
C      1  0.5963960000000  0.5050900000000  0.5075830000000 1.0
C      1  0.5096580000000  0.5073460000000  0.5971520000000 1.0
C      1  0.4928060000000  0.4026850000000  0.5095720000000 1.0
C      1  0.5079290000000  0.4034890000000  0.4949690000000 1.0
C      1  0.4918620000000  0.5970490000000  0.4928130000000 1.0
C      1  0.4032350000000  0.4947820000000  0.5076500000000 1.0
C      1  0.5971480000000  0.4905180000000  0.4924290000000 1.0
C      1  0.4024530000000  0.5094030000000  0.4925420000000 1.0
C      1  0.4951210000000  0.4921590000000  0.5964510000000 1.0
C      1  0.5096350000000  0.4928070000000  0.4026490000000 1.0
C      1  0.4949720000000  0.5078810000000  0.4033760000000 1.0
C      1  0.5070170000000  0.5970770000000  0.4928070000000 1.0
C      1  0.5964000000000  0.5051170000000  0.4921910000000 1.0
C      1  0.5095730000000  0.5076770000000  0.4026730000000 1.0
C      1  0.4925380000000  0.4034000000000  0.4949740000000 1.0
C      1  0.5076760000000  0.4027710000000  0.5095690000000 1.0
C      1  0.4918700000000  0.5970260000000  0.5073650000000 1.0
C      1  0.4032090000000  0.4948080000000  0.4922560000000 1.0
C      1  0.5971350000000  0.4904920000000  0.5072980000000 1.0
C      1  0.4024700000000  0.5093780000000  0.5074110000000 1.0
C      1  0.4950360000000  0.4924890000000  0.4033330000000 1.0
C      1  0.5097200000000  0.4924760000000  0.5971290000000 1.0
C      1  0.4950570000000  0.5075500000000  0.5964560000000 1.0
END
