TITL C-112675-8135-142 -0.306877512058603 1000000 -1695.08349252055 0 0 240 (Th) n - 1
REM
REM in /home/chem/mssmkc/work/GAP20/Larger-Clusters/Only-C240-new-series
REM
REM
REM
REM
REM
REM ./C.cell (db83009d4c1eceb3c2f0bef44cf3317a)
REM
REM compiler GCC version 8.3.0
REM options -cpp -mtune=generic -march=x86-64 -g -O0
REM seed 631209361 455785059 973268547 -1399669486 -229507592 -824472995 -957541483 -159576777 -1535966049 670928728 60321744 1100299569 557295128 -645581970 -203125299 -1668970293 1362362970 -530884546 -1621015317 2000803101 -778452359 1111399418 -860503388 655519973 437707720 -1164167606 -324347825 -1029114978 -1694136246 934991639 -165881314 -1178421334 -314788870
REM
CELL 1.54180  100.00000  100.00000  100.00000   90.00000   90.00000   90.00000
LATT -1
SFAC C  
C      1  0.4929150000000  0.5771290000000  0.5153760000000 1.0
C      1  0.5771290000000  0.5153740000000  0.4929060000000 1.0
C      1  0.5153820000000  0.4929110000000  0.5771280000000 1.0
C      1  0.5070830000000  0.5771310000000  0.4846300000000 1.0
C      1  0.5070880000000  0.4228690000000  0.5153690000000 1.0
C      1  0.4929130000000  0.4228700000000  0.4846250000000 1.0
C      1  0.4228710000000  0.5153720000000  0.5070950000000 1.0
C      1  0.4228690000000  0.4846270000000  0.4929230000000 1.0
C      1  0.5771310000000  0.4846280000000  0.5070760000000 1.0
C      1  0.4846180000000  0.4929170000000  0.4228710000000 1.0
C      1  0.4846360000000  0.5070830000000  0.5771320000000 1.0
C      1  0.5153630000000  0.5070890000000  0.4228680000000 1.0
C      1  0.4929170000000  0.4228690000000  0.5153700000000 1.0
C      1  0.5771290000000  0.4846280000000  0.4929050000000 1.0
C      1  0.5153820000000  0.5070830000000  0.5771290000000 1.0
C      1  0.5070850000000  0.4228710000000  0.4846240000000 1.0
C      1  0.5070870000000  0.5771300000000  0.5153750000000 1.0
C      1  0.4929120000000  0.5771310000000  0.4846310000000 1.0
C      1  0.4228710000000  0.4846260000000  0.5070940000000 1.0
C      1  0.4228690000000  0.5153720000000  0.4929240000000 1.0
C      1  0.5771310000000  0.5153730000000  0.5070770000000 1.0
C      1  0.4846180000000  0.5070890000000  0.4228720000000 1.0
C      1  0.4846370000000  0.4929110000000  0.5771320000000 1.0
C      1  0.5153640000000  0.4929170000000  0.4228680000000 1.0
C      1  0.4658240000000  0.5528190000000  0.5076300000000 1.0
C      1  0.5528150000000  0.5076250000000  0.4658170000000 1.0
C      1  0.5076300000000  0.4658210000000  0.5528170000000 1.0
C      1  0.5341750000000  0.5528200000000  0.4923750000000 1.0
C      1  0.5341780000000  0.4471810000000  0.5076170000000 1.0
C      1  0.4658230000000  0.4471810000000  0.4923780000000 1.0
C      1  0.4471850000000  0.5076220000000  0.5341830000000 1.0
C      1  0.4471770000000  0.4923770000000  0.4658290000000 1.0
C      1  0.5528230000000  0.4923760000000  0.5341700000000 1.0
C      1  0.4923710000000  0.4658250000000  0.4471800000000 1.0
C      1  0.4923820000000  0.5341750000000  0.5528210000000 1.0
C      1  0.5076170000000  0.5341790000000  0.4471810000000 1.0
C      1  0.4658250000000  0.4471800000000  0.5076250000000 1.0
C      1  0.5528150000000  0.4923780000000  0.4658170000000 1.0
C      1  0.5076290000000  0.5341750000000  0.5528200000000 1.0
C      1  0.5341760000000  0.4471810000000  0.4923700000000 1.0
C      1  0.5341770000000  0.5528190000000  0.5076220000000 1.0
C      1  0.4658220000000  0.5528190000000  0.4923830000000 1.0
C      1  0.4471850000000  0.4923750000000  0.5341830000000 1.0
C      1  0.4471770000000  0.5076240000000  0.4658300000000 1.0
C      1  0.5528230000000  0.5076230000000  0.5341710000000 1.0
C      1  0.4923700000000  0.5341790000000  0.4471830000000 1.0
C      1  0.4923830000000  0.4658210000000  0.5528190000000 1.0
C      1  0.5076180000000  0.4658250000000  0.4471790000000 1.0
C      1  0.4736360000000  0.5174890000000  0.5593700000000 1.0
C      1  0.5174880000000  0.5593670000000  0.4736300000000 1.0
C      1  0.5593680000000  0.4736290000000  0.5174840000000 1.0
C      1  0.5263630000000  0.5174950000000  0.4406320000000 1.0
C      1  0.5263770000000  0.4825060000000  0.5593620000000 1.0
C      1  0.4736230000000  0.4825100000000  0.4406370000000 1.0
C      1  0.4825110000000  0.5593650000000  0.5263750000000 1.0
C      1  0.4825050000000  0.4406350000000  0.4736290000000 1.0
C      1  0.5174960000000  0.4406330000000  0.5263660000000 1.0
C      1  0.4406320000000  0.4736300000000  0.4825140000000 1.0
C      1  0.4406360000000  0.5263690000000  0.5175000000000 1.0
C      1  0.5593640000000  0.5263720000000  0.4825020000000 1.0
C      1  0.4736370000000  0.4825050000000  0.5593680000000 1.0
C      1  0.5174890000000  0.4406350000000  0.4736250000000 1.0
C      1  0.5593680000000  0.5263700000000  0.5174860000000 1.0
C      1  0.5263640000000  0.4825110000000  0.4406300000000 1.0
C      1  0.5263770000000  0.5174900000000  0.5593630000000 1.0
C      1  0.4736230000000  0.5174940000000  0.4406380000000 1.0
C      1  0.4825120000000  0.4406330000000  0.5263700000000 1.0
C      1  0.4825040000000  0.5593670000000  0.4736340000000 1.0
C      1  0.5174950000000  0.5593650000000  0.5263710000000 1.0
C      1  0.4406320000000  0.5263710000000  0.4825160000000 1.0
C      1  0.4406360000000  0.4736280000000  0.5174980000000 1.0
C      1  0.5593640000000  0.4736310000000  0.4825000000000 1.0
C      1  0.5354530000000  0.4775740000000  0.5502070000000 1.0
C      1  0.4775790000000  0.5502110000000  0.5354510000000 1.0
C      1  0.5502090000000  0.5354480000000  0.4775710000000 1.0
C      1  0.4645480000000  0.4775770000000  0.4497910000000 1.0
C      1  0.4645590000000  0.5224220000000  0.5502170000000 1.0
C      1  0.5354410000000  0.5224270000000  0.4497840000000 1.0
C      1  0.5224200000000  0.5502140000000  0.4645530000000 1.0
C      1  0.5224290000000  0.4497870000000  0.5354420000000 1.0
C      1  0.4775720000000  0.4497890000000  0.4645540000000 1.0
C      1  0.4497900000000  0.5354450000000  0.5224320000000 1.0
C      1  0.4497850000000  0.4645540000000  0.4775800000000 1.0
C      1  0.5502150000000  0.4645530000000  0.5224170000000 1.0
C      1  0.5354520000000  0.5224230000000  0.5502090000000 1.0
C      1  0.4775800000000  0.4497860000000  0.5354470000000 1.0
C      1  0.5502100000000  0.4645550000000  0.4775680000000 1.0
C      1  0.4645470000000  0.5224260000000  0.4497930000000 1.0
C      1  0.4645590000000  0.4775730000000  0.5502160000000 1.0
C      1  0.5354410000000  0.4775780000000  0.4497830000000 1.0
C      1  0.5224210000000  0.4497890000000  0.4645490000000 1.0
C      1  0.5224280000000  0.5502110000000  0.5354460000000 1.0
C      1  0.4775710000000  0.5502130000000  0.4645580000000 1.0
C      1  0.4497910000000  0.4645520000000  0.5224290000000 1.0
C      1  0.4497850000000  0.5354470000000  0.4775830000000 1.0
C      1  0.5502150000000  0.5354460000000  0.5224200000000 1.0
C      1  0.5239310000000  0.5612840000000  0.4866170000000 1.0
C      1  0.5612860000000  0.4866170000000  0.5239250000000 1.0
C      1  0.4866240000000  0.5239300000000  0.5612850000000 1.0
C      1  0.4760680000000  0.5612820000000  0.5133880000000 1.0
C      1  0.4760660000000  0.4387170000000  0.4866180000000 1.0
C      1  0.5239350000000  0.4387170000000  0.5133780000000 1.0
C      1  0.4387140000000  0.4866180000000  0.4760740000000 1.0
C      1  0.4387200000000  0.5133810000000  0.5239400000000 1.0
C      1  0.5612800000000  0.5133840000000  0.4760610000000 1.0
C      1  0.5133750000000  0.5239350000000  0.4387170000000 1.0
C      1  0.5133900000000  0.4760650000000  0.5612800000000 1.0
C      1  0.4866100000000  0.4760700000000  0.4387180000000 1.0
C      1  0.5239320000000  0.4387180000000  0.4866120000000 1.0
C      1  0.5612860000000  0.5133820000000  0.5239260000000 1.0
C      1  0.4866250000000  0.4760650000000  0.5612830000000 1.0
C      1  0.4760690000000  0.4387160000000  0.5133830000000 1.0
C      1  0.4760650000000  0.5612830000000  0.4866220000000 1.0
C      1  0.5239340000000  0.5612830000000  0.5133820000000 1.0
C      1  0.4387140000000  0.5133830000000  0.4760750000000 1.0
C      1  0.4387200000000  0.4866160000000  0.5239390000000 1.0
C      1  0.5612800000000  0.4866190000000  0.4760600000000 1.0
C      1  0.5133760000000  0.4760700000000  0.4387150000000 1.0
C      1  0.5133900000000  0.5239300000000  0.5612820000000 1.0
C      1  0.4866100000000  0.5239350000000  0.4387200000000 1.0
C      1  0.4635680000000  0.5510670000000  0.5316480000000 1.0
C      1  0.5510640000000  0.5316440000000  0.4635600000000 1.0
C      1  0.5316480000000  0.4635630000000  0.5510630000000 1.0
C      1  0.5364310000000  0.5510700000000  0.4683560000000 1.0
C      1  0.5364390000000  0.4489310000000  0.5316360000000 1.0
C      1  0.4635620000000  0.4489330000000  0.4683600000000 1.0
C      1  0.4489360000000  0.5316400000000  0.5364420000000 1.0
C      1  0.4489280000000  0.4683590000000  0.4635700000000 1.0
C      1  0.5510730000000  0.4683570000000  0.5364280000000 1.0
C      1  0.4683530000000  0.4635670000000  0.4489340000000 1.0
C      1  0.4683640000000  0.5364330000000  0.5510730000000 1.0
C      1  0.5316350000000  0.5364370000000  0.4489290000000 1.0
C      1  0.4635690000000  0.4489300000000  0.5316440000000 1.0
C      1  0.5510640000000  0.4683600000000  0.4635580000000 1.0
C      1  0.5316470000000  0.5364330000000  0.5510660000000 1.0
C      1  0.5364320000000  0.4489330000000  0.4683520000000 1.0
C      1  0.5364380000000  0.5510670000000  0.5316400000000 1.0
C      1  0.4635610000000  0.5510690000000  0.4683640000000 1.0
C      1  0.4489360000000  0.4683560000000  0.5364400000000 1.0
C      1  0.4489270000000  0.5316430000000  0.4635720000000 1.0
C      1  0.5510720000000  0.5316410000000  0.5364300000000 1.0
C      1  0.4683520000000  0.5364370000000  0.4489370000000 1.0
C      1  0.4683650000000  0.4635630000000  0.5510710000000 1.0
C      1  0.5316360000000  0.4635670000000  0.4489270000000 1.0
C      1  0.4575190000000  0.5456720000000  0.5535640000000 1.0
C      1  0.5456690000000  0.5535590000000  0.4575100000000 1.0
C      1  0.5535630000000  0.4575120000000  0.5456660000000 1.0
C      1  0.5424800000000  0.5456770000000  0.4464400000000 1.0
C      1  0.5424940000000  0.4543240000000  0.5535500000000 1.0
C      1  0.4575070000000  0.4543280000000  0.4464460000000 1.0
C      1  0.4543300000000  0.5535550000000  0.5424940000000 1.0
C      1  0.4543210000000  0.4464440000000  0.4575160000000 1.0
C      1  0.5456800000000  0.4464420000000  0.5424800000000 1.0
C      1  0.4464380000000  0.4575140000000  0.4543300000000 1.0
C      1  0.4464480000000  0.5424850000000  0.5456820000000 1.0
C      1  0.5535510000000  0.5424890000000  0.4543210000000 1.0
C      1  0.4575200000000  0.4543230000000  0.5535600000000 1.0
C      1  0.5456700000000  0.4464450000000  0.4575050000000 1.0
C      1  0.5535620000000  0.5424860000000  0.5456700000000 1.0
C      1  0.5424810000000  0.4543280000000  0.4464360000000 1.0
C      1  0.5424930000000  0.5456720000000  0.5535540000000 1.0
C      1  0.4575060000000  0.5456760000000  0.4464500000000 1.0
C      1  0.4543310000000  0.4464410000000  0.5424900000000 1.0
C      1  0.4543200000000  0.5535580000000  0.4575200000000 1.0
C      1  0.5456790000000  0.5535560000000  0.5424840000000 1.0
C      1  0.4464370000000  0.5424880000000  0.4543340000000 1.0
C      1  0.4464490000000  0.4575110000000  0.5456790000000 1.0
C      1  0.5535520000000  0.4575150000000  0.4543180000000 1.0
C      1  0.4725240000000  0.5070430000000  0.4312540000000 1.0
C      1  0.5070380000000  0.4312520000000  0.4725280000000 1.0
C      1  0.4312520000000  0.4725310000000  0.5070470000000 1.0
C      1  0.5274760000000  0.5070380000000  0.5687460000000 1.0
C      1  0.5274600000000  0.4929630000000  0.4312470000000 1.0
C      1  0.4725400000000  0.4929570000000  0.5687520000000 1.0
C      1  0.4929640000000  0.4312500000000  0.5274660000000 1.0
C      1  0.4929560000000  0.5687500000000  0.4725350000000 1.0
C      1  0.5070430000000  0.5687480000000  0.5274700000000 1.0
C      1  0.5687480000000  0.4725330000000  0.4929510000000 1.0
C      1  0.5687500000000  0.5274680000000  0.5070330000000 1.0
C      1  0.4312500000000  0.5274680000000  0.4929690000000 1.0
C      1  0.4725240000000  0.4929620000000  0.4312540000000 1.0
C      1  0.5070360000000  0.5687500000000  0.4725340000000 1.0
C      1  0.4312520000000  0.5274670000000  0.5070490000000 1.0
C      1  0.5274760000000  0.4929570000000  0.5687460000000 1.0
C      1  0.5274600000000  0.5070430000000  0.4312480000000 1.0
C      1  0.4725400000000  0.5070370000000  0.5687530000000 1.0
C      1  0.4929620000000  0.5687480000000  0.5274720000000 1.0
C      1  0.4929570000000  0.4312520000000  0.4725300000000 1.0
C      1  0.5070440000000  0.4312500000000  0.5274650000000 1.0
C      1  0.5687480000000  0.5274690000000  0.4929530000000 1.0
C      1  0.5687500000000  0.4725320000000  0.5070310000000 1.0
C      1  0.4312500000000  0.4725320000000  0.4929670000000 1.0
C      1  0.4586800000000  0.4535060000000  0.4810750000000 1.0
C      1  0.4535010000000  0.4810730000000  0.4586860000000 1.0
C      1  0.4810670000000  0.4586830000000  0.4535060000000 1.0
C      1  0.5413210000000  0.4535050000000  0.5189220000000 1.0
C      1  0.5413160000000  0.5464950000000  0.4810690000000 1.0
C      1  0.4586830000000  0.5464930000000  0.5189350000000 1.0
C      1  0.5464990000000  0.4810710000000  0.5413120000000 1.0
C      1  0.5464890000000  0.5189300000000  0.4586770000000 1.0
C      1  0.4535100000000  0.5189260000000  0.5413250000000 1.0
C      1  0.5189340000000  0.4586800000000  0.5464900000000 1.0
C      1  0.5189220000000  0.5413210000000  0.4535050000000 1.0
C      1  0.4810770000000  0.5413170000000  0.5464980000000 1.0
C      1  0.4586790000000  0.5464950000000  0.4810780000000 1.0
C      1  0.4535010000000  0.5189290000000  0.4586880000000 1.0
C      1  0.4810660000000  0.5413200000000  0.4535100000000 1.0
C      1  0.5413200000000  0.5464940000000  0.5189250000000 1.0
C      1  0.5413170000000  0.4535070000000  0.4810650000000 1.0
C      1  0.4586840000000  0.4535050000000  0.5189310000000 1.0
C      1  0.5464990000000  0.5189270000000  0.5413140000000 1.0
C      1  0.5464900000000  0.4810740000000  0.4586750000000 1.0
C      1  0.4535110000000  0.4810700000000  0.5413230000000 1.0
C      1  0.5189330000000  0.5413170000000  0.5464940000000 1.0
C      1  0.5189230000000  0.4586830000000  0.4535020000000 1.0
C      1  0.4810780000000  0.4586790000000  0.5464950000000 1.0
C      1  0.4282860000000  0.4931730000000  0.4830230000000 1.0
C      1  0.4931650000000  0.4830180000000  0.4282880000000 1.0
C      1  0.4830150000000  0.4282880000000  0.4931720000000 1.0
C      1  0.5717140000000  0.4931730000000  0.5169760000000 1.0
C      1  0.5717100000000  0.5068280000000  0.4830070000000 1.0
C      1  0.4282900000000  0.5068260000000  0.5169940000000 1.0
C      1  0.5068360000000  0.4830120000000  0.5717110000000 1.0
C      1  0.5068190000000  0.5169880000000  0.4282870000000 1.0
C      1  0.4931810000000  0.5169820000000  0.5717140000000 1.0
C      1  0.5169870000000  0.4282880000000  0.5068220000000 1.0
C      1  0.5169840000000  0.5717130000000  0.4931740000000 1.0
C      1  0.4830150000000  0.5717120000000  0.5068320000000 1.0
C      1  0.4282860000000  0.5068270000000  0.4830240000000 1.0
C      1  0.4931640000000  0.5169880000000  0.4282890000000 1.0
C      1  0.4830140000000  0.5717120000000  0.4931780000000 1.0
C      1  0.5717140000000  0.5068270000000  0.5169770000000 1.0
C      1  0.5717100000000  0.4931740000000  0.4830060000000 1.0
C      1  0.4282900000000  0.4931720000000  0.5169930000000 1.0
C      1  0.5068350000000  0.5169820000000  0.5717120000000 1.0
C      1  0.5068190000000  0.4830180000000  0.4282860000000 1.0
C      1  0.4931810000000  0.4830120000000  0.5717120000000 1.0
C      1  0.5169850000000  0.5717120000000  0.5068280000000 1.0
C      1  0.5169850000000  0.4282880000000  0.4931680000000 1.0
C      1  0.4830160000000  0.4282870000000  0.5068260000000 1.0
END
