TITL C-112676-196-7 -0.012778946496282 1000000 -1713.54706623548 0 0 240 (C1) n - 1
REM
REM in /home/chem/mssmkc/work/GAP20/Larger-Clusters/Only-C240-new-series
REM
REM
REM
REM
REM
REM ./C.cell (2f3fc68bb9f120311d5b08947c2f1929)
REM
REM compiler GCC version 8.3.0
REM options -cpp -mtune=generic -march=x86-64 -g -O0
REM seed 407744945 -302355780 851728879 2098346556 299276801 -242045959 434796557 1485837014 -152500816 -594479800 -1957649585 1473218370 410984550 179598079 -1485982896 2040048562 1777952693 350365510 1736912593 -126768619 -1237696700 -1700448765 -1910585557 610250910 -931013821 -716635020 -691910841 -1283889896 1662380404 -437301845 -1868540317 -1675073782 -1590573326
REM
CELL 1.54180  100.00000  100.00000  100.00000   90.00000   90.00000   90.00000
LATT -1
SFAC C  
C      1  0.4850380000000  0.4324010000000  0.4942620000000 1.0
C      1  0.4316900000000  0.4964620000000  0.4855120000000 1.0
C      1  0.4960090000000  0.4868430000000  0.4312360000000 1.0
C      1  0.5150790000000  0.5700130000000  0.4963550000000 1.0
C      1  0.4859510000000  0.5678430000000  0.5055250000000 1.0
C      1  0.5139750000000  0.4318840000000  0.5027900000000 1.0
C      1  0.5676000000000  0.5040790000000  0.4857390000000 1.0
C      1  0.4317590000000  0.5041820000000  0.5147800000000 1.0
C      1  0.5675990000000  0.4949430000000  0.5146030000000 1.0
C      1  0.5047240000000  0.5158270000000  0.4321290000000 1.0
C      1  0.4957310000000  0.5126050000000  0.5686280000000 1.0
C      1  0.5039770000000  0.4835950000000  0.5678870000000 1.0
C      1  0.4315850000000  0.4858810000000  0.4955340000000 1.0
C      1  0.4953340000000  0.4325590000000  0.4840060000000 1.0
C      1  0.4858570000000  0.4973260000000  0.4315130000000 1.0
C      1  0.5675870000000  0.5140500000000  0.4962990000000 1.0
C      1  0.5676080000000  0.4849490000000  0.5040930000000 1.0
C      1  0.4318630000000  0.5146310000000  0.5046240000000 1.0
C      1  0.5048130000000  0.5705500000000  0.4858240000000 1.0
C      1  0.5036880000000  0.4317040000000  0.5130390000000 1.0
C      1  0.4957550000000  0.5689020000000  0.5159170000000 1.0
C      1  0.5149650000000  0.5054640000000  0.4318190000000 1.0
C      1  0.5143450000000  0.4938000000000  0.5680850000000 1.0
C      1  0.4853260000000  0.5023580000000  0.5683740000000 1.0
C      1  0.5289020000000  0.5481750000000  0.5395830000000 1.0
C      1  0.5487130000000  0.5384330000000  0.5299750000000 1.0
C      1  0.5389140000000  0.5283100000000  0.5500670000000 1.0
C      1  0.4698970000000  0.4494130000000  0.5383710000000 1.0
C      1  0.5294980000000  0.4508140000000  0.4595930000000 1.0
C      1  0.4718000000000  0.5503700000000  0.4624130000000 1.0
C      1  0.4498540000000  0.4598370000000  0.5289750000000 1.0
C      1  0.5494720000000  0.4607860000000  0.4697020000000 1.0
C      1  0.4512370000000  0.5402610000000  0.4715540000000 1.0
C      1  0.4600560000000  0.4690460000000  0.5492580000000 1.0
C      1  0.5396610000000  0.4708060000000  0.4496730000000 1.0
C      1  0.4616510000000  0.5307010000000  0.4517100000000 1.0
C      1  0.5489770000000  0.5285480000000  0.5396420000000 1.0
C      1  0.5384020000000  0.5485940000000  0.5297140000000 1.0
C      1  0.5291020000000  0.5380350000000  0.5499120000000 1.0
C      1  0.4498130000000  0.4693070000000  0.5390640000000 1.0
C      1  0.4513820000000  0.5305230000000  0.4617500000000 1.0
C      1  0.5496920000000  0.4707270000000  0.4601050000000 1.0
C      1  0.4601470000000  0.4496950000000  0.5285890000000 1.0
C      1  0.4618680000000  0.5500220000000  0.4721290000000 1.0
C      1  0.5391770000000  0.4506280000000  0.4694500000000 1.0
C      1  0.4698550000000  0.4592840000000  0.5489360000000 1.0
C      1  0.4712990000000  0.5406070000000  0.4517260000000 1.0
C      1  0.5297920000000  0.4611030000000  0.4494400000000 1.0
C      1  0.5386180000000  0.4507790000000  0.4842480000000 1.0
C      1  0.4500730000000  0.4841160000000  0.5390680000000 1.0
C      1  0.4861140000000  0.5403220000000  0.4513760000000 1.0
C      1  0.4616330000000  0.5496270000000  0.4868690000000 1.0
C      1  0.5377340000000  0.5480890000000  0.5148950000000 1.0
C      1  0.4606030000000  0.4506550000000  0.5137830000000 1.0
C      1  0.5486840000000  0.5137220000000  0.5390810000000 1.0
C      1  0.4509070000000  0.5157350000000  0.4613290000000 1.0
C      1  0.5491760000000  0.4855520000000  0.4607840000000 1.0
C      1  0.5150130000000  0.4617390000000  0.4495700000000 1.0
C      1  0.4846550000000  0.4597690000000  0.5485860000000 1.0
C      1  0.5143380000000  0.5375600000000  0.5496090000000 1.0
C      1  0.4509590000000  0.5395580000000  0.4863780000000 1.0
C      1  0.4847060000000  0.4498390000000  0.5379570000000 1.0
C      1  0.5392020000000  0.4855780000000  0.4501860000000 1.0
C      1  0.5489780000000  0.4609630000000  0.4844820000000 1.0
C      1  0.5483170000000  0.5380910000000  0.5152890000000 1.0
C      1  0.4501430000000  0.4607710000000  0.5142140000000 1.0
C      1  0.5143440000000  0.5479250000000  0.5392050000000 1.0
C      1  0.5146800000000  0.4514880000000  0.4599130000000 1.0
C      1  0.4864550000000  0.5501010000000  0.4621540000000 1.0
C      1  0.4613760000000  0.5159120000000  0.4509950000000 1.0
C      1  0.4604410000000  0.4838660000000  0.5493320000000 1.0
C      1  0.5385200000000  0.5134460000000  0.5494620000000 1.0
C      1  0.4909140000000  0.4368240000000  0.5171420000000 1.0
C      1  0.4367540000000  0.5189800000000  0.4919250000000 1.0
C      1  0.5188790000000  0.4924810000000  0.4365460000000 1.0
C      1  0.5081020000000  0.5621390000000  0.5185900000000 1.0
C      1  0.4927470000000  0.5643490000000  0.4823450000000 1.0
C      1  0.5082060000000  0.4376130000000  0.4801340000000 1.0
C      1  0.5624670000000  0.4812780000000  0.4912090000000 1.0
C      1  0.4365650000000  0.4814850000000  0.5083060000000 1.0
C      1  0.5624120000000  0.5177650000000  0.5091450000000 1.0
C      1  0.4818600000000  0.5100370000000  0.4367300000000 1.0
C      1  0.5183970000000  0.5067030000000  0.5632310000000 1.0
C      1  0.4811430000000  0.4896950000000  0.5630480000000 1.0
C      1  0.4366390000000  0.4911860000000  0.5185370000000 1.0
C      1  0.5180580000000  0.4372800000000  0.4901220000000 1.0
C      1  0.4919560000000  0.5199090000000  0.4370570000000 1.0
C      1  0.5624260000000  0.5076300000000  0.5188430000000 1.0
C      1  0.5624420000000  0.4914050000000  0.4814750000000 1.0
C      1  0.4366560000000  0.5093030000000  0.4816660000000 1.0
C      1  0.4842800000000  0.5599780000000  0.4932640000000 1.0
C      1  0.4810220000000  0.4371950000000  0.5071930000000 1.0
C      1  0.5176720000000  0.5622900000000  0.5081660000000 1.0
C      1  0.5088310000000  0.4825690000000  0.4362110000000 1.0
C      1  0.5085580000000  0.5167320000000  0.5635250000000 1.0
C      1  0.4911160000000  0.4797650000000  0.5627450000000 1.0
C      1  0.5193320000000  0.5410640000000  0.4720050000000 1.0
C      1  0.5403930000000  0.4681030000000  0.5198870000000 1.0
C      1  0.4699390000000  0.5190890000000  0.5404760000000 1.0
C      1  0.4797400000000  0.4605770000000  0.4685050000000 1.0
C      1  0.5199600000000  0.4582870000000  0.5301850000000 1.0
C      1  0.4832070000000  0.5379000000000  0.5291100000000 1.0
C      1  0.4604040000000  0.5298120000000  0.5205350000000 1.0
C      1  0.5403550000000  0.5313860000000  0.4810050000000 1.0
C      1  0.4595720000000  0.4701530000000  0.4792620000000 1.0
C      1  0.5306600000000  0.4781460000000  0.5404970000000 1.0
C      1  0.4697510000000  0.4813620000000  0.4594610000000 1.0
C      1  0.5307250000000  0.5211350000000  0.4603800000000 1.0
C      1  0.5403020000000  0.5210320000000  0.4701980000000 1.0
C      1  0.4699440000000  0.5395410000000  0.5207710000000 1.0
C      1  0.5200190000000  0.4676590000000  0.5402680000000 1.0
C      1  0.4599140000000  0.4811860000000  0.4692150000000 1.0
C      1  0.4599880000000  0.5193360000000  0.5311070000000 1.0
C      1  0.5403850000000  0.4783700000000  0.5307320000000 1.0
C      1  0.5305440000000  0.4585000000000  0.5196210000000 1.0
C      1  0.5322570000000  0.5428060000000  0.4807340000000 1.0
C      1  0.4692250000000  0.4604170000000  0.4789780000000 1.0
C      1  0.4811720000000  0.5288060000000  0.5401320000000 1.0
C      1  0.4799220000000  0.4704510000000  0.4589760000000 1.0
C      1  0.5200580000000  0.5312100000000  0.4609920000000 1.0
C      1  0.5166990000000  0.4937440000000  0.4728780000000 1.0
C      1  0.4937240000000  0.4728650000000  0.5158010000000 1.0
C      1  0.4664260000000  0.5087800000000  0.4919630000000 1.0
C      1  0.4836550000000  0.5164850000000  0.4747600000000 1.0
C      1  0.5158990000000  0.5043350000000  0.5271490000000 1.0
C      1  0.4833540000000  0.4924250000000  0.5271010000000 1.0
C      1  0.5043250000000  0.5241110000000  0.5174040000000 1.0
C      1  0.4969140000000  0.5411370000000  0.4834300000000 1.0
C      1  0.5061680000000  0.4735980000000  0.4832640000000 1.0
C      1  0.5265110000000  0.4834470000000  0.4937460000000 1.0
C      1  0.4729260000000  0.4832160000000  0.5062320000000 1.0
C      1  0.5261860000000  0.5144220000000  0.5070300000000 1.0
C      1  0.4919920000000  0.5094190000000  0.4663940000000 1.0
C      1  0.4728620000000  0.4928980000000  0.5167890000000 1.0
C      1  0.5160590000000  0.4733160000000  0.4935100000000 1.0
C      1  0.5065260000000  0.4837370000000  0.4726690000000 1.0
C      1  0.5055570000000  0.5141010000000  0.5276180000000 1.0
C      1  0.4936520000000  0.4825980000000  0.5266310000000 1.0
C      1  0.5263060000000  0.5044520000000  0.5168720000000 1.0
C      1  0.5266120000000  0.4935720000000  0.4837010000000 1.0
C      1  0.4747420000000  0.5166680000000  0.4841000000000 1.0
C      1  0.4910120000000  0.5456610000000  0.4948060000000 1.0
C      1  0.4836290000000  0.4732310000000  0.5057540000000 1.0
C      1  0.5146560000000  0.5235630000000  0.5067750000000 1.0
C      1  0.4954480000000  0.4636910000000  0.4850090000000 1.0
C      1  0.4626190000000  0.4848720000000  0.4959800000000 1.0
C      1  0.4881990000000  0.4963270000000  0.4611840000000 1.0
C      1  0.5094520000000  0.5352330000000  0.4840880000000 1.0
C      1  0.4930660000000  0.5328360000000  0.5167140000000 1.0
C      1  0.5042470000000  0.4628490000000  0.5136500000000 1.0
C      1  0.5362680000000  0.5135180000000  0.4963110000000 1.0
C      1  0.4614880000000  0.5120670000000  0.5050200000000 1.0
C      1  0.5365490000000  0.4849000000000  0.5044560000000 1.0
C      1  0.5155130000000  0.5042140000000  0.4626510000000 1.0
C      1  0.4853490000000  0.5025250000000  0.5375860000000 1.0
C      1  0.5141940000000  0.4937810000000  0.5370130000000 1.0
C      1  0.4615630000000  0.4958120000000  0.4877720000000 1.0
C      1  0.4855860000000  0.4635340000000  0.4948510000000 1.0
C      1  0.4963960000000  0.4854050000000  0.4622930000000 1.0
C      1  0.5364100000000  0.5042880000000  0.4859790000000 1.0
C      1  0.5364780000000  0.4941730000000  0.5147550000000 1.0
C      1  0.4626930000000  0.5033430000000  0.5156180000000 1.0
C      1  0.5134460000000  0.5304660000000  0.4955800000000 1.0
C      1  0.5140600000000  0.4630370000000  0.5038490000000 1.0
C      1  0.4873680000000  0.5402450000000  0.5065640000000 1.0
C      1  0.5050220000000  0.5131080000000  0.4616550000000 1.0
C      1  0.5042340000000  0.4841180000000  0.5367990000000 1.0
C      1  0.4954130000000  0.5120680000000  0.5378410000000 1.0
C      1  0.4467800000000  0.5296980000000  0.4948730000000 1.0
C      1  0.5300160000000  0.4947030000000  0.4459980000000 1.0
C      1  0.4936120000000  0.4459770000000  0.5283870000000 1.0
C      1  0.5530980000000  0.4701750000000  0.4936110000000 1.0
C      1  0.4457990000000  0.4702930000000  0.5054900000000 1.0
C      1  0.5528540000000  0.5287390000000  0.5066200000000 1.0
C      1  0.4709270000000  0.5071360000000  0.4464950000000 1.0
C      1  0.5293230000000  0.5042550000000  0.5536510000000 1.0
C      1  0.4699960000000  0.4926100000000  0.5537080000000 1.0
C      1  0.5053040000000  0.5534060000000  0.5303290000000 1.0
C      1  0.4962250000000  0.5527160000000  0.4725030000000 1.0
C      1  0.5056980000000  0.4473920000000  0.4693490000000 1.0
C      1  0.5290990000000  0.4465840000000  0.4930370000000 1.0
C      1  0.4947760000000  0.5306060000000  0.4470420000000 1.0
C      1  0.4458680000000  0.4933490000000  0.5299150000000 1.0
C      1  0.4708040000000  0.5535050000000  0.4960450000000 1.0
C      1  0.4701270000000  0.4468540000000  0.5047740000000 1.0
C      1  0.5295490000000  0.5539540000000  0.5053920000000 1.0
C      1  0.5061450000000  0.4711600000000  0.4452510000000 1.0
C      1  0.5057880000000  0.5278170000000  0.5540670000000 1.0
C      1  0.4936740000000  0.4689250000000  0.5530960000000 1.0
C      1  0.5529930000000  0.5047840000000  0.5297430000000 1.0
C      1  0.5530290000000  0.4943310000000  0.4704960000000 1.0
C      1  0.4465010000000  0.5067390000000  0.4707290000000 1.0
C      1  0.4525760000000  0.5069260000000  0.5270020000000 1.0
C      1  0.5081370000000  0.5264670000000  0.4534890000000 1.0
C      1  0.5256630000000  0.4526470000000  0.5066950000000 1.0
C      1  0.5468110000000  0.4911540000000  0.5262240000000 1.0
C      1  0.4528890000000  0.4933600000000  0.4744860000000 1.0
C      1  0.5466280000000  0.5079120000000  0.4742960000000 1.0
C      1  0.4926120000000  0.4743700000000  0.4518440000000 1.0
C      1  0.5072780000000  0.4723010000000  0.5467940000000 1.0
C      1  0.4924490000000  0.5240610000000  0.5480400000000 1.0
C      1  0.4739480000000  0.5482080000000  0.5099120000000 1.0
C      1  0.5312920000000  0.5534090000000  0.4905390000000 1.0
C      1  0.4737910000000  0.4535290000000  0.4914670000000 1.0
C      1  0.5071860000000  0.4523100000000  0.5251060000000 1.0
C      1  0.5269260000000  0.5082650000000  0.4529330000000 1.0
C      1  0.4532270000000  0.5252230000000  0.5080870000000 1.0
C      1  0.4908910000000  0.5513960000000  0.5314660000000 1.0
C      1  0.4922820000000  0.4538040000000  0.4730450000000 1.0
C      1  0.5111430000000  0.5537660000000  0.4696250000000 1.0
C      1  0.4748880000000  0.4937310000000  0.4526590000000 1.0
C      1  0.4736350000000  0.5062030000000  0.5475420000000 1.0
C      1  0.5259060000000  0.4907020000000  0.5471650000000 1.0
C      1  0.5467540000000  0.4731950000000  0.5072450000000 1.0
C      1  0.5465510000000  0.5255830000000  0.4933300000000 1.0
C      1  0.4523800000000  0.4737860000000  0.4920220000000 1.0
C      1  0.4864590000000  0.4406640000000  0.4759300000000 1.0
C      1  0.4393960000000  0.4777520000000  0.4864840000000 1.0
C      1  0.4776800000000  0.4882240000000  0.4392230000000 1.0
C      1  0.5152070000000  0.5652290000000  0.4762520000000 1.0
C      1  0.4858820000000  0.5630930000000  0.5256770000000 1.0
C      1  0.5127320000000  0.4392070000000  0.5215270000000 1.0
C      1  0.5598120000000  0.5225300000000  0.4874980000000 1.0
C      1  0.4398390000000  0.5224500000000  0.5138300000000 1.0
C      1  0.5598920000000  0.4764050000000  0.5129220000000 1.0
C      1  0.5232870000000  0.5140670000000  0.4399740000000 1.0
C      1  0.4770190000000  0.5114870000000  0.5607510000000 1.0
C      1  0.5225200000000  0.4849100000000  0.5601330000000 1.0
C      1  0.4395500000000  0.4875970000000  0.4772090000000 1.0
C      1  0.4768880000000  0.4405190000000  0.4854620000000 1.0
C      1  0.4870520000000  0.4784660000000  0.4389040000000 1.0
C      1  0.5598160000000  0.5133170000000  0.4776410000000 1.0
C      1  0.5599230000000  0.4857040000000  0.5227160000000 1.0
C      1  0.4396960000000  0.5127740000000  0.5232670000000 1.0
C      1  0.5248670000000  0.5651610000000  0.4862840000000 1.0
C      1  0.5222890000000  0.4393820000000  0.5120010000000 1.0
C      1  0.4769630000000  0.5617610000000  0.5150800000000 1.0
C      1  0.5138270000000  0.5237050000000  0.4401270000000 1.0
C      1  0.5129000000000  0.4754260000000  0.5599400000000 1.0
C      1  0.4866670000000  0.5209720000000  0.5610990000000 1.0
END
