TITL C-112675-8135-23 -34.9289052166857 1000000 -1653.68988292343 0 0 240 () n - 1
REM
REM in /home/chem/mssmkc/work/GAP20/Larger-Clusters/Only-C240-new-series
REM
REM
REM
REM
REM
REM ./C.cell (2f3fc68bb9f120311d5b08947c2f1929)
REM
REM compiler GCC version 8.3.0
REM options -cpp -mtune=generic -march=x86-64 -g -O0
REM seed 183545752 1874853056 1327240997 -98997258 318408192 834123531 -528897501 1218186615 -1910183474 283888898 1480907919 564993003 272722124 1985925388 -449623379 -196521008 1841639672 1208130131 -371210374 1296449253 -1558908703 -404057534 -678118594 -358692124 -96128860 -756268020 -1162126346 687442313 -1703884632 -566648436 -1802778008 1629623430 1754755791
REM
CELL 1.54180  100.00000  100.00000  100.00000   90.00000   90.00000   90.00000
LATT -1
SFAC C  
C      1  0.4766520000000  0.5334880000000  0.4553400000000 1.0
C      1  0.4576950000000  0.4769820000000  0.5321420000000 1.0
C      1  0.5331490000000  0.4565750000000  0.4770530000000 1.0
C      1  0.4772710000000  0.4661640000000  0.5430430000000 1.0
C      1  0.5229420000000  0.4668530000000  0.4565710000000 1.0
C      1  0.5230160000000  0.5321400000000  0.5423070000000 1.0
C      1  0.4569550000000  0.5227320000000  0.4661700000000 1.0
C      1  0.5446640000000  0.5233450000000  0.5334860000000 1.0
C      1  0.5434260000000  0.4770590000000  0.4668480000000 1.0
C      1  0.5338340000000  0.5430430000000  0.5227320000000 1.0
C      1  0.4678570000000  0.5423070000000  0.4769880000000 1.0
C      1  0.4665150000000  0.4553360000000  0.5233450000000 1.0
C      1  0.4766510000000  0.4553350000000  0.5334810000000 1.0
C      1  0.4576950000000  0.5321460000000  0.4769870000000 1.0
C      1  0.5331490000000  0.4770600000000  0.4565720000000 1.0
C      1  0.4772710000000  0.5430480000000  0.4661710000000 1.0
C      1  0.5229420000000  0.4565760000000  0.4668460000000 1.0
C      1  0.5230160000000  0.5423020000000  0.5321470000000 1.0
C      1  0.4569550000000  0.4661660000000  0.5227270000000 1.0
C      1  0.5446640000000  0.5334820000000  0.5233510000000 1.0
C      1  0.5434260000000  0.4668510000000  0.4770540000000 1.0
C      1  0.5338340000000  0.5227250000000  0.5430470000000 1.0
C      1  0.4678570000000  0.4769810000000  0.5423030000000 1.0
C      1  0.4665160000000  0.5233530000000  0.4553390000000 1.0
C      1  0.4950230000000  0.5633960000000  0.4849540000000 1.0
C      1  0.4849290000000  0.4941050000000  0.5649570000000 1.0
C      1  0.5638900000000  0.4850900000000  0.4948740000000 1.0
C      1  0.4948580000000  0.4350070000000  0.5149840000000 1.0
C      1  0.5051240000000  0.4361110000000  0.4850850000000 1.0
C      1  0.5058910000000  0.5649560000000  0.5150770000000 1.0
C      1  0.4850100000000  0.5051470000000  0.4350090000000 1.0
C      1  0.5150520000000  0.5049720000000  0.5633950000000 1.0
C      1  0.5149090000000  0.4948800000000  0.4361090000000 1.0
C      1  0.5649920000000  0.5149880000000  0.5051420000000 1.0
C      1  0.4350430000000  0.5150730000000  0.4941120000000 1.0
C      1  0.4366050000000  0.4849500000000  0.5049770000000 1.0
C      1  0.4950230000000  0.4849440000000  0.5633930000000 1.0
C      1  0.4849300000000  0.5649580000000  0.4941150000000 1.0
C      1  0.5638900000000  0.4948760000000  0.4850900000000 1.0
C      1  0.4948580000000  0.5149950000000  0.4350090000000 1.0
C      1  0.5051240000000  0.4850960000000  0.4361080000000 1.0
C      1  0.5058910000000  0.5150660000000  0.5649590000000 1.0
C      1  0.4850100000000  0.4350080000000  0.5051360000000 1.0
C      1  0.5150520000000  0.5633940000000  0.5049830000000 1.0
C      1  0.5149080000000  0.4361100000000  0.4948700000000 1.0
C      1  0.5649920000000  0.5051390000000  0.5149890000000 1.0
C      1  0.4350430000000  0.4941100000000  0.5150710000000 1.0
C      1  0.4366050000000  0.5049800000000  0.4849500000000 1.0
C      1  0.4688330000000  0.5108790000000  0.4487140000000 1.0
C      1  0.4504000000000  0.4687560000000  0.5102100000000 1.0
C      1  0.5104880000000  0.4497090000000  0.4692010000000 1.0
C      1  0.4696010000000  0.4887930000000  0.5502220000000 1.0
C      1  0.5307950000000  0.4895150000000  0.4497050000000 1.0
C      1  0.5312450000000  0.5102080000000  0.5496000000000 1.0
C      1  0.4497770000000  0.5304010000000  0.4888000000000 1.0
C      1  0.5512880000000  0.5311650000000  0.5108760000000 1.0
C      1  0.5502930000000  0.4692050000000  0.4895080000000 1.0
C      1  0.5112040000000  0.5502200000000  0.5304040000000 1.0
C      1  0.4897880000000  0.5496020000000  0.4687600000000 1.0
C      1  0.4891250000000  0.4487100000000  0.5311630000000 1.0
C      1  0.4688320000000  0.4487120000000  0.5108700000000 1.0
C      1  0.4504000000000  0.5102160000000  0.4687570000000 1.0
C      1  0.5104880000000  0.4692090000000  0.4497040000000 1.0
C      1  0.4696010000000  0.5502240000000  0.4888010000000 1.0
C      1  0.5307940000000  0.4497070000000  0.4895070000000 1.0
C      1  0.5312450000000  0.5495980000000  0.5102160000000 1.0
C      1  0.4497770000000  0.4887950000000  0.5303990000000 1.0
C      1  0.5512880000000  0.5108710000000  0.5311670000000 1.0
C      1  0.5502930000000  0.4895130000000  0.4692030000000 1.0
C      1  0.5112040000000  0.5303950000000  0.5502250000000 1.0
C      1  0.4897880000000  0.4687520000000  0.5495970000000 1.0
C      1  0.4891260000000  0.5311710000000  0.4487150000000 1.0
C      1  0.5427810000000  0.4667920000000  0.5114530000000 1.0
C      1  0.5112290000000  0.5412370000000  0.4670200000000 1.0
C      1  0.4625180000000  0.5109460000000  0.5469670000000 1.0
C      1  0.5428570000000  0.5317590000000  0.4891180000000 1.0
C      1  0.4530350000000  0.5374820000000  0.5109530000000 1.0
C      1  0.4587650000000  0.4670190000000  0.4887690000000 1.0
C      1  0.5108840000000  0.4571400000000  0.5317550000000 1.0
C      1  0.4885430000000  0.4572220000000  0.4667910000000 1.0
C      1  0.4890520000000  0.5469620000000  0.5374870000000 1.0
C      1  0.4682410000000  0.4891200000000  0.4571420000000 1.0
C      1  0.5329830000000  0.4887670000000  0.5412330000000 1.0
C      1  0.5332060000000  0.5114590000000  0.4572200000000 1.0
C      1  0.5427810000000  0.5114580000000  0.4667940000000 1.0
C      1  0.5112290000000  0.4670140000000  0.5412310000000 1.0
C      1  0.4625180000000  0.5469650000000  0.5109530000000 1.0
C      1  0.5428570000000  0.4891130000000  0.5317570000000 1.0
C      1  0.4530350000000  0.5109470000000  0.5374840000000 1.0
C      1  0.4587650000000  0.4887750000000  0.4670170000000 1.0
C      1  0.5108840000000  0.5317620000000  0.4571460000000 1.0
C      1  0.4885430000000  0.4667980000000  0.4572160000000 1.0
C      1  0.4890520000000  0.5374790000000  0.5469690000000 1.0
C      1  0.4682410000000  0.4571440000000  0.4891130000000 1.0
C      1  0.5329830000000  0.5412350000000  0.4887740000000 1.0
C      1  0.5332060000000  0.4572180000000  0.5114520000000 1.0
C      1  0.5002810000000  0.4493220000000  0.5106890000000 1.0
C      1  0.5125620000000  0.5032870000000  0.4481100000000 1.0
C      1  0.4448620000000  0.5148650000000  0.5053480000000 1.0
C      1  0.5028710000000  0.5509250000000  0.4876360000000 1.0
C      1  0.4946550000000  0.5551370000000  0.5148700000000 1.0
C      1  0.4967160000000  0.4481110000000  0.4874330000000 1.0
C      1  0.5123680000000  0.4971260000000  0.5509240000000 1.0
C      1  0.4893060000000  0.4997230000000  0.4493230000000 1.0
C      1  0.4851360000000  0.5053420000000  0.5551390000000 1.0
C      1  0.4490760000000  0.4876330000000  0.4971300000000 1.0
C      1  0.5518890000000  0.4874370000000  0.5032810000000 1.0
C      1  0.5506770000000  0.5106930000000  0.4997190000000 1.0
C      1  0.5002810000000  0.5106980000000  0.4493240000000 1.0
C      1  0.5125620000000  0.4481100000000  0.5032780000000 1.0
C      1  0.4448620000000  0.5053460000000  0.5148660000000 1.0
C      1  0.5028700000000  0.4876280000000  0.5509230000000 1.0
C      1  0.4946540000000  0.5148610000000  0.5551390000000 1.0
C      1  0.4967160000000  0.4874420000000  0.4481090000000 1.0
C      1  0.5123680000000  0.5509240000000  0.4971340000000 1.0
C      1  0.4893060000000  0.4493230000000  0.4997150000000 1.0
C      1  0.4851360000000  0.5551380000000  0.5053510000000 1.0
C      1  0.4490760000000  0.4971320000000  0.4876320000000 1.0
C      1  0.5518900000000  0.5032830000000  0.4874370000000 1.0
C      1  0.5506770000000  0.4997170000000  0.5106930000000 1.0
C      1  0.5310870000000  0.4586950000000  0.5504580000000 1.0
C      1  0.5519450000000  0.5305700000000  0.4582600000000 1.0
C      1  0.4662870000000  0.5666920000000  0.5249130000000 1.0
C      1  0.5311910000000  0.5402640000000  0.4485030000000 1.0
C      1  0.4750940000000  0.5337090000000  0.5666970000000 1.0
C      1  0.4694320000000  0.4582630000000  0.4480520000000 1.0
C      1  0.5515000000000  0.4688050000000  0.5402570000000 1.0
C      1  0.4495380000000  0.4689170000000  0.4586980000000 1.0
C      1  0.4333070000000  0.5249060000000  0.5337170000000 1.0
C      1  0.4597390000000  0.4485030000000  0.4688050000000 1.0
C      1  0.5417420000000  0.4480520000000  0.5305620000000 1.0
C      1  0.5413000000000  0.5504630000000  0.4689170000000 1.0
C      1  0.5310870000000  0.5504640000000  0.4587040000000 1.0
C      1  0.5519450000000  0.4582550000000  0.5305630000000 1.0
C      1  0.4662870000000  0.5249030000000  0.5666960000000 1.0
C      1  0.5311910000000  0.4484960000000  0.5402550000000 1.0
C      1  0.4750940000000  0.5666910000000  0.5337200000000 1.0
C      1  0.4694320000000  0.4480590000000  0.4582540000000 1.0
C      1  0.5515000000000  0.5402620000000  0.4688110000000 1.0
C      1  0.4495380000000  0.4587030000000  0.4689100000000 1.0
C      1  0.4333070000000  0.5337130000000  0.5249110000000 1.0
C      1  0.4597390000000  0.4688130000000  0.4484980000000 1.0
C      1  0.5417420000000  0.5305710000000  0.4480570000000 1.0
C      1  0.5413000000000  0.4689080000000  0.5504580000000 1.0
C      1  0.4993400000000  0.5383650000000  0.5666880000000 1.0
C      1  0.5652280000000  0.4917760000000  0.5337600000000 1.0
C      1  0.5348540000000  0.5639400000000  0.4920850000000 1.0
C      1  0.4929920000000  0.4645820000000  0.4347440000000 1.0
C      1  0.5079200000000  0.4651410000000  0.5639370000000 1.0
C      1  0.5082200000000  0.5337660000000  0.4347750000000 1.0
C      1  0.5652530000000  0.5070090000000  0.4645770000000 1.0
C      1  0.4333160000000  0.5006590000000  0.5383720000000 1.0
C      1  0.4360600000000  0.4920840000000  0.4651460000000 1.0
C      1  0.5354230000000  0.4347460000000  0.5070010000000 1.0
C      1  0.4662380000000  0.4347740000000  0.4917750000000 1.0
C      1  0.4616300000000  0.5666850000000  0.5006670000000 1.0
C      1  0.4993400000000  0.5666820000000  0.5383760000000 1.0
C      1  0.5652280000000  0.5337610000000  0.4917820000000 1.0
C      1  0.5348540000000  0.4920740000000  0.5639390000000 1.0
C      1  0.4929920000000  0.4347500000000  0.4645710000000 1.0
C      1  0.5079210000000  0.5639420000000  0.4651520000000 1.0
C      1  0.5082200000000  0.4347700000000  0.5337560000000 1.0
C      1  0.5652520000000  0.4645750000000  0.5070030000000 1.0
C      1  0.4333160000000  0.5383720000000  0.5006650000000 1.0
C      1  0.4360600000000  0.4651480000000  0.4920780000000 1.0
C      1  0.5354230000000  0.5070120000000  0.4347470000000 1.0
C      1  0.4662380000000  0.4917850000000  0.4347720000000 1.0
C      1  0.4616300000000  0.5006560000000  0.5666850000000 1.0
C      1  0.5651060000000  0.5044810000000  0.5291840000000 1.0
C      1  0.5296650000000  0.5637340000000  0.5045270000000 1.0
C      1  0.5090390000000  0.5294140000000  0.5651220000000 1.0
C      1  0.5645290000000  0.4949010000000  0.4704770000000 1.0
C      1  0.4348800000000  0.4909600000000  0.5294200000000 1.0
C      1  0.4362650000000  0.5045260000000  0.4703370000000 1.0
C      1  0.5295210000000  0.4354710000000  0.4948940000000 1.0
C      1  0.4708150000000  0.4348940000000  0.5044790000000 1.0
C      1  0.4705810000000  0.5651210000000  0.4909680000000 1.0
C      1  0.5051000000000  0.4704830000000  0.4354680000000 1.0
C      1  0.4954780000000  0.4703310000000  0.5637330000000 1.0
C      1  0.4955150000000  0.5291900000000  0.4348970000000 1.0
C      1  0.5651060000000  0.5291830000000  0.5044860000000 1.0
C      1  0.5296650000000  0.5045170000000  0.5637350000000 1.0
C      1  0.5090390000000  0.5651170000000  0.5294250000000 1.0
C      1  0.5645290000000  0.4704770000000  0.4948960000000 1.0
C      1  0.4348800000000  0.5294220000000  0.4909650000000 1.0
C      1  0.4362650000000  0.4703370000000  0.5045200000000 1.0
C      1  0.5295220000000  0.4949040000000  0.4354700000000 1.0
C      1  0.4708150000000  0.5044900000000  0.4348950000000 1.0
C      1  0.4705810000000  0.4909570000000  0.5651200000000 1.0
C      1  0.5050990000000  0.4354730000000  0.4704720000000 1.0
C      1  0.4954780000000  0.5637370000000  0.4703410000000 1.0
C      1  0.4955150000000  0.4348920000000  0.5291790000000 1.0
C      1  0.5556020000000  0.4824420000000  0.5355890000000 1.0
C      1  0.5370200000000  0.5544770000000  0.4826150000000 1.0
C      1  0.4866920000000  0.5400290000000  0.5617910000000 1.0
C      1  0.5562060000000  0.5168590000000  0.4626080000000 1.0
C      1  0.4382130000000  0.5133070000000  0.5400360000000 1.0
C      1  0.4455230000000  0.4826150000000  0.4629800000000 1.0
C      1  0.5373920000000  0.4437920000000  0.5168520000000 1.0
C      1  0.4644070000000  0.4444000000000  0.4824410000000 1.0
C      1  0.4599670000000  0.5617870000000  0.5133150000000 1.0
C      1  0.4831420000000  0.4626120000000  0.4437910000000 1.0
C      1  0.5173890000000  0.4629760000000  0.5544730000000 1.0
C      1  0.5175550000000  0.5355960000000  0.4444010000000 1.0
C      1  0.5556020000000  0.5355920000000  0.4824480000000 1.0
C      1  0.5370190000000  0.4826060000000  0.5544740000000 1.0
C      1  0.4866920000000  0.5617850000000  0.5400390000000 1.0
C      1  0.5562060000000  0.4626050000000  0.5168530000000 1.0
C      1  0.4382130000000  0.5400340000000  0.5133130000000 1.0
C      1  0.4455230000000  0.4629830000000  0.4826090000000 1.0
C      1  0.5373920000000  0.5168610000000  0.4437950000000 1.0
C      1  0.4644080000000  0.4824500000000  0.4443970000000 1.0
C      1  0.4599670000000  0.5133050000000  0.5617900000000 1.0
C      1  0.4831420000000  0.4437970000000  0.4626030000000 1.0
C      1  0.5173890000000  0.5544790000000  0.4629850000000 1.0
C      1  0.5175540000000  0.4443950000000  0.5355870000000 1.0
C      1  0.5007550000000  0.4761910000000  0.5425880000000 1.0
C      1  0.5435710000000  0.5011610000000  0.4760990000000 1.0
C      1  0.4740010000000  0.5460680000000  0.5025770000000 1.0
C      1  0.4993890000000  0.5236890000000  0.4562150000000 1.0
C      1  0.4974280000000  0.5259960000000  0.5460700000000 1.0
C      1  0.4988400000000  0.4761030000000  0.4564270000000 1.0
C      1  0.5437870000000  0.5006090000000  0.5236850000000 1.0
C      1  0.4574100000000  0.4992470000000  0.4761940000000 1.0
C      1  0.4539320000000  0.5025720000000  0.5260010000000 1.0
C      1  0.4763140000000  0.4562130000000  0.5006080000000 1.0
C      1  0.5239000000000  0.4564290000000  0.5011560000000 1.0
C      1  0.5238060000000  0.5425890000000  0.4992480000000 1.0
C      1  0.5007560000000  0.5425910000000  0.4761980000000 1.0
C      1  0.5435710000000  0.4760980000000  0.5011570000000 1.0
C      1  0.4740010000000  0.5025700000000  0.5460680000000 1.0
C      1  0.4993880000000  0.4562110000000  0.5236820000000 1.0
C      1  0.4974280000000  0.5460660000000  0.5260040000000 1.0
C      1  0.4988400000000  0.4564310000000  0.4760960000000 1.0
C      1  0.5437870000000  0.5236840000000  0.5006130000000 1.0
C      1  0.4574100000000  0.4761950000000  0.4992430000000 1.0
C      1  0.4539320000000  0.5260000000000  0.5025760000000 1.0
C      1  0.4763140000000  0.5006150000000  0.4562130000000 1.0
C      1  0.5239000000000  0.5011630000000  0.4564290000000 1.0
C      1  0.5238060000000  0.4992410000000  0.5425890000000 1.0
END
