TITL C-112675-8135-157 16.6061747558573 1000000 -1802.20531657489 0 0 240 (Th) n - 1
REM
REM in /home/chem/mssmkc/work/GAP20/Larger-Clusters/Only-C240-new-series
REM
REM
REM
REM
REM
REM ./C.cell (db83009d4c1eceb3c2f0bef44cf3317a)
REM
REM compiler GCC version 8.3.0
REM options -cpp -mtune=generic -march=x86-64 -g -O0
REM seed -112622450 -495529731 -401824289 -445569514 -1964775081 1506058820 -239731555 -1656165607 1461987713 1859802762 -701504602 1122436415 -1801977685 797970311 368551758 -1914473515 675084496 -1811504304 -1422559123 643434477 885479078 -7144409 251984762 -1001829390 -590681569 -630944082 171661932 -2103418702 1626980583 1334684640 480691370 -840987326 -1060687089
REM
CELL 1.54180  100.00000  100.00000  100.00000   90.00000   90.00000   90.00000
LATT -1
SFAC C  
C      1  0.4686770000000  0.4507980000000  0.4516130000000 1.0
C      1  0.4516100000000  0.4686800000000  0.4508000000000 1.0
C      1  0.4507960000000  0.4516130000000  0.4686810000000 1.0
C      1  0.5313220000000  0.5492000000000  0.4516100000000 1.0
C      1  0.5313200000000  0.4507980000000  0.5483890000000 1.0
C      1  0.4686810000000  0.5492040000000  0.5483880000000 1.0
C      1  0.5483880000000  0.5313180000000  0.4507970000000 1.0
C      1  0.5483880000000  0.4686780000000  0.5492020000000 1.0
C      1  0.4516140000000  0.5313240000000  0.5492020000000 1.0
C      1  0.5492030000000  0.5483860000000  0.4686770000000 1.0
C      1  0.5492010000000  0.4516110000000  0.5313210000000 1.0
C      1  0.4508000000000  0.5483900000000  0.5313210000000 1.0
C      1  0.4686780000000  0.4508000000000  0.5483900000000 1.0
C      1  0.4516120000000  0.4686820000000  0.5492030000000 1.0
C      1  0.4507970000000  0.4516140000000  0.5313230000000 1.0
C      1  0.5313230000000  0.5492020000000  0.5483870000000 1.0
C      1  0.5313190000000  0.4507960000000  0.4516120000000 1.0
C      1  0.4686800000000  0.5492020000000  0.4516110000000 1.0
C      1  0.5483900000000  0.5313200000000  0.5492000000000 1.0
C      1  0.5483860000000  0.4686760000000  0.4507980000000 1.0
C      1  0.4516120000000  0.5313220000000  0.4507980000000 1.0
C      1  0.5492040000000  0.5483870000000  0.5313190000000 1.0
C      1  0.5492000000000  0.4516100000000  0.4686790000000 1.0
C      1  0.4507990000000  0.5483890000000  0.4686790000000 1.0
C      1  0.4642860000000  0.4834820000000  0.5604170000000 1.0
C      1  0.5604140000000  0.4642840000000  0.4834800000000 1.0
C      1  0.4834810000000  0.5604160000000  0.4642850000000 1.0
C      1  0.5357160000000  0.5165200000000  0.5604150000000 1.0
C      1  0.5357130000000  0.4834780000000  0.4395840000000 1.0
C      1  0.4642860000000  0.5165200000000  0.4395850000000 1.0
C      1  0.4395850000000  0.5357160000000  0.4834800000000 1.0
C      1  0.4395830000000  0.4642880000000  0.5165220000000 1.0
C      1  0.5604170000000  0.5357120000000  0.5165180000000 1.0
C      1  0.5165180000000  0.4395830000000  0.4642870000000 1.0
C      1  0.5165230000000  0.5604160000000  0.5357130000000 1.0
C      1  0.4834790000000  0.4395860000000  0.5357150000000 1.0
C      1  0.4642850000000  0.4834800000000  0.4395850000000 1.0
C      1  0.5604150000000  0.4642840000000  0.5165200000000 1.0
C      1  0.4834820000000  0.5604170000000  0.5357130000000 1.0
C      1  0.5357140000000  0.5165180000000  0.4395830000000 1.0
C      1  0.5357140000000  0.4834800000000  0.5604150000000 1.0
C      1  0.4642870000000  0.5165220000000  0.5604160000000 1.0
C      1  0.4395860000000  0.5357160000000  0.5165200000000 1.0
C      1  0.4395830000000  0.4642880000000  0.4834820000000 1.0
C      1  0.5604170000000  0.5357120000000  0.4834780000000 1.0
C      1  0.5165190000000  0.4395850000000  0.5357150000000 1.0
C      1  0.5165210000000  0.5604140000000  0.4642850000000 1.0
C      1  0.4834770000000  0.4395840000000  0.4642870000000 1.0
C      1  0.4923570000000  0.4579370000000  0.4460520000000 1.0
C      1  0.4460500000000  0.4923600000000  0.4579390000000 1.0
C      1  0.4579360000000  0.4460520000000  0.4923610000000 1.0
C      1  0.5076410000000  0.5420610000000  0.4460500000000 1.0
C      1  0.5076400000000  0.4579390000000  0.5539500000000 1.0
C      1  0.4923620000000  0.5420640000000  0.5539480000000 1.0
C      1  0.5539490000000  0.5076380000000  0.4579370000000 1.0
C      1  0.5539490000000  0.4923590000000  0.5420620000000 1.0
C      1  0.4460520000000  0.5076430000000  0.5420630000000 1.0
C      1  0.5420640000000  0.5539480000000  0.4923580000000 1.0
C      1  0.5420610000000  0.4460500000000  0.5076410000000 1.0
C      1  0.4579400000000  0.5539510000000  0.5076400000000 1.0
C      1  0.4923590000000  0.4579390000000  0.5539500000000 1.0
C      1  0.4460510000000  0.4923620000000  0.5420630000000 1.0
C      1  0.4579360000000  0.4460520000000  0.5076420000000 1.0
C      1  0.5076430000000  0.5420630000000  0.5539480000000 1.0
C      1  0.5076380000000  0.4579360000000  0.4460520000000 1.0
C      1  0.4923600000000  0.5420610000000  0.4460500000000 1.0
C      1  0.5539500000000  0.5076400000000  0.5420610000000 1.0
C      1  0.5539480000000  0.4923570000000  0.4579370000000 1.0
C      1  0.4460510000000  0.5076410000000  0.4579380000000 1.0
C      1  0.5420640000000  0.5539480000000  0.5076390000000 1.0
C      1  0.5420600000000  0.4460490000000  0.4923600000000 1.0
C      1  0.4579390000000  0.5539500000000  0.4923590000000 1.0
C      1  0.5170810000000  0.4487980000000  0.5473310000000 1.0
C      1  0.5473300000000  0.5170790000000  0.4487970000000 1.0
C      1  0.4488000000000  0.5473330000000  0.5170820000000 1.0
C      1  0.4829200000000  0.5512040000000  0.5473300000000 1.0
C      1  0.4829160000000  0.4487980000000  0.4526710000000 1.0
C      1  0.5170830000000  0.5512000000000  0.4526680000000 1.0
C      1  0.4526680000000  0.4829190000000  0.4487990000000 1.0
C      1  0.4526710000000  0.5170840000000  0.5512020000000 1.0
C      1  0.5473310000000  0.4829180000000  0.5512020000000 1.0
C      1  0.5512010000000  0.4526680000000  0.5170820000000 1.0
C      1  0.5512030000000  0.5473290000000  0.4829160000000 1.0
C      1  0.4487960000000  0.4526710000000  0.4829200000000 1.0
C      1  0.5170800000000  0.4487970000000  0.4526700000000 1.0
C      1  0.5473320000000  0.5170810000000  0.5512010000000 1.0
C      1  0.4487990000000  0.5473320000000  0.4829180000000 1.0
C      1  0.4829190000000  0.5512020000000  0.4526690000000 1.0
C      1  0.4829170000000  0.4488000000000  0.5473320000000 1.0
C      1  0.5170840000000  0.5512020000000  0.5473290000000 1.0
C      1  0.4526700000000  0.4829210000000  0.5512030000000 1.0
C      1  0.4526690000000  0.5170820000000  0.4487980000000 1.0
C      1  0.5473290000000  0.4829160000000  0.4487980000000 1.0
C      1  0.5512000000000  0.4526670000000  0.4829180000000 1.0
C      1  0.5512040000000  0.5473290000000  0.5170800000000 1.0
C      1  0.4487970000000  0.4526710000000  0.5170840000000 1.0
C      1  0.4929640000000  0.5188020000000  0.5651920000000 1.0
C      1  0.5651920000000  0.4929600000000  0.5187990000000 1.0
C      1  0.5188020000000  0.5651910000000  0.4929600000000 1.0
C      1  0.5070380000000  0.4812010000000  0.5651920000000 1.0
C      1  0.5070380000000  0.5187990000000  0.4348070000000 1.0
C      1  0.4929600000000  0.4811990000000  0.4348080000000 1.0
C      1  0.4348080000000  0.5070410000000  0.5188010000000 1.0
C      1  0.4348070000000  0.4929640000000  0.4812010000000 1.0
C      1  0.5651920000000  0.5070360000000  0.4811990000000 1.0
C      1  0.4811980000000  0.4348080000000  0.4929640000000 1.0
C      1  0.4812020000000  0.5651930000000  0.5070370000000 1.0
C      1  0.5187980000000  0.4348070000000  0.5070390000000 1.0
C      1  0.4929620000000  0.5187990000000  0.4348080000000 1.0
C      1  0.5651920000000  0.4929590000000  0.4811990000000 1.0
C      1  0.5188020000000  0.5651920000000  0.5070360000000 1.0
C      1  0.5070360000000  0.4811980000000  0.4348080000000 1.0
C      1  0.5070400000000  0.5188010000000  0.5651920000000 1.0
C      1  0.4929620000000  0.4812010000000  0.5651930000000 1.0
C      1  0.4348080000000  0.5070400000000  0.4812010000000 1.0
C      1  0.4348080000000  0.4929640000000  0.5188010000000 1.0
C      1  0.5651930000000  0.5070360000000  0.5187990000000 1.0
C      1  0.4811980000000  0.4348080000000  0.5070400000000 1.0
C      1  0.4812020000000  0.5651930000000  0.4929610000000 1.0
C      1  0.5187980000000  0.4348070000000  0.4929630000000 1.0
C      1  0.4313970000000  0.4855310000000  0.5073560000000 1.0
C      1  0.5073520000000  0.4313970000000  0.4855300000000 1.0
C      1  0.4855270000000  0.5073540000000  0.4313970000000 1.0
C      1  0.5686030000000  0.5144700000000  0.5073530000000 1.0
C      1  0.5686020000000  0.4855260000000  0.4926450000000 1.0
C      1  0.4313970000000  0.5144740000000  0.4926460000000 1.0
C      1  0.4926470000000  0.5686030000000  0.4855270000000 1.0
C      1  0.4926430000000  0.4313980000000  0.5144730000000 1.0
C      1  0.5073570000000  0.5686030000000  0.5144700000000 1.0
C      1  0.5144700000000  0.4926440000000  0.4313970000000 1.0
C      1  0.5144730000000  0.5073560000000  0.5686020000000 1.0
C      1  0.4855290000000  0.4926470000000  0.5686030000000 1.0
C      1  0.4313970000000  0.4855300000000  0.4926470000000 1.0
C      1  0.5073530000000  0.4313970000000  0.5144730000000 1.0
C      1  0.4855300000000  0.5073560000000  0.5686030000000 1.0
C      1  0.5686030000000  0.5144690000000  0.4926440000000 1.0
C      1  0.5686030000000  0.4855260000000  0.5073540000000 1.0
C      1  0.4313980000000  0.5144740000000  0.5073550000000 1.0
C      1  0.4926480000000  0.5686030000000  0.5144700000000 1.0
C      1  0.4926430000000  0.4313970000000  0.4855300000000 1.0
C      1  0.5073570000000  0.5686020000000  0.4855270000000 1.0
C      1  0.5144730000000  0.4926460000000  0.5686030000000 1.0
C      1  0.5144710000000  0.5073530000000  0.4313970000000 1.0
C      1  0.4855270000000  0.4926440000000  0.4313980000000 1.0
C      1  0.4928640000000  0.5673490000000  0.4710610000000 1.0
C      1  0.4710630000000  0.4928650000000  0.5673500000000 1.0
C      1  0.5673480000000  0.4710590000000  0.4928620000000 1.0
C      1  0.5071350000000  0.4326500000000  0.4710630000000 1.0
C      1  0.5071400000000  0.5673490000000  0.5289370000000 1.0
C      1  0.4928610000000  0.4326520000000  0.5289400000000 1.0
C      1  0.5289390000000  0.5071380000000  0.5673480000000 1.0
C      1  0.5289370000000  0.4928600000000  0.4326510000000 1.0
C      1  0.4710610000000  0.5071370000000  0.4326510000000 1.0
C      1  0.4326520000000  0.5289400000000  0.4928630000000 1.0
C      1  0.4326500000000  0.4710640000000  0.5071390000000 1.0
C      1  0.5673500000000  0.5289360000000  0.5071360000000 1.0
C      1  0.4928650000000  0.5673500000000  0.5289370000000 1.0
C      1  0.4710610000000  0.4928620000000  0.4326520000000 1.0
C      1  0.5673480000000  0.4710600000000  0.5071370000000 1.0
C      1  0.5071360000000  0.4326510000000  0.5289390000000 1.0
C      1  0.5071390000000  0.5673480000000  0.4710600000000 1.0
C      1  0.4928600000000  0.4326510000000  0.4710630000000 1.0
C      1  0.5289370000000  0.5071350000000  0.4326500000000 1.0
C      1  0.5289390000000  0.4928630000000  0.5673490000000 1.0
C      1  0.4710630000000  0.5071400000000  0.5673490000000 1.0
C      1  0.4326520000000  0.5289410000000  0.5071380000000 1.0
C      1  0.4326500000000  0.4710640000000  0.4928640000000 1.0
C      1  0.5673500000000  0.5289360000000  0.4928610000000 1.0
C      1  0.4716960000000  0.5289410000000  0.4398950000000 1.0
C      1  0.4398950000000  0.4716990000000  0.5289430000000 1.0
C      1  0.5289390000000  0.4398940000000  0.4716970000000 1.0
C      1  0.5283020000000  0.4710560000000  0.4398950000000 1.0
C      1  0.5283060000000  0.5289420000000  0.5601040000000 1.0
C      1  0.4716960000000  0.4710600000000  0.5601060000000 1.0
C      1  0.5601060000000  0.5283030000000  0.5289400000000 1.0
C      1  0.5601030000000  0.4716940000000  0.4710580000000 1.0
C      1  0.4398960000000  0.5283050000000  0.4710590000000 1.0
C      1  0.4710600000000  0.5601050000000  0.4716950000000 1.0
C      1  0.4710570000000  0.4398970000000  0.5283060000000 1.0
C      1  0.5289440000000  0.5601040000000  0.5283020000000 1.0
C      1  0.4716980000000  0.5289440000000  0.5601050000000 1.0
C      1  0.4398940000000  0.4716970000000  0.4710600000000 1.0
C      1  0.5289400000000  0.4398950000000  0.5283050000000 1.0
C      1  0.5283040000000  0.4710590000000  0.5601050000000 1.0
C      1  0.5283040000000  0.5289400000000  0.4398940000000 1.0
C      1  0.4716940000000  0.4710580000000  0.4398960000000 1.0
C      1  0.5601050000000  0.5283010000000  0.4710570000000 1.0
C      1  0.5601040000000  0.4716950000000  0.5289410000000 1.0
C      1  0.4398970000000  0.5283060000000  0.5289420000000 1.0
C      1  0.4710610000000  0.5601060000000  0.5283030000000 1.0
C      1  0.4710560000000  0.4398960000000  0.4716980000000 1.0
C      1  0.5289430000000  0.5601030000000  0.4716940000000 1.0
C      1  0.4695450000000  0.4395440000000  0.5141500000000 1.0
C      1  0.5141460000000  0.4695450000000  0.4395430000000 1.0
C      1  0.4395430000000  0.5141490000000  0.4695470000000 1.0
C      1  0.5304550000000  0.5604570000000  0.5141460000000 1.0
C      1  0.5304510000000  0.4395410000000  0.4858530000000 1.0
C      1  0.4695480000000  0.5604580000000  0.4858510000000 1.0
C      1  0.4858520000000  0.5304530000000  0.4395420000000 1.0
C      1  0.4858520000000  0.4695480000000  0.5604580000000 1.0
C      1  0.5141500000000  0.5304540000000  0.5604560000000 1.0
C      1  0.5604560000000  0.4858500000000  0.4695460000000 1.0
C      1  0.5604580000000  0.5141470000000  0.5304520000000 1.0
C      1  0.4395430000000  0.4858550000000  0.5304550000000 1.0
C      1  0.4695450000000  0.4395430000000  0.4858540000000 1.0
C      1  0.5141480000000  0.4695470000000  0.5604580000000 1.0
C      1  0.4395440000000  0.5141500000000  0.5304540000000 1.0
C      1  0.5304550000000  0.5604560000000  0.4858500000000 1.0
C      1  0.5304520000000  0.4395420000000  0.5141490000000 1.0
C      1  0.4695490000000  0.5604590000000  0.5141470000000 1.0
C      1  0.4858540000000  0.5304550000000  0.5604570000000 1.0
C      1  0.4858500000000  0.4695460000000  0.4395440000000 1.0
C      1  0.5141480000000  0.5304520000000  0.4395420000000 1.0
C      1  0.5604570000000  0.4858510000000  0.5304530000000 1.0
C      1  0.5604570000000  0.5141450000000  0.4695450000000 1.0
C      1  0.4395420000000  0.4858530000000  0.4695480000000 1.0
C      1  0.5368530000000  0.4617600000000  0.5544490000000 1.0
C      1  0.5544500000000  0.5368500000000  0.4617580000000 1.0
C      1  0.4617620000000  0.5544510000000  0.5368520000000 1.0
C      1  0.4631490000000  0.5382420000000  0.5544490000000 1.0
C      1  0.4631450000000  0.4617600000000  0.4455520000000 1.0
C      1  0.5368530000000  0.5382380000000  0.4455490000000 1.0
C      1  0.4455490000000  0.4631480000000  0.4617620000000 1.0
C      1  0.4455530000000  0.5368550000000  0.5382400000000 1.0
C      1  0.5544490000000  0.4631460000000  0.5382400000000 1.0
C      1  0.5382390000000  0.4455500000000  0.5368530000000 1.0
C      1  0.5382410000000  0.5544470000000  0.4631450000000 1.0
C      1  0.4617580000000  0.4455510000000  0.4631490000000 1.0
C      1  0.5368510000000  0.4617580000000  0.4455510000000 1.0
C      1  0.5544510000000  0.5368520000000  0.5382380000000 1.0
C      1  0.4617610000000  0.5544500000000  0.4631470000000 1.0
C      1  0.4631470000000  0.5382400000000  0.4455510000000 1.0
C      1  0.4631470000000  0.4617620000000  0.5544510000000 1.0
C      1  0.5368550000000  0.5382400000000  0.5544480000000 1.0
C      1  0.4455500000000  0.4631500000000  0.5382420000000 1.0
C      1  0.4455510000000  0.5368540000000  0.4617600000000 1.0
C      1  0.5544470000000  0.4631450000000  0.4617600000000 1.0
C      1  0.5382380000000  0.4455490000000  0.4631480000000 1.0
C      1  0.5382420000000  0.5544490000000  0.5368510000000 1.0
C      1  0.4617590000000  0.4455530000000  0.5368550000000 1.0
END
