TITL C-112676-196-195 12.257533022836 1000000 -1636.11632215933 0 0 240 (Td) n - 1
REM
REM in /home/chem/mssmkc/work/GAP20/Larger-Clusters/Only-C240-new-series
REM
REM
REM
REM
REM
REM ./C.cell (c58642faaf353743302a0f2d8ff18644)
REM
REM compiler GCC version 8.3.0
REM options -cpp -mtune=generic -march=x86-64 -g -O0
REM seed 1855349728 -177651183 2090673603 -158047229 -771389779 124759738 260608316 -1021974658 949716949 -246499893 1743190637 -1416840846 2136658259 -245720955 -1313320528 435429222 -1704962271 -1196638436 -628773430 865740804 -443833647 1219590948 876861058 -834124459 799849330 -1166381510 920526226 -1790483373 -1184134521 1937650295 -2062349772 -744664718 1812613464
REM
CELL 1.54180  100.00000  100.00000  100.00000   90.00000   90.00000   90.00000
LATT -1
SFAC C  
C      1  0.4502500000000  0.4604850000000  0.5291430000000 1.0
C      1  0.5291450000000  0.4502500000000  0.4604860000000 1.0
C      1  0.4604860000000  0.5291430000000  0.4502490000000 1.0
C      1  0.5497490000000  0.5395150000000  0.5291440000000 1.0
C      1  0.5497510000000  0.4604860000000  0.4708570000000 1.0
C      1  0.4502500000000  0.5395140000000  0.4708560000000 1.0
C      1  0.4708560000000  0.5497490000000  0.4604850000000 1.0
C      1  0.4708570000000  0.4502500000000  0.5395150000000 1.0
C      1  0.5291430000000  0.5497510000000  0.5395150000000 1.0
C      1  0.5395160000000  0.4708560000000  0.4502510000000 1.0
C      1  0.5395140000000  0.5291440000000  0.5497500000000 1.0
C      1  0.4604850000000  0.4708560000000  0.5497500000000 1.0
C      1  0.4604860000000  0.4502500000000  0.5291440000000 1.0
C      1  0.4502500000000  0.5291430000000  0.4604850000000 1.0
C      1  0.5291450000000  0.4604850000000  0.4502510000000 1.0
C      1  0.5395140000000  0.5497510000000  0.5291440000000 1.0
C      1  0.4604850000000  0.5497490000000  0.4708560000000 1.0
C      1  0.5395160000000  0.4502500000000  0.4708570000000 1.0
C      1  0.5497510000000  0.4708570000000  0.4604860000000 1.0
C      1  0.4502500000000  0.4708560000000  0.5395140000000 1.0
C      1  0.5497490000000  0.5291440000000  0.5395150000000 1.0
C      1  0.4708570000000  0.5395140000000  0.4502490000000 1.0
C      1  0.5291430000000  0.5395150000000  0.5497500000000 1.0
C      1  0.4708560000000  0.4604850000000  0.5497500000000 1.0
C      1  0.5596120000000  0.5400340000000  0.5177950000000 1.0
C      1  0.5177940000000  0.5596130000000  0.5400330000000 1.0
C      1  0.5400330000000  0.5177960000000  0.5596130000000 1.0
C      1  0.4403880000000  0.4599660000000  0.5177950000000 1.0
C      1  0.4403870000000  0.5400330000000  0.4822040000000 1.0
C      1  0.5596130000000  0.4599670000000  0.4822060000000 1.0
C      1  0.4822050000000  0.4403880000000  0.5400340000000 1.0
C      1  0.4822050000000  0.5596120000000  0.4599660000000 1.0
C      1  0.5177960000000  0.4403870000000  0.4599670000000 1.0
C      1  0.4599660000000  0.4822050000000  0.5596120000000 1.0
C      1  0.4599670000000  0.5177940000000  0.4403870000000 1.0
C      1  0.5400340000000  0.4822050000000  0.4403880000000 1.0
C      1  0.5400330000000  0.5596130000000  0.5177950000000 1.0
C      1  0.5596120000000  0.5177960000000  0.5400340000000 1.0
C      1  0.5177940000000  0.5400340000000  0.5596120000000 1.0
C      1  0.4599670000000  0.4403870000000  0.5177950000000 1.0
C      1  0.5400340000000  0.4403880000000  0.4822060000000 1.0
C      1  0.4599660000000  0.5596120000000  0.4822040000000 1.0
C      1  0.4403870000000  0.4822050000000  0.5400330000000 1.0
C      1  0.5596130000000  0.4822050000000  0.4599670000000 1.0
C      1  0.4403880000000  0.5177940000000  0.4599660000000 1.0
C      1  0.4822050000000  0.4599670000000  0.5596120000000 1.0
C      1  0.5177960000000  0.4599660000000  0.4403880000000 1.0
C      1  0.4822050000000  0.5400330000000  0.4403870000000 1.0
C      1  0.5612860000000  0.4485560000000  0.4904820000000 1.0
C      1  0.4904810000000  0.5612850000000  0.4485550000000 1.0
C      1  0.4485550000000  0.4904810000000  0.5612850000000 1.0
C      1  0.4387140000000  0.5514440000000  0.4904800000000 1.0
C      1  0.4387150000000  0.4485550000000  0.5095190000000 1.0
C      1  0.5612850000000  0.5514450000000  0.5095190000000 1.0
C      1  0.5095200000000  0.4387140000000  0.4485560000000 1.0
C      1  0.5095180000000  0.5612860000000  0.5514440000000 1.0
C      1  0.4904810000000  0.4387150000000  0.5514450000000 1.0
C      1  0.5514440000000  0.5095200000000  0.5612860000000 1.0
C      1  0.5514450000000  0.4904810000000  0.4387150000000 1.0
C      1  0.4485560000000  0.5095180000000  0.4387140000000 1.0
C      1  0.4485550000000  0.5612850000000  0.4904800000000 1.0
C      1  0.5612860000000  0.4904810000000  0.4485560000000 1.0
C      1  0.4904810000000  0.4485560000000  0.5612860000000 1.0
C      1  0.5514450000000  0.4387150000000  0.4904820000000 1.0
C      1  0.4485560000000  0.4387140000000  0.5095190000000 1.0
C      1  0.5514440000000  0.5612860000000  0.5095190000000 1.0
C      1  0.4387150000000  0.5095180000000  0.4485550000000 1.0
C      1  0.5612850000000  0.5095200000000  0.5514450000000 1.0
C      1  0.4387140000000  0.4904810000000  0.5514440000000 1.0
C      1  0.5095180000000  0.5514450000000  0.5612850000000 1.0
C      1  0.4904810000000  0.5514440000000  0.4387140000000 1.0
C      1  0.5095200000000  0.4485550000000  0.4387150000000 1.0
C      1  0.5056420000000  0.5617590000000  0.4482850000000 1.0
C      1  0.4482840000000  0.5056420000000  0.5617590000000 1.0
C      1  0.5617600000000  0.4482860000000  0.5056430000000 1.0
C      1  0.4943590000000  0.4382400000000  0.4482860000000 1.0
C      1  0.4943570000000  0.5617600000000  0.5517140000000 1.0
C      1  0.5056420000000  0.4382410000000  0.5517160000000 1.0
C      1  0.5517140000000  0.4943590000000  0.5617600000000 1.0
C      1  0.5517160000000  0.5056420000000  0.4382410000000 1.0
C      1  0.4482860000000  0.4943570000000  0.4382400000000 1.0
C      1  0.4382400000000  0.5517140000000  0.5056410000000 1.0
C      1  0.4382410000000  0.4482840000000  0.4943580000000 1.0
C      1  0.5617590000000  0.5517160000000  0.4943580000000 1.0
C      1  0.5617600000000  0.5056420000000  0.4482860000000 1.0
C      1  0.5056420000000  0.4482860000000  0.5617600000000 1.0
C      1  0.4482840000000  0.5617590000000  0.5056410000000 1.0
C      1  0.4382410000000  0.4943570000000  0.4482840000000 1.0
C      1  0.5617590000000  0.4943590000000  0.5517160000000 1.0
C      1  0.4382400000000  0.5056420000000  0.5517140000000 1.0
C      1  0.4943570000000  0.5517150000000  0.5617590000000 1.0
C      1  0.5056420000000  0.5517140000000  0.4382400000000 1.0
C      1  0.4943590000000  0.4482840000000  0.4382410000000 1.0
C      1  0.5517160000000  0.4382410000000  0.5056430000000 1.0
C      1  0.4482860000000  0.4382400000000  0.4943580000000 1.0
C      1  0.5517140000000  0.5617600000000  0.4943580000000 1.0
C      1  0.4721970000000  0.5182170000000  0.5608160000000 1.0
C      1  0.5608170000000  0.4721990000000  0.5182180000000 1.0
C      1  0.5182170000000  0.5608160000000  0.4721980000000 1.0
C      1  0.5278010000000  0.4817840000000  0.5608170000000 1.0
C      1  0.5278020000000  0.5182170000000  0.4391840000000 1.0
C      1  0.4721990000000  0.4817820000000  0.4391830000000 1.0
C      1  0.4391830000000  0.5278010000000  0.5182160000000 1.0
C      1  0.4391840000000  0.4721970000000  0.4817820000000 1.0
C      1  0.5608160000000  0.5278020000000  0.4817830000000 1.0
C      1  0.4817840000000  0.4391830000000  0.4721980000000 1.0
C      1  0.4817820000000  0.5608170000000  0.5278010000000 1.0
C      1  0.5182180000000  0.4391840000000  0.5278030000000 1.0
C      1  0.5182170000000  0.4721990000000  0.5608170000000 1.0
C      1  0.4721970000000  0.5608160000000  0.5182160000000 1.0
C      1  0.5608170000000  0.5182180000000  0.4721990000000 1.0
C      1  0.4817820000000  0.5278020000000  0.5608160000000 1.0
C      1  0.5182180000000  0.5278020000000  0.4391830000000 1.0
C      1  0.4817840000000  0.4721970000000  0.4391840000000 1.0
C      1  0.5278020000000  0.4391840000000  0.5182180000000 1.0
C      1  0.4721990000000  0.4391830000000  0.4817830000000 1.0
C      1  0.5278010000000  0.5608170000000  0.4817830000000 1.0
C      1  0.4391840000000  0.4817820000000  0.4721980000000 1.0
C      1  0.5608160000000  0.4817840000000  0.5278030000000 1.0
C      1  0.4391830000000  0.5182170000000  0.5278010000000 1.0
C      1  0.4599340000000  0.5657670000000  0.5121760000000 1.0
C      1  0.5121770000000  0.4599360000000  0.5657680000000 1.0
C      1  0.5657680000000  0.5121770000000  0.4599360000000 1.0
C      1  0.5400660000000  0.4342330000000  0.5121780000000 1.0
C      1  0.5400640000000  0.5657680000000  0.4878230000000 1.0
C      1  0.4599360000000  0.4342320000000  0.4878230000000 1.0
C      1  0.4878220000000  0.5400650000000  0.5657670000000 1.0
C      1  0.4878240000000  0.4599340000000  0.4342330000000 1.0
C      1  0.5121770000000  0.5400640000000  0.4342320000000 1.0
C      1  0.4342330000000  0.4878220000000  0.4599340000000 1.0
C      1  0.4342320000000  0.5121770000000  0.5400640000000 1.0
C      1  0.5657670000000  0.4878240000000  0.5400660000000 1.0
C      1  0.5657680000000  0.4599360000000  0.5121780000000 1.0
C      1  0.4599340000000  0.5121770000000  0.5657670000000 1.0
C      1  0.5121770000000  0.5657670000000  0.4599350000000 1.0
C      1  0.4342320000000  0.5400640000000  0.5121760000000 1.0
C      1  0.5657670000000  0.5400660000000  0.4878230000000 1.0
C      1  0.4342330000000  0.4599340000000  0.4878230000000 1.0
C      1  0.5400640000000  0.4878240000000  0.5657680000000 1.0
C      1  0.4599360000000  0.4878220000000  0.4342320000000 1.0
C      1  0.5400660000000  0.5121770000000  0.4342330000000 1.0
C      1  0.4878240000000  0.4342320000000  0.4599360000000 1.0
C      1  0.5121770000000  0.4342330000000  0.5400660000000 1.0
C      1  0.4878220000000  0.5657680000000  0.5400640000000 1.0
C      1  0.4687680000000  0.5727030000000  0.5028280000000 1.0
C      1  0.5028290000000  0.4687690000000  0.5727030000000 1.0
C      1  0.5727030000000  0.5028290000000  0.4687690000000 1.0
C      1  0.5312320000000  0.4272970000000  0.5028300000000 1.0
C      1  0.5312310000000  0.5727030000000  0.4971710000000 1.0
C      1  0.4687690000000  0.4272970000000  0.4971710000000 1.0
C      1  0.4971700000000  0.5312320000000  0.5727030000000 1.0
C      1  0.4971720000000  0.4687680000000  0.4272970000000 1.0
C      1  0.5028290000000  0.5312310000000  0.4272970000000 1.0
C      1  0.4272980000000  0.4971700000000  0.4687680000000 1.0
C      1  0.4272970000000  0.5028290000000  0.5312310000000 1.0
C      1  0.5727030000000  0.4971720000000  0.5312320000000 1.0
C      1  0.5727030000000  0.4687690000000  0.5028300000000 1.0
C      1  0.4687680000000  0.5028290000000  0.5727020000000 1.0
C      1  0.5028290000000  0.5727030000000  0.4687680000000 1.0
C      1  0.4272970000000  0.5312310000000  0.5028280000000 1.0
C      1  0.5727030000000  0.5312320000000  0.4971720000000 1.0
C      1  0.4272970000000  0.4687680000000  0.4971710000000 1.0
C      1  0.5312310000000  0.4971720000000  0.5727030000000 1.0
C      1  0.4687690000000  0.4971700000000  0.4272970000000 1.0
C      1  0.5312320000000  0.5028290000000  0.4272970000000 1.0
C      1  0.4971720000000  0.4272970000000  0.4687690000000 1.0
C      1  0.5028290000000  0.4272970000000  0.5312320000000 1.0
C      1  0.4971700000000  0.5727030000000  0.5312310000000 1.0
C      1  0.5163360000000  0.5627420000000  0.5066620000000 1.0
C      1  0.5066620000000  0.5163370000000  0.5627420000000 1.0
C      1  0.5627420000000  0.5066630000000  0.5163370000000 1.0
C      1  0.4836640000000  0.4372580000000  0.5066630000000 1.0
C      1  0.4836630000000  0.5627420000000  0.4933370000000 1.0
C      1  0.5163370000000  0.4372580000000  0.4933380000000 1.0
C      1  0.4933370000000  0.4836640000000  0.5627420000000 1.0
C      1  0.4933380000000  0.5163360000000  0.4372580000000 1.0
C      1  0.5066630000000  0.4836630000000  0.4372580000000 1.0
C      1  0.4372580000000  0.4933370000000  0.5163360000000 1.0
C      1  0.4372580000000  0.5066620000000  0.4836630000000 1.0
C      1  0.5627420000000  0.4933380000000  0.4836640000000 1.0
C      1  0.5627420000000  0.5163370000000  0.5066630000000 1.0
C      1  0.5163360000000  0.5066630000000  0.5627420000000 1.0
C      1  0.5066620000000  0.5627420000000  0.5163360000000 1.0
C      1  0.4372580000000  0.4836630000000  0.5066620000000 1.0
C      1  0.5627420000000  0.4836640000000  0.4933380000000 1.0
C      1  0.4372580000000  0.5163360000000  0.4933370000000 1.0
C      1  0.4836630000000  0.4933380000000  0.5627420000000 1.0
C      1  0.5163370000000  0.4933370000000  0.4372580000000 1.0
C      1  0.4836640000000  0.5066620000000  0.4372580000000 1.0
C      1  0.4933380000000  0.4372580000000  0.5163370000000 1.0
C      1  0.5066630000000  0.4372580000000  0.4836640000000 1.0
C      1  0.4933370000000  0.5627420000000  0.4836630000000 1.0
C      1  0.5176350000000  0.4329630000000  0.5073640000000 1.0
C      1  0.5073640000000  0.5176340000000  0.4329630000000 1.0
C      1  0.4329620000000  0.5073630000000  0.5176340000000 1.0
C      1  0.4823640000000  0.5670370000000  0.5073620000000 1.0
C      1  0.4823660000000  0.4329620000000  0.4926370000000 1.0
C      1  0.5176340000000  0.5670380000000  0.4926360000000 1.0
C      1  0.4926380000000  0.4823650000000  0.4329630000000 1.0
C      1  0.4926360000000  0.5176350000000  0.5670370000000 1.0
C      1  0.5073630000000  0.4823660000000  0.5670380000000 1.0
C      1  0.5670370000000  0.4926380000000  0.5176350000000 1.0
C      1  0.5670380000000  0.5073640000000  0.4823660000000 1.0
C      1  0.4329630000000  0.4926360000000  0.4823650000000 1.0
C      1  0.4329620000000  0.5176340000000  0.5073620000000 1.0
C      1  0.5176350000000  0.5073630000000  0.4329630000000 1.0
C      1  0.5073640000000  0.4329630000000  0.5176350000000 1.0
C      1  0.5670370000000  0.4823660000000  0.5073640000000 1.0
C      1  0.4329630000000  0.4823640000000  0.4926360000000 1.0
C      1  0.5670370000000  0.5176350000000  0.4926370000000 1.0
C      1  0.4823660000000  0.4926360000000  0.4329630000000 1.0
C      1  0.5176340000000  0.4926380000000  0.5670380000000 1.0
C      1  0.4823640000000  0.5073640000000  0.5670370000000 1.0
C      1  0.4926360000000  0.5670370000000  0.5176340000000 1.0
C      1  0.5073630000000  0.5670370000000  0.4823650000000 1.0
C      1  0.4926380000000  0.4329620000000  0.4823660000000 1.0
C      1  0.4343020000000  0.4698250000000  0.5099760000000 1.0
C      1  0.5099770000000  0.4343020000000  0.4698260000000 1.0
C      1  0.4698260000000  0.5099750000000  0.4343020000000 1.0
C      1  0.5656970000000  0.5301750000000  0.5099760000000 1.0
C      1  0.5656980000000  0.4698260000000  0.4900250000000 1.0
C      1  0.4343020000000  0.5301740000000  0.4900230000000 1.0
C      1  0.4900240000000  0.5656980000000  0.4698250000000 1.0
C      1  0.4900240000000  0.4343020000000  0.5301750000000 1.0
C      1  0.5099750000000  0.5656980000000  0.5301740000000 1.0
C      1  0.5301750000000  0.4900240000000  0.4343030000000 1.0
C      1  0.5301740000000  0.5099770000000  0.5656980000000 1.0
C      1  0.4698250000000  0.4900240000000  0.5656980000000 1.0
C      1  0.4698260000000  0.4343020000000  0.5099760000000 1.0
C      1  0.4343020000000  0.5099750000000  0.4698250000000 1.0
C      1  0.5099770000000  0.4698250000000  0.4343030000000 1.0
C      1  0.5301740000000  0.5656980000000  0.5099760000000 1.0
C      1  0.4698250000000  0.5656980000000  0.4900230000000 1.0
C      1  0.5301750000000  0.4343020000000  0.4900250000000 1.0
C      1  0.5656980000000  0.4900240000000  0.4698260000000 1.0
C      1  0.4343020000000  0.4900240000000  0.5301740000000 1.0
C      1  0.5656970000000  0.5099770000000  0.5301750000000 1.0
C      1  0.4900240000000  0.5301740000000  0.4343020000000 1.0
C      1  0.5099750000000  0.5301750000000  0.5656980000000 1.0
C      1  0.4900240000000  0.4698260000000  0.5656980000000 1.0
END
