TITL C-112675-8135-85 -11.7174589655633 1000000 -1723.53705433713 0 0 240 (T23) n - 1
REM
REM in /home/chem/mssmkc/work/GAP20/Larger-Clusters/Only-C240-new-series
REM
REM
REM
REM
REM
REM ./C.cell (2f3fc68bb9f120311d5b08947c2f1929)
REM
REM compiler GCC version 8.3.0
REM options -cpp -mtune=generic -march=x86-64 -g -O0
REM seed -2143667442 -74033445 1035039162 -329225221 -1832740308 344746624 -1633212375 -1999111299 147739700 1071267319 818561133 -1037673152 63103092 -787958784 -1065807764 307017327 1240714213 -31013303 1262823915 -1595381711 1149465074 857303548 -340355802 -1590460083 1328412730 -684415372 -217932147 215656787 1305215761 -524958524 1232437260 -1923944559 1077638327
REM
CELL 1.54180  100.00000  100.00000  100.00000   90.00000   90.00000   90.00000
LATT -1
SFAC C  
C      1  0.5155440000000  0.5642580000000  0.4740960000000 1.0
C      1  0.5642560000000  0.4740850000000  0.5155330000000 1.0
C      1  0.4740980000000  0.5155370000000  0.5642600000000 1.0
C      1  0.5155440000000  0.4357410000000  0.5259000000000 1.0
C      1  0.4844620000000  0.5642530000000  0.5259200000000 1.0
C      1  0.4844500000000  0.4357490000000  0.4740830000000 1.0
C      1  0.5642550000000  0.5259090000000  0.4844510000000 1.0
C      1  0.4357420000000  0.4740950000000  0.4844600000000 1.0
C      1  0.4357480000000  0.5259110000000  0.5155550000000 1.0
C      1  0.4740810000000  0.4844650000000  0.4357460000000 1.0
C      1  0.5259030000000  0.5155510000000  0.4357440000000 1.0
C      1  0.5259180000000  0.4844460000000  0.5642500000000 1.0
C      1  0.5157080000000  0.4743350000000  0.5642510000000 1.0
C      1  0.5642540000000  0.5157010000000  0.4743380000000 1.0
C      1  0.4743490000000  0.5642560000000  0.5157120000000 1.0
C      1  0.5156940000000  0.5256630000000  0.4357450000000 1.0
C      1  0.4843080000000  0.5256480000000  0.5642620000000 1.0
C      1  0.4842900000000  0.4743530000000  0.4357420000000 1.0
C      1  0.5642590000000  0.4842930000000  0.5256460000000 1.0
C      1  0.4357390000000  0.4843050000000  0.4743500000000 1.0
C      1  0.4357470000000  0.5157010000000  0.5256660000000 1.0
C      1  0.4743390000000  0.4357460000000  0.4842940000000 1.0
C      1  0.5256550000000  0.4357400000000  0.5156900000000 1.0
C      1  0.5256570000000  0.5642580000000  0.4843040000000 1.0
C      1  0.4928230000000  0.4496450000000  0.5299610000000 1.0
C      1  0.4496500000000  0.5299700000000  0.4928320000000 1.0
C      1  0.5299600000000  0.4928270000000  0.4496440000000 1.0
C      1  0.4928200000000  0.5503550000000  0.4700400000000 1.0
C      1  0.5071720000000  0.4496530000000  0.4700260000000 1.0
C      1  0.5071840000000  0.5503470000000  0.5299730000000 1.0
C      1  0.4496480000000  0.4700340000000  0.5071810000000 1.0
C      1  0.5503530000000  0.5299640000000  0.5071760000000 1.0
C      1  0.5503490000000  0.4700320000000  0.4928120000000 1.0
C      1  0.5299740000000  0.5071700000000  0.5503480000000 1.0
C      1  0.4700390000000  0.4928170000000  0.5503540000000 1.0
C      1  0.4700270000000  0.5071860000000  0.4496540000000 1.0
C      1  0.4931220000000  0.5297090000000  0.4495370000000 1.0
C      1  0.4495350000000  0.4931260000000  0.5297080000000 1.0
C      1  0.5296990000000  0.4495310000000  0.4931170000000 1.0
C      1  0.4931320000000  0.4702910000000  0.5504650000000 1.0
C      1  0.5068650000000  0.4703040000000  0.4495270000000 1.0
C      1  0.5068800000000  0.5296960000000  0.5504710000000 1.0
C      1  0.4495290000000  0.5068790000000  0.4703050000000 1.0
C      1  0.5504720000000  0.5068670000000  0.5296970000000 1.0
C      1  0.5504640000000  0.4931290000000  0.4702900000000 1.0
C      1  0.5297060000000  0.5504660000000  0.5068760000000 1.0
C      1  0.4702990000000  0.5504700000000  0.4931370000000 1.0
C      1  0.4702960000000  0.4495320000000  0.5068700000000 1.0
C      1  0.5221370000000  0.4878360000000  0.5320020000000 1.0
C      1  0.4878460000000  0.5320040000000  0.5221390000000 1.0
C      1  0.5320050000000  0.5221340000000  0.4878400000000 1.0
C      1  0.5221300000000  0.5121620000000  0.4679930000000 1.0
C      1  0.4778620000000  0.4878470000000  0.4679950000000 1.0
C      1  0.4778710000000  0.5121550000000  0.5320100000000 1.0
C      1  0.4878370000000  0.4679970000000  0.4778640000000 1.0
C      1  0.5121570000000  0.5320080000000  0.4778690000000 1.0
C      1  0.5121600000000  0.4679910000000  0.5221280000000 1.0
C      1  0.5320060000000  0.4778640000000  0.5121520000000 1.0
C      1  0.4679970000000  0.5221330000000  0.5121650000000 1.0
C      1  0.4679920000000  0.4778700000000  0.4878430000000 1.0
C      1  0.5220840000000  0.5320450000000  0.4877980000000 1.0
C      1  0.4878010000000  0.5220800000000  0.5320490000000 1.0
C      1  0.5320470000000  0.4877920000000  0.5220780000000 1.0
C      1  0.5220840000000  0.4679530000000  0.5121970000000 1.0
C      1  0.4779130000000  0.4679580000000  0.4877950000000 1.0
C      1  0.4779190000000  0.5320440000000  0.5122100000000 1.0
C      1  0.4877910000000  0.4779210000000  0.4679540000000 1.0
C      1  0.5122060000000  0.4779120000000  0.5320400000000 1.0
C      1  0.5122010000000  0.5220870000000  0.4679570000000 1.0
C      1  0.5320420000000  0.5122050000000  0.4779140000000 1.0
C      1  0.4679590000000  0.5122020000000  0.5220890000000 1.0
C      1  0.4679520000000  0.4878010000000  0.4779190000000 1.0
C      1  0.4416540000000  0.4927280000000  0.5174170000000 1.0
C      1  0.4927210000000  0.5174180000000  0.4416560000000 1.0
C      1  0.5174070000000  0.4416520000000  0.4927180000000 1.0
C      1  0.4416510000000  0.5072770000000  0.4825980000000 1.0
C      1  0.5583450000000  0.4927270000000  0.4825810000000 1.0
C      1  0.5583500000000  0.5072670000000  0.5174040000000 1.0
C      1  0.4927340000000  0.4825820000000  0.5583460000000 1.0
C      1  0.5072800000000  0.5174030000000  0.5583490000000 1.0
C      1  0.5072640000000  0.4825970000000  0.4416490000000 1.0
C      1  0.5174140000000  0.5583460000000  0.5072780000000 1.0
C      1  0.4825880000000  0.4416520000000  0.5072670000000 1.0
C      1  0.4825910000000  0.5583490000000  0.4927370000000 1.0
C      1  0.4416430000000  0.5176990000000  0.4925160000000 1.0
C      1  0.4925060000000  0.4416410000000  0.5176880000000 1.0
C      1  0.5176880000000  0.4925140000000  0.4416400000000 1.0
C      1  0.4416430000000  0.4823070000000  0.5074980000000 1.0
C      1  0.5583550000000  0.4823030000000  0.4924980000000 1.0
C      1  0.5583590000000  0.5176910000000  0.5074880000000 1.0
C      1  0.4925080000000  0.5583600000000  0.4823130000000 1.0
C      1  0.5074980000000  0.5583540000000  0.5177020000000 1.0
C      1  0.5074880000000  0.4416450000000  0.4822970000000 1.0
C      1  0.5177030000000  0.5074850000000  0.5583560000000 1.0
C      1  0.4822980000000  0.5075010000000  0.4416460000000 1.0
C      1  0.4823120000000  0.4925000000000  0.5583580000000 1.0
C      1  0.4625220000000  0.5581320000000  0.4716150000000 1.0
C      1  0.5581210000000  0.4716050000000  0.4625120000000 1.0
C      1  0.4716090000000  0.4625170000000  0.5581250000000 1.0
C      1  0.4625240000000  0.4418710000000  0.5283940000000 1.0
C      1  0.5374830000000  0.5581210000000  0.5284000000000 1.0
C      1  0.5374710000000  0.4418750000000  0.4715910000000 1.0
C      1  0.5581330000000  0.5283890000000  0.5374740000000 1.0
C      1  0.4418770000000  0.4716010000000  0.5374810000000 1.0
C      1  0.4418700000000  0.5284040000000  0.4625340000000 1.0
C      1  0.4715980000000  0.5374860000000  0.4418820000000 1.0
C      1  0.5283880000000  0.4625290000000  0.4418650000000 1.0
C      1  0.5284060000000  0.5374680000000  0.5581280000000 1.0
C      1  0.4624590000000  0.4706710000000  0.5566300000000 1.0
C      1  0.5566240000000  0.4624550000000  0.4706640000000 1.0
C      1  0.4706740000000  0.5566350000000  0.4624640000000 1.0
C      1  0.4624480000000  0.5293330000000  0.4433790000000 1.0
C      1  0.5375550000000  0.5293150000000  0.5566280000000 1.0
C      1  0.5375380000000  0.4706820000000  0.4433620000000 1.0
C      1  0.5566350000000  0.5375400000000  0.5293220000000 1.0
C      1  0.4433690000000  0.5375530000000  0.4706880000000 1.0
C      1  0.4433730000000  0.4624520000000  0.5293260000000 1.0
C      1  0.4706780000000  0.4433670000000  0.5375430000000 1.0
C      1  0.5293160000000  0.4433740000000  0.4624430000000 1.0
C      1  0.5293310000000  0.5566230000000  0.5375500000000 1.0
C      1  0.5541290000000  0.4837010000000  0.5352310000000 1.0
C      1  0.4837170000000  0.5352330000000  0.5541320000000 1.0
C      1  0.5352400000000  0.5541260000000  0.4837110000000 1.0
C      1  0.5541220000000  0.5162940000000  0.4647560000000 1.0
C      1  0.4458700000000  0.4837150000000  0.4647650000000 1.0
C      1  0.4458800000000  0.5162900000000  0.5352480000000 1.0
C      1  0.4837000000000  0.4647680000000  0.4458720000000 1.0
C      1  0.5162870000000  0.5352460000000  0.4458770000000 1.0
C      1  0.5162970000000  0.4647530000000  0.5541190000000 1.0
C      1  0.5352390000000  0.4458710000000  0.5162800000000 1.0
C      1  0.4647650000000  0.5541250000000  0.5163030000000 1.0
C      1  0.4647560000000  0.4458780000000  0.4837060000000 1.0
C      1  0.5540400000000  0.5353980000000  0.4838090000000 1.0
C      1  0.4838180000000  0.5540370000000  0.5354070000000 1.0
C      1  0.5354040000000  0.4838030000000  0.5540340000000 1.0
C      1  0.5540410000000  0.4645970000000  0.5161780000000 1.0
C      1  0.4459560000000  0.4646060000000  0.4838130000000 1.0
C      1  0.4459630000000  0.5353990000000  0.5162000000000 1.0
C      1  0.4838040000000  0.4459650000000  0.4645970000000 1.0
C      1  0.5161910000000  0.4459540000000  0.5353890000000 1.0
C      1  0.5161870000000  0.5540440000000  0.4646070000000 1.0
C      1  0.5353920000000  0.5161940000000  0.4459570000000 1.0
C      1  0.4646090000000  0.5161840000000  0.5540470000000 1.0
C      1  0.4645940000000  0.4838200000000  0.4459620000000 1.0
C      1  0.5643300000000  0.4947000000000  0.5151680000000 1.0
C      1  0.4947130000000  0.5151680000000  0.5643310000000 1.0
C      1  0.5151790000000  0.5643280000000  0.4947110000000 1.0
C      1  0.5643260000000  0.5052940000000  0.4848160000000 1.0
C      1  0.4356700000000  0.4947100000000  0.4848310000000 1.0
C      1  0.4356740000000  0.5052960000000  0.5151850000000 1.0
C      1  0.4946960000000  0.4848320000000  0.4356710000000 1.0
C      1  0.5052880000000  0.5151840000000  0.4356730000000 1.0
C      1  0.5053020000000  0.4848150000000  0.5643250000000 1.0
C      1  0.5151740000000  0.4356710000000  0.5052850000000 1.0
C      1  0.4848270000000  0.5643280000000  0.5053050000000 1.0
C      1  0.4848200000000  0.4356730000000  0.4946980000000 1.0
C      1  0.5643360000000  0.5155310000000  0.4949170000000 1.0
C      1  0.4949280000000  0.5643340000000  0.5155430000000 1.0
C      1  0.5155410000000  0.4949140000000  0.5643330000000 1.0
C      1  0.5643360000000  0.4844630000000  0.5050670000000 1.0
C      1  0.4356630000000  0.4844700000000  0.4949290000000 1.0
C      1  0.4356660000000  0.5155360000000  0.5050870000000 1.0
C      1  0.4949180000000  0.4356670000000  0.4844590000000 1.0
C      1  0.5050760000000  0.4356620000000  0.5155250000000 1.0
C      1  0.5050780000000  0.5643370000000  0.4844740000000 1.0
C      1  0.5155260000000  0.5050850000000  0.4356630000000 1.0
C      1  0.4844740000000  0.5050700000000  0.5643380000000 1.0
C      1  0.4844580000000  0.4949320000000  0.4356660000000 1.0
C      1  0.5394510000000  0.5500460000000  0.5167200000000 1.0
C      1  0.5500560000000  0.5167110000000  0.5394420000000 1.0
C      1  0.5167260000000  0.5394390000000  0.5500530000000 1.0
C      1  0.5394420000000  0.4499500000000  0.4832700000000 1.0
C      1  0.4605540000000  0.5500540000000  0.4832930000000 1.0
C      1  0.4605540000000  0.4499500000000  0.5167170000000 1.0
C      1  0.5500440000000  0.4832840000000  0.4605460000000 1.0
C      1  0.4499460000000  0.5167260000000  0.4605620000000 1.0
C      1  0.4499540000000  0.4832790000000  0.5394500000000 1.0
C      1  0.5167100000000  0.4605600000000  0.4499430000000 1.0
C      1  0.4832770000000  0.5394530000000  0.4499570000000 1.0
C      1  0.4832860000000  0.4605480000000  0.5500470000000 1.0
C      1  0.5397130000000  0.5171670000000  0.5493960000000 1.0
C      1  0.5494030000000  0.5397010000000  0.5171740000000 1.0
C      1  0.5171830000000  0.5493930000000  0.5397100000000 1.0
C      1  0.5396990000000  0.4828290000000  0.4505940000000 1.0
C      1  0.4603000000000  0.4828200000000  0.5494010000000 1.0
C      1  0.4602890000000  0.5171840000000  0.4506090000000 1.0
C      1  0.5493950000000  0.4602940000000  0.4828130000000 1.0
C      1  0.4506020000000  0.4602940000000  0.5171760000000 1.0
C      1  0.4506010000000  0.5397100000000  0.4828360000000 1.0
C      1  0.5171680000000  0.4506060000000  0.4602860000000 1.0
C      1  0.4828270000000  0.4505970000000  0.5397010000000 1.0
C      1  0.4828220000000  0.5494040000000  0.4603030000000 1.0
C      1  0.5325750000000  0.4564590000000  0.5060000000000 1.0
C      1  0.4564660000000  0.5060070000000  0.5325820000000 1.0
C      1  0.5060060000000  0.5325810000000  0.4564650000000 1.0
C      1  0.5325770000000  0.5435380000000  0.4939920000000 1.0
C      1  0.4674210000000  0.4564640000000  0.4939890000000 1.0
C      1  0.4674270000000  0.5435390000000  0.5060190000000 1.0
C      1  0.4564570000000  0.4939970000000  0.4674290000000 1.0
C      1  0.5435350000000  0.5060120000000  0.4674190000000 1.0
C      1  0.5435420000000  0.4939840000000  0.5325700000000 1.0
C      1  0.5060130000000  0.4674180000000  0.5435340000000 1.0
C      1  0.4939970000000  0.5325710000000  0.5435430000000 1.0
C      1  0.4939840000000  0.4674300000000  0.4564580000000 1.0
C      1  0.5327150000000  0.5058990000000  0.4564990000000 1.0
C      1  0.4565050000000  0.5327220000000  0.5059040000000 1.0
C      1  0.5058970000000  0.4564980000000  0.5327140000000 1.0
C      1  0.5327250000000  0.4940980000000  0.5434930000000 1.0
C      1  0.4672740000000  0.4941120000000  0.4565060000000 1.0
C      1  0.4672850000000  0.5058910000000  0.5435020000000 1.0
C      1  0.4565000000000  0.4672820000000  0.4941060000000 1.0
C      1  0.5434970000000  0.4672770000000  0.5058850000000 1.0
C      1  0.5434980000000  0.5327190000000  0.4941040000000 1.0
C      1  0.5058930000000  0.5435010000000  0.4672850000000 1.0
C      1  0.4941110000000  0.5434930000000  0.5327270000000 1.0
C      1  0.4940990000000  0.4565070000000  0.4672750000000 1.0
C      1  0.4605610000000  0.5494550000000  0.5292590000000 1.0
C      1  0.5494540000000  0.5292510000000  0.4605530000000 1.0
C      1  0.5292520000000  0.4605470000000  0.5494490000000 1.0
C      1  0.4605490000000  0.4505480000000  0.4707510000000 1.0
C      1  0.5394440000000  0.5494590000000  0.4707540000000 1.0
C      1  0.5394460000000  0.4505370000000  0.5292370000000 1.0
C      1  0.5494610000000  0.4707450000000  0.5394350000000 1.0
C      1  0.4505490000000  0.5292450000000  0.5394550000000 1.0
C      1  0.4505360000000  0.4707590000000  0.4605570000000 1.0
C      1  0.5292440000000  0.5394500000000  0.4505440000000 1.0
C      1  0.4707440000000  0.4605630000000  0.4505410000000 1.0
C      1  0.4707600000000  0.5394400000000  0.5494660000000 1.0
C      1  0.4604650000000  0.5291740000000  0.5494080000000 1.0
C      1  0.5494010000000  0.4604510000000  0.5291680000000 1.0
C      1  0.5291760000000  0.5494030000000  0.4604600000000 1.0
C      1  0.4604500000000  0.4708290000000  0.4506020000000 1.0
C      1  0.5395470000000  0.4708130000000  0.5493910000000 1.0
C      1  0.5395380000000  0.5291830000000  0.4506000000000 1.0
C      1  0.5493970000000  0.5395440000000  0.4708200000000 1.0
C      1  0.4506060000000  0.5395410000000  0.5291900000000 1.0
C      1  0.4505950000000  0.4604630000000  0.4708220000000 1.0
C      1  0.5291820000000  0.4505940000000  0.5395330000000 1.0
C      1  0.4708140000000  0.4506070000000  0.4604550000000 1.0
C      1  0.4708280000000  0.5493960000000  0.5395530000000 1.0
END
