TITL C-112675-8135-132 0.00769145690472318 1000000 -1782.33021022212 0 0 240 (Th) n - 1
REM
REM in /home/chem/mssmkc/work/GAP20/Larger-Clusters/Only-C240-new-series
REM
REM
REM
REM
REM
REM ./C.cell (db83009d4c1eceb3c2f0bef44cf3317a)
REM
REM compiler GCC version 8.3.0
REM options -cpp -mtune=generic -march=x86-64 -g -O0
REM seed 352019130 -523396428 1894006958 1254823512 1703850237 -1052893865 564720077 1454503829 -911856525 558337746 -915345990 -509507008 445875503 -1591245784 -2127091 -330214241 -986468150 313626013 1422659503 1304320971 -56607897 -617476441 -1334360723 -1441169194 -1054493484 884806916 -1772457666 -812385231 2080039892 -831185699 -1095606180 -1010497865 -501598220
REM
CELL 1.54180  100.00000  100.00000  100.00000   90.00000   90.00000   90.00000
LATT -1
SFAC C  
C      1  0.5430390000000  0.5168200000000  0.5527340000000 1.0
C      1  0.5168200000000  0.5527280000000  0.5430460000000 1.0
C      1  0.5527290000000  0.5430420000000  0.5168280000000 1.0
C      1  0.5430440000000  0.4831820000000  0.4472690000000 1.0
C      1  0.4569600000000  0.5168260000000  0.4472690000000 1.0
C      1  0.4569560000000  0.4831720000000  0.5527280000000 1.0
C      1  0.5168260000000  0.4472730000000  0.4569550000000 1.0
C      1  0.4831780000000  0.5527340000000  0.4569620000000 1.0
C      1  0.4831760000000  0.4472650000000  0.5430370000000 1.0
C      1  0.5527330000000  0.4569610000000  0.4831760000000 1.0
C      1  0.4472690000000  0.5430420000000  0.4831780000000 1.0
C      1  0.4472690000000  0.4569560000000  0.5168180000000 1.0
C      1  0.4569560000000  0.5168180000000  0.5527310000000 1.0
C      1  0.4831740000000  0.5527270000000  0.5430450000000 1.0
C      1  0.4472670000000  0.5430390000000  0.5168240000000 1.0
C      1  0.4569610000000  0.4831800000000  0.4472660000000 1.0
C      1  0.5430440000000  0.5168280000000  0.4472720000000 1.0
C      1  0.5430400000000  0.4831740000000  0.5527310000000 1.0
C      1  0.4831800000000  0.4472720000000  0.4569540000000 1.0
C      1  0.5168240000000  0.5527350000000  0.4569630000000 1.0
C      1  0.5168220000000  0.4472660000000  0.5430380000000 1.0
C      1  0.4472710000000  0.4569580000000  0.4831720000000 1.0
C      1  0.5527310000000  0.5430440000000  0.4831820000000 1.0
C      1  0.5527310000000  0.4569580000000  0.5168220000000 1.0
C      1  0.5069780000000  0.4720430000000  0.5693200000000 1.0
C      1  0.4720470000000  0.5693210000000  0.5069840000000 1.0
C      1  0.5693230000000  0.5069830000000  0.4720510000000 1.0
C      1  0.5069820000000  0.5279570000000  0.4306810000000 1.0
C      1  0.4930240000000  0.4720530000000  0.4306760000000 1.0
C      1  0.4930170000000  0.5279460000000  0.5693230000000 1.0
C      1  0.4720500000000  0.4306780000000  0.4930140000000 1.0
C      1  0.5279510000000  0.5693230000000  0.4930270000000 1.0
C      1  0.5279530000000  0.4306780000000  0.5069760000000 1.0
C      1  0.5693210000000  0.4930200000000  0.5279540000000 1.0
C      1  0.4306770000000  0.5069760000000  0.5279500000000 1.0
C      1  0.4306800000000  0.4930210000000  0.4720450000000 1.0
C      1  0.4930180000000  0.4720430000000  0.5693190000000 1.0
C      1  0.5279500000000  0.5693220000000  0.5069860000000 1.0
C      1  0.4306790000000  0.5069800000000  0.4720460000000 1.0
C      1  0.4930220000000  0.5279570000000  0.4306800000000 1.0
C      1  0.5069830000000  0.4720540000000  0.4306770000000 1.0
C      1  0.5069760000000  0.5279470000000  0.5693240000000 1.0
C      1  0.5279530000000  0.4306790000000  0.4930160000000 1.0
C      1  0.4720470000000  0.5693220000000  0.4930240000000 1.0
C      1  0.4720490000000  0.4306770000000  0.5069730000000 1.0
C      1  0.4306770000000  0.4930170000000  0.5279490000000 1.0
C      1  0.5693200000000  0.5069790000000  0.5279550000000 1.0
C      1  0.5693230000000  0.4930240000000  0.4720500000000 1.0
C      1  0.4830900000000  0.5595170000000  0.4702700000000 1.0
C      1  0.5595160000000  0.4702690000000  0.4830900000000 1.0
C      1  0.4702640000000  0.4830850000000  0.5595120000000 1.0
C      1  0.4830900000000  0.4404830000000  0.5297280000000 1.0
C      1  0.5169080000000  0.5595130000000  0.5297390000000 1.0
C      1  0.5169130000000  0.4404880000000  0.4702620000000 1.0
C      1  0.5595140000000  0.5297340000000  0.5169150000000 1.0
C      1  0.4404850000000  0.4702640000000  0.5169060000000 1.0
C      1  0.4404850000000  0.5297340000000  0.4830900000000 1.0
C      1  0.4702680000000  0.5169140000000  0.4404850000000 1.0
C      1  0.5297360000000  0.4830950000000  0.4404850000000 1.0
C      1  0.5297310000000  0.5169060000000  0.5595170000000 1.0
C      1  0.5169100000000  0.5595170000000  0.4702720000000 1.0
C      1  0.4404860000000  0.4702660000000  0.4830850000000 1.0
C      1  0.5297320000000  0.4830860000000  0.5595150000000 1.0
C      1  0.5169100000000  0.4404830000000  0.5297300000000 1.0
C      1  0.4830870000000  0.5595120000000  0.5297380000000 1.0
C      1  0.4830920000000  0.4404870000000  0.4702610000000 1.0
C      1  0.4404840000000  0.5297310000000  0.5169100000000 1.0
C      1  0.5595150000000  0.4702660000000  0.5169100000000 1.0
C      1  0.5595150000000  0.5297360000000  0.4830940000000 1.0
C      1  0.5297360000000  0.5169150000000  0.4404880000000 1.0
C      1  0.4702690000000  0.4830940000000  0.4404830000000 1.0
C      1  0.4702640000000  0.5169050000000  0.5595150000000 1.0
C      1  0.5366240000000  0.5609020000000  0.5134160000000 1.0
C      1  0.5609010000000  0.5134090000000  0.5366290000000 1.0
C      1  0.5134070000000  0.5366210000000  0.5609060000000 1.0
C      1  0.5366270000000  0.4390990000000  0.4865870000000 1.0
C      1  0.4633740000000  0.5609030000000  0.4865930000000 1.0
C      1  0.4633750000000  0.4390960000000  0.5134040000000 1.0
C      1  0.5609040000000  0.4865940000000  0.4633760000000 1.0
C      1  0.4390990000000  0.5134120000000  0.4633730000000 1.0
C      1  0.4390960000000  0.4865860000000  0.5366220000000 1.0
C      1  0.5134130000000  0.4633790000000  0.4390950000000 1.0
C      1  0.4865910000000  0.5366300000000  0.4391000000000 1.0
C      1  0.4865880000000  0.4633690000000  0.5608990000000 1.0
C      1  0.4633730000000  0.5609010000000  0.5134130000000 1.0
C      1  0.4390960000000  0.5134060000000  0.5366240000000 1.0
C      1  0.4865870000000  0.5366210000000  0.5609050000000 1.0
C      1  0.4633760000000  0.4390980000000  0.4865840000000 1.0
C      1  0.5366250000000  0.5609040000000  0.4865960000000 1.0
C      1  0.5366260000000  0.4390970000000  0.5134070000000 1.0
C      1  0.4390990000000  0.4865910000000  0.4633710000000 1.0
C      1  0.5609040000000  0.5134140000000  0.4633780000000 1.0
C      1  0.5609010000000  0.4865880000000  0.5366270000000 1.0
C      1  0.4865930000000  0.4633790000000  0.4390940000000 1.0
C      1  0.5134120000000  0.5366310000000  0.4391010000000 1.0
C      1  0.5134090000000  0.4633700000000  0.5609000000000 1.0
C      1  0.4646970000000  0.5390300000000  0.5536410000000 1.0
C      1  0.5390350000000  0.5536430000000  0.4647050000000 1.0
C      1  0.5536380000000  0.4646980000000  0.5390340000000 1.0
C      1  0.4647020000000  0.4609690000000  0.4463560000000 1.0
C      1  0.5353020000000  0.5390400000000  0.4463650000000 1.0
C      1  0.5352990000000  0.4609620000000  0.5536380000000 1.0
C      1  0.5390350000000  0.4463590000000  0.5352980000000 1.0
C      1  0.4609630000000  0.5536360000000  0.5353030000000 1.0
C      1  0.4609680000000  0.4463630000000  0.4646940000000 1.0
C      1  0.5536400000000  0.5353050000000  0.4609700000000 1.0
C      1  0.4463630000000  0.4647010000000  0.4609600000000 1.0
C      1  0.4463580000000  0.5352970000000  0.5390350000000 1.0
C      1  0.5352980000000  0.5390310000000  0.5536440000000 1.0
C      1  0.4609650000000  0.5536410000000  0.4647020000000 1.0
C      1  0.4463600000000  0.4646950000000  0.5390300000000 1.0
C      1  0.5353030000000  0.4609700000000  0.4463590000000 1.0
C      1  0.4647010000000  0.5390380000000  0.4463620000000 1.0
C      1  0.4646980000000  0.4609600000000  0.5536350000000 1.0
C      1  0.4609650000000  0.4463570000000  0.5352950000000 1.0
C      1  0.5390320000000  0.5536370000000  0.5353060000000 1.0
C      1  0.5390370000000  0.4463640000000  0.4646970000000 1.0
C      1  0.4463620000000  0.5353020000000  0.4609660000000 1.0
C      1  0.5536420000000  0.4647030000000  0.4609650000000 1.0
C      1  0.5536370000000  0.5352990000000  0.5390400000000 1.0
C      1  0.5074450000000  0.4864630000000  0.4320090000000 1.0
C      1  0.4864590000000  0.4320090000000  0.5074360000000 1.0
C      1  0.4320100000000  0.5074420000000  0.4864560000000 1.0
C      1  0.5074390000000  0.5135370000000  0.5679920000000 1.0
C      1  0.4925560000000  0.4864530000000  0.5679890000000 1.0
C      1  0.4925600000000  0.5135470000000  0.4320100000000 1.0
C      1  0.4864570000000  0.5679910000000  0.4925630000000 1.0
C      1  0.5135440000000  0.4320100000000  0.4925530000000 1.0
C      1  0.5135400000000  0.5679900000000  0.5074480000000 1.0
C      1  0.4320090000000  0.4925560000000  0.5135390000000 1.0
C      1  0.5679900000000  0.5074420000000  0.5135450000000 1.0
C      1  0.5679910000000  0.4925600000000  0.4864600000000 1.0
C      1  0.4925610000000  0.4864630000000  0.4320080000000 1.0
C      1  0.5135430000000  0.4320090000000  0.5074370000000 1.0
C      1  0.5679910000000  0.5074440000000  0.4864610000000 1.0
C      1  0.4925550000000  0.5135370000000  0.5679910000000 1.0
C      1  0.5074400000000  0.4864530000000  0.5679900000000 1.0
C      1  0.5074440000000  0.5135470000000  0.4320110000000 1.0
C      1  0.5135410000000  0.5679910000000  0.4925640000000 1.0
C      1  0.4864600000000  0.4320100000000  0.4925520000000 1.0
C      1  0.4864560000000  0.5679900000000  0.5074470000000 1.0
C      1  0.5679900000000  0.4925580000000  0.5135440000000 1.0
C      1  0.4320090000000  0.5074400000000  0.5135400000000 1.0
C      1  0.4320100000000  0.4925580000000  0.4864550000000 1.0
C      1  0.5461840000000  0.5308540000000  0.4500860000000 1.0
C      1  0.5308480000000  0.4500790000000  0.5461800000000 1.0
C      1  0.4500800000000  0.5461790000000  0.5308510000000 1.0
C      1  0.5461810000000  0.4691480000000  0.5499170000000 1.0
C      1  0.4538150000000  0.5308450000000  0.5499180000000 1.0
C      1  0.4538200000000  0.4691540000000  0.4500780000000 1.0
C      1  0.5308500000000  0.5499220000000  0.4538220000000 1.0
C      1  0.4691540000000  0.4500850000000  0.4538120000000 1.0
C      1  0.4691480000000  0.5499140000000  0.5461850000000 1.0
C      1  0.4500840000000  0.4538190000000  0.4691450000000 1.0
C      1  0.5499180000000  0.5461860000000  0.4691560000000 1.0
C      1  0.5499180000000  0.4538160000000  0.5308480000000 1.0
C      1  0.4538190000000  0.5308520000000  0.4500830000000 1.0
C      1  0.4691500000000  0.4500780000000  0.5461780000000 1.0
C      1  0.5499160000000  0.5461810000000  0.5308550000000 1.0
C      1  0.4538160000000  0.4691460000000  0.5499140000000 1.0
C      1  0.5461800000000  0.5308460000000  0.5499220000000 1.0
C      1  0.5461850000000  0.4691550000000  0.4500820000000 1.0
C      1  0.4691520000000  0.5499210000000  0.4538200000000 1.0
C      1  0.5308520000000  0.4500860000000  0.4538150000000 1.0
C      1  0.5308460000000  0.5499150000000  0.5461880000000 1.0
C      1  0.5499200000000  0.4538210000000  0.4691490000000 1.0
C      1  0.4500820000000  0.5461840000000  0.4691520000000 1.0
C      1  0.4500820000000  0.4538140000000  0.5308440000000 1.0
C      1  0.5463380000000  0.5516630000000  0.4926410000000 1.0
C      1  0.5516590000000  0.4926330000000  0.5463400000000 1.0
C      1  0.4926320000000  0.5463340000000  0.5516640000000 1.0
C      1  0.5463390000000  0.4483390000000  0.5073630000000 1.0
C      1  0.4536600000000  0.5516600000000  0.5073670000000 1.0
C      1  0.4536630000000  0.4483390000000  0.4926300000000 1.0
C      1  0.5516630000000  0.5073690000000  0.4536640000000 1.0
C      1  0.4483410000000  0.4926380000000  0.4536590000000 1.0
C      1  0.4483370000000  0.5073600000000  0.5463370000000 1.0
C      1  0.4926380000000  0.4536650000000  0.4483350000000 1.0
C      1  0.5073660000000  0.5463420000000  0.4483430000000 1.0
C      1  0.5073640000000  0.4536580000000  0.5516580000000 1.0
C      1  0.4536610000000  0.5516610000000  0.4926370000000 1.0
C      1  0.4483370000000  0.4926310000000  0.5463360000000 1.0
C      1  0.5073620000000  0.5463350000000  0.5516650000000 1.0
C      1  0.4536620000000  0.4483370000000  0.5073590000000 1.0
C      1  0.5463370000000  0.5516610000000  0.5073700000000 1.0
C      1  0.5463400000000  0.4483400000000  0.4926330000000 1.0
C      1  0.4483410000000  0.5073670000000  0.4536600000000 1.0
C      1  0.5516630000000  0.4926400000000  0.4536630000000 1.0
C      1  0.5516590000000  0.5073620000000  0.5463410000000 1.0
C      1  0.5073680000000  0.4536660000000  0.4483360000000 1.0
C      1  0.4926360000000  0.5463420000000  0.4483420000000 1.0
C      1  0.4926340000000  0.4536580000000  0.5516570000000 1.0
C      1  0.4740570000000  0.5309440000000  0.4402180000000 1.0
C      1  0.5309420000000  0.4402190000000  0.4740520000000 1.0
C      1  0.4402160000000  0.4740520000000  0.5309360000000 1.0
C      1  0.4740540000000  0.4690550000000  0.5597800000000 1.0
C      1  0.5259420000000  0.5309360000000  0.5597870000000 1.0
C      1  0.5259480000000  0.4690650000000  0.4402160000000 1.0
C      1  0.5309380000000  0.5597820000000  0.5259500000000 1.0
C      1  0.4690600000000  0.4402140000000  0.5259390000000 1.0
C      1  0.4690600000000  0.5597840000000  0.4740590000000 1.0
C      1  0.4402180000000  0.5259460000000  0.4690600000000 1.0
C      1  0.5597850000000  0.4740590000000  0.4690600000000 1.0
C      1  0.5597810000000  0.5259430000000  0.5309440000000 1.0
C      1  0.5259460000000  0.5309450000000  0.4402200000000 1.0
C      1  0.4690620000000  0.4402180000000  0.4740500000000 1.0
C      1  0.5597820000000  0.4740540000000  0.5309400000000 1.0
C      1  0.5259430000000  0.4690560000000  0.5597820000000 1.0
C      1  0.4740520000000  0.5309350000000  0.5597840000000 1.0
C      1  0.4740580000000  0.4690640000000  0.4402130000000 1.0
C      1  0.4690580000000  0.5597810000000  0.5259480000000 1.0
C      1  0.5309400000000  0.4402160000000  0.5259410000000 1.0
C      1  0.5309400000000  0.5597860000000  0.4740610000000 1.0
C      1  0.5597840000000  0.5259480000000  0.4690640000000 1.0
C      1  0.4402190000000  0.4740570000000  0.4690560000000 1.0
C      1  0.4402150000000  0.5259410000000  0.5309400000000 1.0
C      1  0.4805810000000  0.5072890000000  0.5633100000000 1.0
C      1  0.5072940000000  0.5633120000000  0.4805890000000 1.0
C      1  0.5633110000000  0.4805840000000  0.5072950000000 1.0
C      1  0.4805860000000  0.4927100000000  0.4366880000000 1.0
C      1  0.5194190000000  0.5073000000000  0.4366910000000 1.0
C      1  0.5194140000000  0.4927010000000  0.5633110000000 1.0
C      1  0.5072950000000  0.4366880000000  0.5194120000000 1.0
C      1  0.4927040000000  0.5633090000000  0.5194210000000 1.0
C      1  0.4927080000000  0.4366910000000  0.4805780000000 1.0
C      1  0.5633100000000  0.5194180000000  0.4927100000000 1.0
C      1  0.4366900000000  0.4805830000000  0.4927020000000 1.0
C      1  0.4366890000000  0.5194150000000  0.5072930000000 1.0
C      1  0.5194140000000  0.5072900000000  0.5633120000000 1.0
C      1  0.4927050000000  0.5633120000000  0.4805880000000 1.0
C      1  0.4366900000000  0.4805820000000  0.5072900000000 1.0
C      1  0.5194190000000  0.4927110000000  0.4366900000000 1.0
C      1  0.4805860000000  0.5072990000000  0.4366890000000 1.0
C      1  0.4805810000000  0.4927000000000  0.5633090000000 1.0
C      1  0.4927060000000  0.4366880000000  0.5194110000000 1.0
C      1  0.5072920000000  0.5633090000000  0.5194220000000 1.0
C      1  0.5072960000000  0.4366910000000  0.4805790000000 1.0
C      1  0.4366890000000  0.5194160000000  0.4927050000000 1.0
C      1  0.5633110000000  0.4805850000000  0.4927070000000 1.0
C      1  0.5633100000000  0.5194170000000  0.5072980000000 1.0
END
