TITL C-112676-196-77 -0.0449068904759163 1000000 -1807.99240952904 0 0 240 (Td) n - 1
REM
REM in /home/chem/mssmkc/work/GAP20/Larger-Clusters/Only-C240-new-series
REM
REM
REM
REM
REM
REM ./C.cell (92f43df4b06298221612a7c33f48e63b)
REM
REM compiler GCC version 8.3.0
REM options -cpp -mtune=generic -march=x86-64 -g -O0
REM seed 1523508527 -259349069 1330476358 951433227 1488196174 -1279965258 402893240 2037754244 603283266 922342642 -1646967495 648732957 120749606 1234667352 1351218600 1091270653 1819434841 -233944817 1773238491 -224380555 -64660412 1691067801 -2076309699 -1672895097 -886363891 1796423006 1562871326 685031217 -1226943859 1984932232 -11325083 -1955200416 -1002218396
REM
CELL 1.54180  100.00000  100.00000  100.00000   90.00000   90.00000   90.00000
LATT -1
SFAC C  
C      1  0.4772190000000  0.5456280000000  0.4442020000000 1.0
C      1  0.4442030000000  0.4772150000000  0.5456270000000 1.0
C      1  0.5456370000000  0.4442070000000  0.4772230000000 1.0
C      1  0.5227660000000  0.5456280000000  0.5558040000000 1.0
C      1  0.4772350000000  0.4543650000000  0.5557990000000 1.0
C      1  0.5227800000000  0.4543790000000  0.4441950000000 1.0
C      1  0.5558050000000  0.4772390000000  0.4543700000000 1.0
C      1  0.4441950000000  0.5227670000000  0.4543740000000 1.0
C      1  0.5557980000000  0.5227790000000  0.5456290000000 1.0
C      1  0.4543810000000  0.4441900000000  0.5227700000000 1.0
C      1  0.5456190000000  0.5558070000000  0.5227760000000 1.0
C      1  0.4543630000000  0.5557960000000  0.4772310000000 1.0
C      1  0.4441910000000  0.5456200000000  0.4772300000000 1.0
C      1  0.5456310000000  0.4772380000000  0.4441970000000 1.0
C      1  0.4772360000000  0.4441920000000  0.5456240000000 1.0
C      1  0.5557940000000  0.5456350000000  0.5227760000000 1.0
C      1  0.5558090000000  0.4543830000000  0.4772240000000 1.0
C      1  0.4442060000000  0.4543620000000  0.5227700000000 1.0
C      1  0.4543760000000  0.4772160000000  0.5558000000000 1.0
C      1  0.4543680000000  0.5227690000000  0.4442000000000 1.0
C      1  0.5456250000000  0.5227770000000  0.5558030000000 1.0
C      1  0.5227820000000  0.4442050000000  0.4543680000000 1.0
C      1  0.5227640000000  0.5558020000000  0.5456310000000 1.0
C      1  0.4772180000000  0.5558010000000  0.4543760000000 1.0
C      1  0.4424760000000  0.5469270000000  0.4628470000000 1.0
C      1  0.4628530000000  0.4424750000000  0.5469300000000 1.0
C      1  0.5469390000000  0.4628550000000  0.4424810000000 1.0
C      1  0.5575090000000  0.5469400000000  0.5371590000000 1.0
C      1  0.4424920000000  0.4530550000000  0.5371530000000 1.0
C      1  0.5575230000000  0.4530780000000  0.4628400000000 1.0
C      1  0.5371650000000  0.4424930000000  0.4530630000000 1.0
C      1  0.4628340000000  0.5575130000000  0.4530710000000 1.0
C      1  0.5371470000000  0.5575190000000  0.5469370000000 1.0
C      1  0.4530730000000  0.4628330000000  0.5575140000000 1.0
C      1  0.5469280000000  0.5371600000000  0.5575180000000 1.0
C      1  0.4530600000000  0.5371520000000  0.4424870000000 1.0
C      1  0.4628360000000  0.5469310000000  0.4424870000000 1.0
C      1  0.5469420000000  0.4424940000000  0.4628400000000 1.0
C      1  0.4424900000000  0.4628320000000  0.5469310000000 1.0
C      1  0.5371490000000  0.5469350000000  0.5575190000000 1.0
C      1  0.5371630000000  0.4530760000000  0.4424810000000 1.0
C      1  0.4628520000000  0.4530570000000  0.5575130000000 1.0
C      1  0.4530760000000  0.4424740000000  0.5371530000000 1.0
C      1  0.4530570000000  0.5575110000000  0.4628480000000 1.0
C      1  0.5469240000000  0.5575210000000  0.5371600000000 1.0
C      1  0.5575220000000  0.4628560000000  0.4530640000000 1.0
C      1  0.5575110000000  0.5371620000000  0.5469350000000 1.0
C      1  0.4424780000000  0.5371500000000  0.4530690000000 1.0
C      1  0.5107250000000  0.4491030000000  0.5309170000000 1.0
C      1  0.5309180000000  0.5107250000000  0.4491040000000 1.0
C      1  0.4490990000000  0.5309110000000  0.5107190000000 1.0
C      1  0.4892910000000  0.4491040000000  0.4690770000000 1.0
C      1  0.5107090000000  0.5509000000000  0.4690830000000 1.0
C      1  0.4892750000000  0.5508930000000  0.5309230000000 1.0
C      1  0.4690790000000  0.5107090000000  0.5508970000000 1.0
C      1  0.5309220000000  0.4892850000000  0.5508960000000 1.0
C      1  0.4690810000000  0.4892820000000  0.4491030000000 1.0
C      1  0.5508910000000  0.5309290000000  0.4892850000000 1.0
C      1  0.4491080000000  0.4690730000000  0.4892810000000 1.0
C      1  0.5509010000000  0.4690870000000  0.5107150000000 1.0
C      1  0.5309280000000  0.4491080000000  0.5107130000000 1.0
C      1  0.4491020000000  0.5107070000000  0.5309210000000 1.0
C      1  0.5107120000000  0.5309250000000  0.4491050000000 1.0
C      1  0.4690880000000  0.4490990000000  0.4892800000000 1.0
C      1  0.4690720000000  0.5508910000000  0.5107200000000 1.0
C      1  0.5309120000000  0.5509020000000  0.4892860000000 1.0
C      1  0.5508950000000  0.5107270000000  0.4690800000000 1.0
C      1  0.5508980000000  0.4892890000000  0.5309190000000 1.0
C      1  0.4491050000000  0.4892770000000  0.4690800000000 1.0
C      1  0.4892790000000  0.5309150000000  0.5508990000000 1.0
C      1  0.4892880000000  0.4690820000000  0.4491020000000 1.0
C      1  0.5107220000000  0.4690780000000  0.5508940000000 1.0
C      1  0.5392240000000  0.5493730000000  0.5008410000000 1.0
C      1  0.5008320000000  0.5392290000000  0.5493690000000 1.0
C      1  0.5493670000000  0.5008430000000  0.5392320000000 1.0
C      1  0.4607600000000  0.5493600000000  0.4991660000000 1.0
C      1  0.5392400000000  0.4506400000000  0.4991590000000 1.0
C      1  0.4607760000000  0.4506270000000  0.5008350000000 1.0
C      1  0.4991560000000  0.5392350000000  0.4506360000000 1.0
C      1  0.5008440000000  0.4607710000000  0.4506310000000 1.0
C      1  0.4991690000000  0.4607650000000  0.5493640000000 1.0
C      1  0.4506330000000  0.5008330000000  0.4607680000000 1.0
C      1  0.5493660000000  0.4991730000000  0.4607680000000 1.0
C      1  0.4506340000000  0.4991520000000  0.5392320000000 1.0
C      1  0.5008300000000  0.5493640000000  0.5392350000000 1.0
C      1  0.5493600000000  0.5392400000000  0.5008400000000 1.0
C      1  0.5392320000000  0.5008410000000  0.5493660000000 1.0
C      1  0.4991540000000  0.5493690000000  0.4607710000000 1.0
C      1  0.4991700000000  0.4506310000000  0.5392290000000 1.0
C      1  0.5008450000000  0.4506360000000  0.4607650000000 1.0
C      1  0.4506270000000  0.5392240000000  0.4991650000000 1.0
C      1  0.4506400000000  0.4607600000000  0.5008360000000 1.0
C      1  0.5493730000000  0.4607760000000  0.4991590000000 1.0
C      1  0.4607680000000  0.5008350000000  0.4506340000000 1.0
C      1  0.4607690000000  0.4991530000000  0.5493670000000 1.0
C      1  0.5392320000000  0.4991720000000  0.4506330000000 1.0
C      1  0.4802600000000  0.5696500000000  0.4995020000000 1.0
C      1  0.4995010000000  0.4802670000000  0.5696520000000 1.0
C      1  0.5696530000000  0.4995100000000  0.4802710000000 1.0
C      1  0.5197180000000  0.5696560000000  0.5005070000000 1.0
C      1  0.4802820000000  0.4303440000000  0.5004980000000 1.0
C      1  0.5197400000000  0.4303500000000  0.4994930000000 1.0
C      1  0.5005050000000  0.4802760000000  0.4303460000000 1.0
C      1  0.4994940000000  0.5197330000000  0.4303480000000 1.0
C      1  0.5005000000000  0.5197240000000  0.5696540000000 1.0
C      1  0.4303470000000  0.4994850000000  0.5197290000000 1.0
C      1  0.5696530000000  0.5005120000000  0.5197280000000 1.0
C      1  0.4303470000000  0.5004930000000  0.4802720000000 1.0
C      1  0.4994860000000  0.5696540000000  0.4802760000000 1.0
C      1  0.5696560000000  0.4802820000000  0.4994960000000 1.0
C      1  0.4802720000000  0.4994900000000  0.5696530000000 1.0
C      1  0.5004920000000  0.5696520000000  0.5197330000000 1.0
C      1  0.5005140000000  0.4303490000000  0.4802670000000 1.0
C      1  0.4995090000000  0.4303460000000  0.5197240000000 1.0
C      1  0.4303500000000  0.4802600000000  0.5005020000000 1.0
C      1  0.4303440000000  0.5197180000000  0.4994990000000 1.0
C      1  0.5696500000000  0.5197400000000  0.5005030000000 1.0
C      1  0.5197280000000  0.4995050000000  0.4303470000000 1.0
C      1  0.5197290000000  0.5005010000000  0.5696530000000 1.0
C      1  0.4802710000000  0.5005040000000  0.4303470000000 1.0
C      1  0.5128210000000  0.4428510000000  0.4638520000000 1.0
C      1  0.4638530000000  0.5128110000000  0.4428470000000 1.0
C      1  0.4428520000000  0.4638460000000  0.5128110000000 1.0
C      1  0.4871970000000  0.4428420000000  0.5361410000000 1.0
C      1  0.5128040000000  0.5571540000000  0.5361480000000 1.0
C      1  0.4871780000000  0.5571540000000  0.4638590000000 1.0
C      1  0.5361430000000  0.5128150000000  0.5571540000000 1.0
C      1  0.4638580000000  0.4871780000000  0.5571530000000 1.0
C      1  0.5361460000000  0.4871970000000  0.4428450000000 1.0
C      1  0.5571600000000  0.4638660000000  0.4871850000000 1.0
C      1  0.4428400000000  0.5361360000000  0.4871900000000 1.0
C      1  0.5571480000000  0.5361530000000  0.5128150000000 1.0
C      1  0.4638650000000  0.4428400000000  0.5128090000000 1.0
C      1  0.4428440000000  0.5128060000000  0.4638570000000 1.0
C      1  0.5128180000000  0.4638610000000  0.4428440000000 1.0
C      1  0.5361530000000  0.4428530000000  0.4871830000000 1.0
C      1  0.5361350000000  0.5571590000000  0.5128160000000 1.0
C      1  0.4638460000000  0.5571490000000  0.4871910000000 1.0
C      1  0.5571520000000  0.5128190000000  0.5361450000000 1.0
C      1  0.5571560000000  0.4871990000000  0.4638540000000 1.0
C      1  0.4428480000000  0.4871760000000  0.5361440000000 1.0
C      1  0.4871940000000  0.4638500000000  0.5571520000000 1.0
C      1  0.4871810000000  0.5361460000000  0.4428490000000 1.0
C      1  0.5128070000000  0.5361430000000  0.5571560000000 1.0
C      1  0.5102410000000  0.4999600000000  0.5799310000000 1.0
C      1  0.5799300000000  0.5102530000000  0.4999640000000 1.0
C      1  0.4999510000000  0.5799310000000  0.5102450000000 1.0
C      1  0.4897590000000  0.4999670000000  0.4200690000000 1.0
C      1  0.5102400000000  0.5000430000000  0.4200690000000 1.0
C      1  0.4897600000000  0.5000290000000  0.5799310000000 1.0
C      1  0.4200670000000  0.5102270000000  0.5000370000000 1.0
C      1  0.5799330000000  0.4897730000000  0.5000350000000 1.0
C      1  0.4200700000000  0.4897470000000  0.4999640000000 1.0
C      1  0.5000230000000  0.5799320000000  0.4897650000000 1.0
C      1  0.4999760000000  0.4200690000000  0.4897550000000 1.0
C      1  0.5000490000000  0.4200680000000  0.5102350000000 1.0
C      1  0.5799310000000  0.4999760000000  0.5102400000000 1.0
C      1  0.4999630000000  0.5102350000000  0.5799320000000 1.0
C      1  0.5102270000000  0.5799330000000  0.4999690000000 1.0
C      1  0.4200690000000  0.4999520000000  0.4897600000000 1.0
C      1  0.4200690000000  0.5000230000000  0.5102410000000 1.0
C      1  0.5799310000000  0.5000500000000  0.4897590000000 1.0
C      1  0.5000340000000  0.5102450000000  0.4200690000000 1.0
C      1  0.5000380000000  0.4897550000000  0.5799310000000 1.0
C      1  0.4999650000000  0.4897650000000  0.4200680000000 1.0
C      1  0.4897470000000  0.5799300000000  0.5000410000000 1.0
C      1  0.4897730000000  0.4200670000000  0.4999590000000 1.0
C      1  0.5102530000000  0.4200700000000  0.5000310000000 1.0
C      1  0.5316180000000  0.4583620000000  0.5215240000000 1.0
C      1  0.5215210000000  0.5316170000000  0.4583610000000 1.0
C      1  0.4583560000000  0.5215180000000  0.5316130000000 1.0
C      1  0.4683950000000  0.4583550000000  0.4784710000000 1.0
C      1  0.5316050000000  0.5416480000000  0.4784760000000 1.0
C      1  0.4683820000000  0.5416350000000  0.5215290000000 1.0
C      1  0.4784690000000  0.5316050000000  0.5416430000000 1.0
C      1  0.5215320000000  0.4683890000000  0.5416390000000 1.0
C      1  0.4784780000000  0.4683880000000  0.4583570000000 1.0
C      1  0.5416380000000  0.5215350000000  0.4683900000000 1.0
C      1  0.4583620000000  0.4784690000000  0.4683880000000 1.0
C      1  0.5416450000000  0.4784780000000  0.5316100000000 1.0
C      1  0.5215330000000  0.4583600000000  0.5316080000000 1.0
C      1  0.4583540000000  0.5316030000000  0.5215290000000 1.0
C      1  0.5316080000000  0.5215340000000  0.4583600000000 1.0
C      1  0.4784800000000  0.4583570000000  0.4683860000000 1.0
C      1  0.4784670000000  0.5416360000000  0.5316140000000 1.0
C      1  0.5215200000000  0.5416470000000  0.4683910000000 1.0
C      1  0.5416360000000  0.5316190000000  0.4784750000000 1.0
C      1  0.5416460000000  0.4683940000000  0.5215240000000 1.0
C      1  0.4583640000000  0.4683830000000  0.4784720000000 1.0
C      1  0.4683860000000  0.5215190000000  0.5416430000000 1.0
C      1  0.4683920000000  0.4784710000000  0.4583580000000 1.0
C      1  0.5316150000000  0.4784760000000  0.5416400000000 1.0
C      1  0.5134870000000  0.4761060000000  0.4349720000000 1.0
C      1  0.4349710000000  0.5134750000000  0.4761010000000 1.0
C      1  0.4761100000000  0.4349690000000  0.5134790000000 1.0
C      1  0.4865210000000  0.4760930000000  0.5650250000000 1.0
C      1  0.5134800000000  0.5238980000000  0.5650280000000 1.0
C      1  0.4865120000000  0.5239020000000  0.4349750000000 1.0
C      1  0.5650240000000  0.5134920000000  0.5239010000000 1.0
C      1  0.4349760000000  0.4865050000000  0.5239000000000 1.0
C      1  0.5650280000000  0.4865290000000  0.4760990000000 1.0
C      1  0.5239100000000  0.4349780000000  0.4865120000000 1.0
C      1  0.4760890000000  0.5650230000000  0.4865210000000 1.0
C      1  0.5238900000000  0.5650290000000  0.5134870000000 1.0
C      1  0.4349780000000  0.4760890000000  0.5134820000000 1.0
C      1  0.4760970000000  0.5134840000000  0.4349750000000 1.0
C      1  0.5134940000000  0.4349770000000  0.4760960000000 1.0
C      1  0.5650300000000  0.4761110000000  0.4865150000000 1.0
C      1  0.5650230000000  0.5239100000000  0.5134840000000 1.0
C      1  0.4349700000000  0.5238910000000  0.4865190000000 1.0
C      1  0.5238980000000  0.5134830000000  0.5650270000000 1.0
C      1  0.5239020000000  0.4865250000000  0.4349730000000 1.0
C      1  0.4761020000000  0.4865090000000  0.5650260000000 1.0
C      1  0.4865270000000  0.4349700000000  0.5238960000000 1.0
C      1  0.4865060000000  0.5650260000000  0.4761040000000 1.0
C      1  0.5134730000000  0.5650270000000  0.5239040000000 1.0
C      1  0.4387260000000  0.4889650000000  0.4787780000000 1.0
C      1  0.4787880000000  0.4387220000000  0.4889700000000 1.0
C      1  0.4889770000000  0.4787800000000  0.4387230000000 1.0
C      1  0.5612770000000  0.4889820000000  0.5212210000000 1.0
C      1  0.4387230000000  0.5110150000000  0.5212230000000 1.0
C      1  0.5612730000000  0.5110370000000  0.4787780000000 1.0
C      1  0.5212320000000  0.4387270000000  0.5110220000000 1.0
C      1  0.4787680000000  0.5612710000000  0.5110300000000 1.0
C      1  0.5212120000000  0.5612790000000  0.4889780000000 1.0
C      1  0.5110300000000  0.4787760000000  0.5612740000000 1.0
C      1  0.4889710000000  0.5212160000000  0.5612770000000 1.0
C      1  0.5110220000000  0.5212280000000  0.4387260000000 1.0
C      1  0.4787790000000  0.4889740000000  0.4387240000000 1.0
C      1  0.4889830000000  0.4387240000000  0.4787740000000 1.0
C      1  0.4387280000000  0.4787690000000  0.4889730000000 1.0
C      1  0.5212240000000  0.4889730000000  0.5612740000000 1.0
C      1  0.5212200000000  0.5110340000000  0.4387250000000 1.0
C      1  0.4787770000000  0.5110190000000  0.5612760000000 1.0
C      1  0.5110360000000  0.4387250000000  0.5212180000000 1.0
C      1  0.5110160000000  0.5612780000000  0.4787820000000 1.0
C      1  0.4889640000000  0.5612720000000  0.5212260000000 1.0
C      1  0.5612790000000  0.4787870000000  0.5110240000000 1.0
C      1  0.5612720000000  0.5212320000000  0.4889750000000 1.0
C      1  0.4387210000000  0.5212110000000  0.5110280000000 1.0
END
