TITL C-112676-196-194 30.7778474307826 1000000 -1664.90501197509 0 0 240 (C1) n - 1
REM
REM in /home/chem/mssmkc/work/GAP20/Larger-Clusters/Only-C240-new-series
REM
REM
REM
REM
REM
REM ./C.cell (c58642faaf353743302a0f2d8ff18644)
REM
REM compiler GCC version 8.3.0
REM options -cpp -mtune=generic -march=x86-64 -g -O0
REM seed -582724712 2046870020 -1029014520 -1761783910 -343125316 952049674 1186720999 -1216199731 -1380075460 -923124203 1079548395 822755807 1133678449 -1912204832 -1392280031 778144876 284070259 -1963210222 188985813 2056433846 -245819935 -959944412 1450361082 506899192 1230604185 -183463006 -865228218 1894835385 1703367976 1655072102 58708141 -1466645541 2072920515
REM
CELL 1.54180  100.00000  100.00000  100.00000   90.00000   90.00000   90.00000
LATT -1
SFAC C  
C      1  0.5481530000000  0.5710440000000  0.4815900000000 1.0
C      1  0.4835200000000  0.5422050000000  0.5625720000000 1.0
C      1  0.5664970000000  0.4883670000000  0.5459660000000 1.0
C      1  0.5506180000000  0.4318080000000  0.5231900000000 1.0
C      1  0.4565140000000  0.4311200000000  0.4868080000000 1.0
C      1  0.4508320000000  0.5682300000000  0.5237360000000 1.0
C      1  0.4842330000000  0.4522310000000  0.4329840000000 1.0
C      1  0.5158760000000  0.4560100000000  0.5615000000000 1.0
C      1  0.5168760000000  0.5472750000000  0.4325150000000 1.0
C      1  0.5614880000000  0.5167130000000  0.4561400000000 1.0
C      1  0.4280250000000  0.5167590000000  0.5476680000000 1.0
C      1  0.4403390000000  0.4824430000000  0.4572420000000 1.0
C      1  0.4589290000000  0.5675670000000  0.4885640000000 1.0
C      1  0.5184880000000  0.5520440000000  0.5672580000000 1.0
C      1  0.4277830000000  0.4825560000000  0.5468340000000 1.0
C      1  0.4484220000000  0.4297530000000  0.5219650000000 1.0
C      1  0.5433530000000  0.4321650000000  0.4877320000000 1.0
C      1  0.5463260000000  0.5711300000000  0.5146550000000 1.0
C      1  0.5160700000000  0.4522910000000  0.4329690000000 1.0
C      1  0.4814790000000  0.4549760000000  0.5614740000000 1.0
C      1  0.4853470000000  0.5473240000000  0.4335790000000 1.0
C      1  0.4409830000000  0.5178250000000  0.4576570000000 1.0
C      1  0.5624260000000  0.5209610000000  0.5452140000000 1.0
C      1  0.5605410000000  0.4819770000000  0.4569710000000 1.0
C      1  0.4834420000000  0.4928540000000  0.4192270000000 1.0
C      1  0.4291410000000  0.4828910000000  0.4937100000000 1.0
C      1  0.4932340000000  0.4213860000000  0.4800220000000 1.0
C      1  0.4797360000000  0.5052690000000  0.5750120000000 1.0
C      1  0.5174800000000  0.5065600000000  0.4184950000000 1.0
C      1  0.5136890000000  0.4934360000000  0.5706180000000 1.0
C      1  0.4312820000000  0.5158420000000  0.5082000000000 1.0
C      1  0.5683640000000  0.5174010000000  0.4938640000000 1.0
C      1  0.5714470000000  0.4841850000000  0.5073380000000 1.0
C      1  0.4941080000000  0.5759880000000  0.5153930000000 1.0
C      1  0.5099730000000  0.5739460000000  0.4825680000000 1.0
C      1  0.5067490000000  0.4227720000000  0.5136990000000 1.0
C      1  0.5173570000000  0.4925960000000  0.4186490000000 1.0
C      1  0.5706720000000  0.4841340000000  0.4935990000000 1.0
C      1  0.5070970000000  0.4215850000000  0.4801370000000 1.0
C      1  0.5134720000000  0.5068540000000  0.5726580000000 1.0
C      1  0.4835570000000  0.5068240000000  0.4192110000000 1.0
C      1  0.4804020000000  0.4916620000000  0.5727250000000 1.0
C      1  0.5687880000000  0.5173420000000  0.5073260000000 1.0
C      1  0.4318320000000  0.5162300000000  0.4946380000000 1.0
C      1  0.4283950000000  0.4829410000000  0.5074290000000 1.0
C      1  0.5078670000000  0.5750020000000  0.5155570000000 1.0
C      1  0.4963520000000  0.5761480000000  0.4817990000000 1.0
C      1  0.4928700000000  0.4225560000000  0.5135820000000 1.0
C      1  0.4610620000000  0.5600210000000  0.5287860000000 1.0
C      1  0.5260260000000  0.4622190000000  0.5538890000000 1.0
C      1  0.5534660000000  0.5272430000000  0.4610860000000 1.0
C      1  0.4614810000000  0.4387930000000  0.4757870000000 1.0
C      1  0.5398410000000  0.4394640000000  0.5279150000000 1.0
C      1  0.5429210000000  0.5623930000000  0.4714390000000 1.0
C      1  0.5257760000000  0.5387160000000  0.4387250000000 1.0
C      1  0.4726860000000  0.5368070000000  0.5553290000000 1.0
C      1  0.4756940000000  0.4607520000000  0.4397700000000 1.0
C      1  0.5595620000000  0.4766810000000  0.5414360000000 1.0
C      1  0.4487860000000  0.4726360000000  0.4630820000000 1.0
C      1  0.4366800000000  0.5270820000000  0.5432080000000 1.0
C      1  0.5411740000000  0.5631190000000  0.5253720000000 1.0
C      1  0.4708250000000  0.4605050000000  0.5540870000000 1.0
C      1  0.4499220000000  0.5271770000000  0.4635970000000 1.0
C      1  0.5385700000000  0.4395680000000  0.4764310000000 1.0
C      1  0.4587920000000  0.4376110000000  0.5272380000000 1.0
C      1  0.4637290000000  0.5601000000000  0.4773170000000 1.0
C      1  0.4767950000000  0.5388120000000  0.4403340000000 1.0
C      1  0.5255160000000  0.5419960000000  0.5604690000000 1.0
C      1  0.5247090000000  0.4607690000000  0.4396780000000 1.0
C      1  0.4359800000000  0.4719820000000  0.5420120000000 1.0
C      1  0.5516210000000  0.4727570000000  0.4630260000000 1.0
C      1  0.5537990000000  0.5302150000000  0.5390040000000 1.0
C      1  0.5083650000000  0.5509970000000  0.5582690000000 1.0
C      1  0.5582270000000  0.5114930000000  0.5531250000000 1.0
C      1  0.5540900000000  0.5650560000000  0.5058650000000 1.0
C      1  0.5073920000000  0.4457170000000  0.4404040000000 1.0
C      1  0.4916100000000  0.4487280000000  0.5560730000000 1.0
C      1  0.4942380000000  0.5536220000000  0.4410290000000 1.0
C      1  0.5566300000000  0.4919740000000  0.4495100000000 1.0
C      1  0.4339560000000  0.4921030000000  0.5536590000000 1.0
C      1  0.4450150000000  0.5074810000000  0.4507180000000 1.0
C      1  0.5490590000000  0.4393510000000  0.4974430000000 1.0
C      1  0.4483370000000  0.4379280000000  0.5111720000000 1.0
C      1  0.4525850000000  0.5605670000000  0.4980490000000 1.0
C      1  0.4938680000000  0.5484340000000  0.5572320000000 1.0
C      1  0.4340710000000  0.5067870000000  0.5540320000000 1.0
C      1  0.4504890000000  0.5603550000000  0.5127270000000 1.0
C      1  0.4929290000000  0.4456620000000  0.4404070000000 1.0
C      1  0.5061630000000  0.4491370000000  0.5560990000000 1.0
C      1  0.5086700000000  0.5537490000000  0.4405570000000 1.0
C      1  0.4447610000000  0.4927980000000  0.4505590000000 1.0
C      1  0.5596250000000  0.4969280000000  0.5533380000000 1.0
C      1  0.5570960000000  0.5066180000000  0.4490980000000 1.0
C      1  0.4504530000000  0.4380230000000  0.4965160000000 1.0
C      1  0.5507500000000  0.4396480000000  0.5121590000000 1.0
C      1  0.5549320000000  0.5649960000000  0.4912110000000 1.0
C      1  0.4708070000000  0.4581590000000  0.4530800000000 1.0
C      1  0.4607610000000  0.4693950000000  0.4551780000000 1.0
C      1  0.4547960000000  0.4503420000000  0.4740420000000 1.0
C      1  0.4699300000000  0.5443030000000  0.5427900000000 1.0
C      1  0.5313270000000  0.5413560000000  0.4517500000000 1.0
C      1  0.5298640000000  0.4546020000000  0.5418340000000 1.0
C      1  0.4470690000000  0.5294720000000  0.5516830000000 1.0
C      1  0.5415440000000  0.5303150000000  0.4532180000000 1.0
C      1  0.5489040000000  0.4737470000000  0.5492000000000 1.0
C      1  0.4582540000000  0.5468940000000  0.5341240000000 1.0
C      1  0.5511820000000  0.5520080000000  0.4687310000000 1.0
C      1  0.5417720000000  0.4528130000000  0.5331740000000 1.0
C      1  0.5295280000000  0.4583390000000  0.4530330000000 1.0
C      1  0.5397830000000  0.4694490000000  0.4549470000000 1.0
C      1  0.5451390000000  0.4511690000000  0.4746190000000 1.0
C      1  0.5314910000000  0.5442290000000  0.5475740000000 1.0
C      1  0.4722220000000  0.5412430000000  0.4537710000000 1.0
C      1  0.4677100000000  0.4528270000000  0.5418180000000 1.0
C      1  0.5415120000000  0.5332740000000  0.5465150000000 1.0
C      1  0.4618810000000  0.5302470000000  0.4557100000000 1.0
C      1  0.4464500000000  0.4694770000000  0.5502640000000 1.0
C      1  0.5492200000000  0.5525650000000  0.5280270000000 1.0
C      1  0.4567680000000  0.5487630000000  0.4753630000000 1.0
C      1  0.4561370000000  0.4506870000000  0.5328620000000 1.0
C      1  0.5598450000000  0.4714140000000  0.5282440000000 1.0
C      1  0.5289900000000  0.5610740000000  0.4692690000000 1.0
C      1  0.4677340000000  0.5244450000000  0.5608440000000 1.0
C      1  0.5585720000000  0.5310220000000  0.4739410000000 1.0
C      1  0.4389100000000  0.5297820000000  0.5294420000000 1.0
C      1  0.4441720000000  0.4700380000000  0.4763600000000 1.0
C      1  0.5256970000000  0.4365310000000  0.5268660000000 1.0
C      1  0.4744080000000  0.4380660000000  0.4699400000000 1.0
C      1  0.4752680000000  0.5620310000000  0.5278300000000 1.0
C      1  0.4734120000000  0.4741500000000  0.4357130000000 1.0
C      1  0.5283020000000  0.4754000000000  0.5588770000000 1.0
C      1  0.5281040000000  0.5253610000000  0.4344410000000 1.0
C      1  0.4374090000000  0.4685600000000  0.5282980000000 1.0
C      1  0.4766060000000  0.5607180000000  0.4712450000000 1.0
C      1  0.5262220000000  0.5279530000000  0.5637830000000 1.0
C      1  0.4456770000000  0.5293340000000  0.4770200000000 1.0
C      1  0.5586820000000  0.5321390000000  0.5257190000000 1.0
C      1  0.5557880000000  0.4708270000000  0.4765540000000 1.0
C      1  0.4730680000000  0.4353360000000  0.5264980000000 1.0
C      1  0.5258150000000  0.4385390000000  0.4702740000000 1.0
C      1  0.5275300000000  0.5624730000000  0.5292260000000 1.0
C      1  0.5273250000000  0.4740040000000  0.4353010000000 1.0
C      1  0.4670730000000  0.4732120000000  0.5595630000000 1.0
C      1  0.4741380000000  0.5255380000000  0.4360220000000 1.0
C      1  0.4818490000000  0.4283680000000  0.4771730000000 1.0
C      1  0.4809650000000  0.4807030000000  0.4256720000000 1.0
C      1  0.4355270000000  0.4795730000000  0.4819580000000 1.0
C      1  0.4818240000000  0.5705370000000  0.5186280000000 1.0
C      1  0.5219680000000  0.5686320000000  0.4791030000000 1.0
C      1  0.5188830000000  0.4283160000000  0.5175720000000 1.0
C      1  0.4766450000000  0.5174800000000  0.5692170000000 1.0
C      1  0.5201760000000  0.5187540000000  0.4247710000000 1.0
C      1  0.5178240000000  0.4812480000000  0.5660500000000 1.0
C      1  0.4334110000000  0.5197500000000  0.5211460000000 1.0
C      1  0.5650370000000  0.5209410000000  0.4810370000000 1.0
C      1  0.5668790000000  0.4802060000000  0.5196640000000 1.0
C      1  0.5183890000000  0.4287830000000  0.4774440000000 1.0
C      1  0.5197620000000  0.4805200000000  0.4252540000000 1.0
C      1  0.5645200000000  0.4804730000000  0.4818490000000 1.0
C      1  0.5195870000000  0.5697860000000  0.5201130000000 1.0
C      1  0.4844810000000  0.5699420000000  0.4786490000000 1.0
C      1  0.4804390000000  0.4275590000000  0.5172550000000 1.0
C      1  0.5166210000000  0.5201700000000  0.5703820000000 1.0
C      1  0.4814120000000  0.5189690000000  0.4257930000000 1.0
C      1  0.4769350000000  0.4796380000000  0.5672100000000 1.0
C      1  0.5655290000000  0.5212580000000  0.5200800000000 1.0
C      1  0.4371170000000  0.5196950000000  0.4824340000000 1.0
C      1  0.4315790000000  0.4784520000000  0.5200000000000 1.0
C      1  0.4547650000000  0.5195500000000  0.5575890000000 1.0
C      1  0.5513580000000  0.4604480000000  0.5246340000000 1.0
C      1  0.5233410000000  0.5515330000000  0.4600350000000 1.0
C      1  0.4643570000000  0.4797050000000  0.4450550000000 1.0
C      1  0.5403540000000  0.4822350000000  0.5559220000000 1.0
C      1  0.5376650000000  0.5198860000000  0.4433170000000 1.0
C      1  0.5569800000000  0.5441490000000  0.4787260000000 1.0
C      1  0.4484310000000  0.5396940000000  0.5253600000000 1.0
C      1  0.4483710000000  0.4582970000000  0.4831310000000 1.0
C      1  0.5195600000000  0.4451140000000  0.5364340000000 1.0
C      1  0.4792100000000  0.4478320000000  0.4606000000000 1.0
C      1  0.4812620000000  0.5527920000000  0.5371050000000 1.0
C      1  0.5370350000000  0.5227510000000  0.5561950000000 1.0
C      1  0.4465680000000  0.4582880000000  0.5242560000000 1.0
C      1  0.4810010000000  0.5511870000000  0.4614230000000 1.0
C      1  0.5366110000000  0.4795200000000  0.4444170000000 1.0
C      1  0.4543330000000  0.4788370000000  0.5567460000000 1.0
C      1  0.4650420000000  0.5200380000000  0.4453540000000 1.0
C      1  0.4501420000000  0.5407030000000  0.4842060000000 1.0
C      1  0.5561430000000  0.5445070000000  0.5191700000000 1.0
C      1  0.5512870000000  0.4593930000000  0.4836620000000 1.0
C      1  0.4785970000000  0.4440200000000  0.5363410000000 1.0
C      1  0.5211000000000  0.4480820000000  0.4606430000000 1.0
C      1  0.5229720000000  0.5532280000000  0.5391550000000 1.0
C      1  0.4492500000000  0.5461790000000  0.4975500000000 1.0
C      1  0.4916110000000  0.4446410000000  0.5418540000000 1.0
C      1  0.5429640000000  0.4922000000000  0.4440240000000 1.0
C      1  0.4464960000000  0.4523860000000  0.5109200000000 1.0
C      1  0.5518620000000  0.4539100000000  0.4970340000000 1.0
C      1  0.5579080000000  0.5506720000000  0.5061460000000 1.0
C      1  0.4944590000000  0.5527780000000  0.4556780000000 1.0
C      1  0.5091390000000  0.5528040000000  0.5439440000000 1.0
C      1  0.5075860000000  0.4463480000000  0.4551370000000 1.0
C      1  0.5440040000000  0.5104240000000  0.5570690000000 1.0
C      1  0.4587750000000  0.5073080000000  0.4453580000000 1.0
C      1  0.4481870000000  0.4919170000000  0.5578620000000 1.0
C      1  0.5584460000000  0.5505870000000  0.4915450000000 1.0
C      1  0.5064770000000  0.4450470000000  0.5418780000000 1.0
C      1  0.4585250000000  0.4926280000000  0.4452370000000 1.0
C      1  0.5522490000000  0.4541150000000  0.5115780000000 1.0
C      1  0.4474050000000  0.4525030000000  0.4963450000000 1.0
C      1  0.4483810000000  0.5459120000000  0.5121450000000 1.0
C      1  0.5094220000000  0.5529960000000  0.4552980000000 1.0
C      1  0.4943380000000  0.5519380000000  0.5427500000000 1.0
C      1  0.4927710000000  0.4462650000000  0.4551560000000 1.0
C      1  0.4483140000000  0.5065720000000  0.5581560000000 1.0
C      1  0.5434120000000  0.5069220000000  0.4435420000000 1.0
C      1  0.5454290000000  0.4957000000000  0.5573730000000 1.0
C      1  0.5685860000000  0.4937960000000  0.4829250000000 1.0
C      1  0.4853380000000  0.5754150000000  0.4912780000000 1.0
C      1  0.4905510000000  0.4814120000000  0.5699720000000 1.0
C      1  0.5686420000000  0.5076040000000  0.5182400000000 1.0
C      1  0.4328160000000  0.5065730000000  0.4838230000000 1.0
C      1  0.4293670000000  0.4922190000000  0.5185150000000 1.0
C      1  0.4826340000000  0.4234260000000  0.5037210000000 1.0
C      1  0.5174540000000  0.4231670000000  0.4901210000000 1.0
C      1  0.5189780000000  0.5730010000000  0.5065300000000 1.0
C      1  0.4935370000000  0.5170550000000  0.4191460000000 1.0
C      1  0.5032290000000  0.5168570000000  0.5735270000000 1.0
C      1  0.5073930000000  0.4823390000000  0.4190610000000 1.0
C      1  0.4316970000000  0.4928500000000  0.4833810000000 1.0
C      1  0.5199920000000  0.5724060000000  0.4926480000000 1.0
C      1  0.5042630000000  0.4823030000000  0.5690520000000 1.0
C      1  0.4304880000000  0.5061690000000  0.5188140000000 1.0
C      1  0.5676860000000  0.5075030000000  0.4829840000000 1.0
C      1  0.5698080000000  0.4937920000000  0.5182400000000 1.0
C      1  0.5171560000000  0.4239520000000  0.5040380000000 1.0
C      1  0.4826300000000  0.4226380000000  0.4898000000000 1.0
C      1  0.4841900000000  0.5752010000000  0.5051770000000 1.0
C      1  0.5076700000000  0.5169490000000  0.4188470000000 1.0
C      1  0.4894350000000  0.5162430000000  0.5742610000000 1.0
C      1  0.4932520000000  0.4824600000000  0.4193100000000 1.0
END
