TITL C-112675-8135-8 -0.0152481453425002 1000000 -1788.47672951751 0 0 240 (Th) n - 1
REM
REM in /home/chem/mssmkc/work/GAP20/Larger-Clusters/Only-C240-new-series
REM
REM
REM
REM
REM
REM ./C.cell (debb58b9013352640de1e2d0916776b0)
REM
REM compiler GCC version 8.3.0
REM options -cpp -mtune=generic -march=x86-64 -g -O0
REM seed 568754125 114512217 -1580659309 1397732421 -1538989682 -1060309796 -1246703359 387826460 -225041482 1142046536 -1212654677 -843687993 -1589982245 -1615313218 -1334505298 -1870734010 406391613 1495027116 -1351963981 -1892132399 1304501539 -578630433 1270225828 -1549798744 1333725540 -483297145 -307188333 539152500 -1337445981 -2051742457 -1108114210 1861312390 1447611397
REM
CELL 1.54180  100.00000  100.00000  100.00000   90.00000   90.00000   90.00000
LATT -1
SFAC C  
C      1  0.4810860000000  0.5070930000000  0.5639720000000 1.0
C      1  0.5639730000000  0.4810890000000  0.5070930000000 1.0
C      1  0.5070900000000  0.5639720000000  0.4810860000000 1.0
C      1  0.5189140000000  0.5070880000000  0.4360280000000 1.0
C      1  0.4810900000000  0.4929070000000  0.4360270000000 1.0
C      1  0.5189110000000  0.4929120000000  0.5639730000000 1.0
C      1  0.4360280000000  0.4810870000000  0.4929080000000 1.0
C      1  0.5639720000000  0.5189130000000  0.4929100000000 1.0
C      1  0.4360270000000  0.5189120000000  0.5070880000000 1.0
C      1  0.4929080000000  0.5639730000000  0.5189090000000 1.0
C      1  0.5070910000000  0.4360280000000  0.5189150000000 1.0
C      1  0.4929110000000  0.4360270000000  0.4810900000000 1.0
C      1  0.4810860000000  0.4929120000000  0.5639720000000 1.0
C      1  0.5639720000000  0.5189130000000  0.5070920000000 1.0
C      1  0.5070920000000  0.4360270000000  0.4810910000000 1.0
C      1  0.5189140000000  0.4929070000000  0.4360280000000 1.0
C      1  0.4810890000000  0.5070880000000  0.4360270000000 1.0
C      1  0.5189100000000  0.5070930000000  0.5639730000000 1.0
C      1  0.4360270000000  0.5189110000000  0.4929070000000 1.0
C      1  0.5639730000000  0.4810880000000  0.4929120000000 1.0
C      1  0.4360280000000  0.4810870000000  0.5070900000000 1.0
C      1  0.4929100000000  0.4360280000000  0.5189140000000 1.0
C      1  0.5070890000000  0.5639730000000  0.5189100000000 1.0
C      1  0.4929090000000  0.5639720000000  0.4810850000000 1.0
C      1  0.5529040000000  0.4659340000000  0.5378080000000 1.0
C      1  0.5378060000000  0.5529040000000  0.4659310000000 1.0
C      1  0.4659300000000  0.5378070000000  0.5529020000000 1.0
C      1  0.4470970000000  0.4659300000000  0.4621950000000 1.0
C      1  0.5529050000000  0.5340670000000  0.4621950000000 1.0
C      1  0.4470940000000  0.5340690000000  0.5378030000000 1.0
C      1  0.4621930000000  0.5529050000000  0.5340650000000 1.0
C      1  0.5378050000000  0.4470970000000  0.5340710000000 1.0
C      1  0.4621960000000  0.4470940000000  0.4659330000000 1.0
C      1  0.5340690000000  0.5378040000000  0.4470950000000 1.0
C      1  0.4659340000000  0.4621920000000  0.4470960000000 1.0
C      1  0.5340670000000  0.4621970000000  0.5529070000000 1.0
C      1  0.5529030000000  0.5340700000000  0.5378050000000 1.0
C      1  0.5378070000000  0.4470950000000  0.4659350000000 1.0
C      1  0.4659310000000  0.4621960000000  0.5529050000000 1.0
C      1  0.4470960000000  0.5340660000000  0.4621920000000 1.0
C      1  0.5529060000000  0.4659310000000  0.4621970000000 1.0
C      1  0.4470950000000  0.4659330000000  0.5378050000000 1.0
C      1  0.4621940000000  0.4470960000000  0.5340690000000 1.0
C      1  0.5378040000000  0.5529060000000  0.5340670000000 1.0
C      1  0.4621950000000  0.5529030000000  0.4659290000000 1.0
C      1  0.5340700000000  0.4621930000000  0.4470980000000 1.0
C      1  0.4659330000000  0.5378030000000  0.4470930000000 1.0
C      1  0.5340660000000  0.5378080000000  0.5529040000000 1.0
C      1  0.5305310000000  0.4842620000000  0.4390920000000 1.0
C      1  0.4390910000000  0.5305280000000  0.4842610000000 1.0
C      1  0.4842640000000  0.4390920000000  0.5305310000000 1.0
C      1  0.4694690000000  0.4842660000000  0.5609090000000 1.0
C      1  0.5305270000000  0.5157390000000  0.5609100000000 1.0
C      1  0.4694720000000  0.5157330000000  0.4390890000000 1.0
C      1  0.5609090000000  0.5305310000000  0.5157370000000 1.0
C      1  0.4390900000000  0.4694710000000  0.5157360000000 1.0
C      1  0.5609100000000  0.4694710000000  0.4842670000000 1.0
C      1  0.5157380000000  0.4390900000000  0.4694740000000 1.0
C      1  0.4842640000000  0.5609080000000  0.4694680000000 1.0
C      1  0.5157350000000  0.5609110000000  0.5305270000000 1.0
C      1  0.5305310000000  0.5157340000000  0.4390910000000 1.0
C      1  0.4390910000000  0.4694690000000  0.4842630000000 1.0
C      1  0.4842620000000  0.5609100000000  0.5305260000000 1.0
C      1  0.4694690000000  0.5157380000000  0.5609080000000 1.0
C      1  0.5305280000000  0.4842670000000  0.5609110000000 1.0
C      1  0.4694730000000  0.4842610000000  0.4390900000000 1.0
C      1  0.5609090000000  0.4694720000000  0.5157390000000 1.0
C      1  0.4390900000000  0.5305290000000  0.5157330000000 1.0
C      1  0.5609100000000  0.5305290000000  0.4842640000000 1.0
C      1  0.5157360000000  0.5609080000000  0.4694690000000 1.0
C      1  0.4842650000000  0.4390890000000  0.4694730000000 1.0
C      1  0.5157360000000  0.4390920000000  0.5305320000000 1.0
C      1  0.4511110000000  0.5452630000000  0.4700520000000 1.0
C      1  0.4700540000000  0.4511130000000  0.5452660000000 1.0
C      1  0.5452660000000  0.4700530000000  0.4511140000000 1.0
C      1  0.5488870000000  0.5452670000000  0.5299450000000 1.0
C      1  0.4511110000000  0.4547360000000  0.5299460000000 1.0
C      1  0.5488900000000  0.4547350000000  0.4700580000000 1.0
C      1  0.5299470000000  0.4511100000000  0.4547380000000 1.0
C      1  0.4700550000000  0.5488870000000  0.4547330000000 1.0
C      1  0.5299430000000  0.5488910000000  0.5452640000000 1.0
C      1  0.4547340000000  0.4700560000000  0.5488890000000 1.0
C      1  0.5452630000000  0.5299480000000  0.5488890000000 1.0
C      1  0.4547360000000  0.5299430000000  0.4511090000000 1.0
C      1  0.4511130000000  0.4547330000000  0.4700550000000 1.0
C      1  0.4700530000000  0.5488900000000  0.5452620000000 1.0
C      1  0.5452660000000  0.5299440000000  0.4511110000000 1.0
C      1  0.5488890000000  0.4547370000000  0.5299480000000 1.0
C      1  0.4511100000000  0.5452650000000  0.5299420000000 1.0
C      1  0.5488890000000  0.5452640000000  0.4700540000000 1.0
C      1  0.5299460000000  0.5488870000000  0.4547340000000 1.0
C      1  0.4700570000000  0.4511090000000  0.4547360000000 1.0
C      1  0.5299450000000  0.4511130000000  0.5452670000000 1.0
C      1  0.4547340000000  0.5299470000000  0.5488860000000 1.0
C      1  0.5452640000000  0.4700570000000  0.5488910000000 1.0
C      1  0.4547370000000  0.4700520000000  0.4511110000000 1.0
C      1  0.4576200000000  0.4357400000000  0.4928870000000 1.0
C      1  0.4928870000000  0.4576170000000  0.4357420000000 1.0
C      1  0.4357420000000  0.4928830000000  0.4576180000000 1.0
C      1  0.5423810000000  0.4357420000000  0.5071180000000 1.0
C      1  0.4576180000000  0.5642590000000  0.5071110000000 1.0
C      1  0.5423800000000  0.5642590000000  0.4928840000000 1.0
C      1  0.5071140000000  0.4576220000000  0.5642610000000 1.0
C      1  0.4928830000000  0.5423830000000  0.5642570000000 1.0
C      1  0.5071160000000  0.5423780000000  0.4357390000000 1.0
C      1  0.5642580000000  0.4928880000000  0.5423830000000 1.0
C      1  0.4357400000000  0.5071160000000  0.5423790000000 1.0
C      1  0.5642600000000  0.5071140000000  0.4576210000000 1.0
C      1  0.4576190000000  0.5642580000000  0.4928820000000 1.0
C      1  0.4928860000000  0.5423780000000  0.4357390000000 1.0
C      1  0.4357420000000  0.5071120000000  0.4576170000000 1.0
C      1  0.5423800000000  0.5642600000000  0.5071130000000 1.0
C      1  0.4576200000000  0.4357410000000  0.5071160000000 1.0
C      1  0.5423820000000  0.4357410000000  0.4928890000000 1.0
C      1  0.5071130000000  0.5423830000000  0.5642580000000 1.0
C      1  0.4928840000000  0.4576220000000  0.5642610000000 1.0
C      1  0.5071170000000  0.4576170000000  0.4357430000000 1.0
C      1  0.5642580000000  0.5071170000000  0.5423820000000 1.0
C      1  0.4357400000000  0.4928860000000  0.5423790000000 1.0
C      1  0.5642600000000  0.4928840000000  0.4576210000000 1.0
C      1  0.4563570000000  0.5165360000000  0.4452710000000 1.0
C      1  0.4452730000000  0.4563550000000  0.5165390000000 1.0
C      1  0.5165410000000  0.4452710000000  0.4563580000000 1.0
C      1  0.5436430000000  0.5165420000000  0.5547280000000 1.0
C      1  0.4563540000000  0.4834630000000  0.5547270000000 1.0
C      1  0.5436460000000  0.4834590000000  0.4452740000000 1.0
C      1  0.5547280000000  0.4563550000000  0.4834640000000 1.0
C      1  0.4452730000000  0.5436430000000  0.4834580000000 1.0
C      1  0.5547260000000  0.5436460000000  0.5165390000000 1.0
C      1  0.4834610000000  0.4452740000000  0.5436460000000 1.0
C      1  0.5165370000000  0.5547290000000  0.5436430000000 1.0
C      1  0.4834610000000  0.5547250000000  0.4563530000000 1.0
C      1  0.4563570000000  0.4834580000000  0.4452720000000 1.0
C      1  0.4452720000000  0.5436450000000  0.5165360000000 1.0
C      1  0.5165390000000  0.5547260000000  0.4563540000000 1.0
C      1  0.5436430000000  0.4834640000000  0.5547290000000 1.0
C      1  0.4563540000000  0.5165410000000  0.5547260000000 1.0
C      1  0.5436460000000  0.5165370000000  0.4452730000000 1.0
C      1  0.5547270000000  0.5436450000000  0.4834610000000 1.0
C      1  0.4452740000000  0.4563540000000  0.4834610000000 1.0
C      1  0.5547270000000  0.4563570000000  0.5165420000000 1.0
C      1  0.4834590000000  0.5547290000000  0.5436420000000 1.0
C      1  0.5165390000000  0.4452750000000  0.5436470000000 1.0
C      1  0.4834630000000  0.4452710000000  0.4563570000000 1.0
C      1  0.4338120000000  0.5071630000000  0.4834800000000 1.0
C      1  0.4834830000000  0.4338110000000  0.5071670000000 1.0
C      1  0.5071660000000  0.4834800000000  0.4338120000000 1.0
C      1  0.5661880000000  0.5071660000000  0.5165190000000 1.0
C      1  0.4338110000000  0.4928350000000  0.5165160000000 1.0
C      1  0.5661890000000  0.4928360000000  0.4834840000000 1.0
C      1  0.5165190000000  0.4338110000000  0.4928390000000 1.0
C      1  0.4834820000000  0.5661880000000  0.4928320000000 1.0
C      1  0.5165170000000  0.5661890000000  0.5071620000000 1.0
C      1  0.4928340000000  0.4834850000000  0.5661890000000 1.0
C      1  0.5071630000000  0.5165200000000  0.5661880000000 1.0
C      1  0.4928370000000  0.5165150000000  0.4338100000000 1.0
C      1  0.4338120000000  0.4928340000000  0.4834810000000 1.0
C      1  0.4834810000000  0.5661890000000  0.5071610000000 1.0
C      1  0.5071660000000  0.5165150000000  0.4338110000000 1.0
C      1  0.5661880000000  0.4928370000000  0.5165200000000 1.0
C      1  0.4338110000000  0.5071640000000  0.5165160000000 1.0
C      1  0.5661890000000  0.5071650000000  0.4834840000000 1.0
C      1  0.5165170000000  0.5661890000000  0.4928330000000 1.0
C      1  0.4834830000000  0.4338110000000  0.4928380000000 1.0
C      1  0.5165180000000  0.4338120000000  0.5071680000000 1.0
C      1  0.4928340000000  0.5165200000000  0.5661880000000 1.0
C      1  0.5071630000000  0.4834850000000  0.5661900000000 1.0
C      1  0.4928370000000  0.4834800000000  0.4338120000000 1.0
C      1  0.5072040000000  0.5522660000000  0.4467200000000 1.0
C      1  0.4467210000000  0.5072050000000  0.5522660000000 1.0
C      1  0.5522690000000  0.4467230000000  0.5072070000000 1.0
C      1  0.4927940000000  0.5522700000000  0.5532750000000 1.0
C      1  0.5072030000000  0.4477340000000  0.5532800000000 1.0
C      1  0.4927980000000  0.4477300000000  0.4467240000000 1.0
C      1  0.5532790000000  0.5072020000000  0.4477330000000 1.0
C      1  0.4467240000000  0.4927940000000  0.4477310000000 1.0
C      1  0.5532760000000  0.4927990000000  0.5522700000000 1.0
C      1  0.4477330000000  0.4467210000000  0.4927970000000 1.0
C      1  0.5522680000000  0.5532780000000  0.4927960000000 1.0
C      1  0.4477310000000  0.5532770000000  0.5072000000000 1.0
C      1  0.5072060000000  0.4477300000000  0.4467250000000 1.0
C      1  0.4467210000000  0.4927980000000  0.5522670000000 1.0
C      1  0.5522670000000  0.5532790000000  0.5072030000000 1.0
C      1  0.4927960000000  0.4477340000000  0.5532800000000 1.0
C      1  0.5072020000000  0.5522700000000  0.5532760000000 1.0
C      1  0.4927970000000  0.5522660000000  0.4467200000000 1.0
C      1  0.5532790000000  0.4927950000000  0.4477340000000 1.0
C      1  0.4467240000000  0.5072010000000  0.4477300000000 1.0
C      1  0.5532760000000  0.5072060000000  0.5522690000000 1.0
C      1  0.4477310000000  0.5532770000000  0.4927930000000 1.0
C      1  0.5522690000000  0.4467230000000  0.4928000000000 1.0
C      1  0.4477320000000  0.4467220000000  0.5072040000000 1.0
C      1  0.4389090000000  0.4737720000000  0.5290610000000 1.0
C      1  0.5290630000000  0.4389090000000  0.4737750000000 1.0
C      1  0.4737730000000  0.5290580000000  0.4389080000000 1.0
C      1  0.5610910000000  0.4737710000000  0.4709420000000 1.0
C      1  0.4389100000000  0.5262270000000  0.4709360000000 1.0
C      1  0.5610890000000  0.5262300000000  0.5290620000000 1.0
C      1  0.4709390000000  0.4389100000000  0.5262300000000 1.0
C      1  0.5290600000000  0.5610920000000  0.5262270000000 1.0
C      1  0.4709390000000  0.5610890000000  0.4737680000000 1.0
C      1  0.5262260000000  0.5290640000000  0.5610900000000 1.0
C      1  0.4737700000000  0.4709410000000  0.5610910000000 1.0
C      1  0.5262300000000  0.4709370000000  0.4389120000000 1.0
C      1  0.4389090000000  0.5262290000000  0.5290580000000 1.0
C      1  0.5290610000000  0.5610900000000  0.4737700000000 1.0
C      1  0.4737740000000  0.4709360000000  0.4389100000000 1.0
C      1  0.5610910000000  0.5262280000000  0.4709390000000 1.0
C      1  0.4389110000000  0.4737700000000  0.4709380000000 1.0
C      1  0.5610900000000  0.4737730000000  0.5290640000000 1.0
C      1  0.4709370000000  0.5610910000000  0.5262250000000 1.0
C      1  0.5290610000000  0.4389110000000  0.5262320000000 1.0
C      1  0.4709400000000  0.4389080000000  0.4737730000000 1.0
C      1  0.5262270000000  0.4709420000000  0.5610920000000 1.0
C      1  0.4737700000000  0.5290630000000  0.5610880000000 1.0
C      1  0.5262300000000  0.5290590000000  0.4389090000000 1.0
C      1  0.4700310000000  0.4347250000000  0.4868590000000 1.0
C      1  0.4868590000000  0.4700270000000  0.4347270000000 1.0
C      1  0.4347270000000  0.4868550000000  0.4700280000000 1.0
C      1  0.5299710000000  0.4347270000000  0.5131460000000 1.0
C      1  0.4700280000000  0.5652740000000  0.5131400000000 1.0
C      1  0.5299700000000  0.5652740000000  0.4868550000000 1.0
C      1  0.5131420000000  0.4700320000000  0.5652760000000 1.0
C      1  0.4868550000000  0.5299730000000  0.5652730000000 1.0
C      1  0.5131440000000  0.5299680000000  0.4347250000000 1.0
C      1  0.5652740000000  0.4868590000000  0.5299730000000 1.0
C      1  0.4347250000000  0.5131430000000  0.5299680000000 1.0
C      1  0.5652750000000  0.5131430000000  0.4700310000000 1.0
C      1  0.4700290000000  0.5652730000000  0.4868540000000 1.0
C      1  0.4868580000000  0.5299680000000  0.4347240000000 1.0
C      1  0.4347260000000  0.5131410000000  0.4700270000000 1.0
C      1  0.5299690000000  0.5652750000000  0.5131410000000 1.0
C      1  0.4700300000000  0.4347260000000  0.5131450000000 1.0
C      1  0.5299720000000  0.4347260000000  0.4868600000000 1.0
C      1  0.5131410000000  0.5299730000000  0.5652730000000 1.0
C      1  0.4868560000000  0.4700320000000  0.5652750000000 1.0
C      1  0.5131450000000  0.4700270000000  0.4347270000000 1.0
C      1  0.5652730000000  0.5131450000000  0.5299720000000 1.0
C      1  0.4347250000000  0.4868570000000  0.5299690000000 1.0
C      1  0.5652750000000  0.4868570000000  0.4700320000000 1.0
END
