TITL C-112676-196-87 -5.90088473836829 1000000 -1626.82403090573 0 0 240 (Td) n - 1
REM
REM in /home/chem/mssmkc/work/GAP20/Larger-Clusters/Only-C240-new-series
REM
REM
REM
REM
REM
REM ./C.cell (db83009d4c1eceb3c2f0bef44cf3317a)
REM
REM compiler GCC version 8.3.0
REM options -cpp -mtune=generic -march=x86-64 -g -O0
REM seed -92603438 1539704631 1476833573 2132634294 -1406817763 2092012460 870024933 600611368 -1699653903 1502001763 -1588215231 -2066568478 1351599770 -1587310546 386743603 -823683173 -305840637 -7504536 -1996382508 -2108459749 1737494941 -2127711494 -1646462527 -1075793386 39477236 -1304430186 227565708 878893990 1726122698 -1423147798 1796097139 827373195 -2097583883
REM
CELL 1.54180  100.00000  100.00000  100.00000   90.00000   90.00000   90.00000
LATT -1
SFAC C  
C      1  0.4610340000000  0.4998780000000  0.5287570000000 1.0
C      1  0.4998780000000  0.5287570000000  0.4610340000000 1.0
C      1  0.5287570000000  0.4610340000000  0.4998780000000 1.0
C      1  0.5389660000000  0.4998780000000  0.4712430000000 1.0
C      1  0.5389660000000  0.5001220000000  0.5287570000000 1.0
C      1  0.4610340000000  0.5001230000000  0.4712430000000 1.0
C      1  0.5001220000000  0.5287570000000  0.5389660000000 1.0
C      1  0.5001220000000  0.4712430000000  0.4610340000000 1.0
C      1  0.4998770000000  0.4712430000000  0.5389660000000 1.0
C      1  0.4712420000000  0.4610340000000  0.5001220000000 1.0
C      1  0.4712430000000  0.5389660000000  0.4998780000000 1.0
C      1  0.5287580000000  0.5389660000000  0.5001220000000 1.0
C      1  0.5287570000000  0.4998780000000  0.4610340000000 1.0
C      1  0.4610340000000  0.5287580000000  0.4998780000000 1.0
C      1  0.4998770000000  0.4610340000000  0.5287570000000 1.0
C      1  0.4712430000000  0.4998780000000  0.5389660000000 1.0
C      1  0.5287570000000  0.5001220000000  0.5389660000000 1.0
C      1  0.4712430000000  0.5001230000000  0.4610340000000 1.0
C      1  0.5389660000000  0.5287570000000  0.5001220000000 1.0
C      1  0.4610340000000  0.4712430000000  0.5001220000000 1.0
C      1  0.5389660000000  0.4712420000000  0.4998780000000 1.0
C      1  0.5001220000000  0.4610340000000  0.4712430000000 1.0
C      1  0.4998780000000  0.5389660000000  0.4712430000000 1.0
C      1  0.5001230000000  0.5389660000000  0.5287570000000 1.0
C      1  0.4868300000000  0.4574010000000  0.5524920000000 1.0
C      1  0.4574020000000  0.5524920000000  0.4868310000000 1.0
C      1  0.5524920000000  0.4868300000000  0.4574020000000 1.0
C      1  0.5131690000000  0.4574020000000  0.4475080000000 1.0
C      1  0.5131700000000  0.5425980000000  0.5524920000000 1.0
C      1  0.4868310000000  0.5425990000000  0.4475080000000 1.0
C      1  0.5425990000000  0.5524910000000  0.5131700000000 1.0
C      1  0.5425980000000  0.4475080000000  0.4868300000000 1.0
C      1  0.4574010000000  0.4475090000000  0.5131690000000 1.0
C      1  0.4475080000000  0.4868310000000  0.5425980000000 1.0
C      1  0.4475080000000  0.5131700000000  0.4574010000000 1.0
C      1  0.5524920000000  0.5131690000000  0.5425990000000 1.0
C      1  0.5524910000000  0.4574010000000  0.4868300000000 1.0
C      1  0.4868310000000  0.5524920000000  0.4574020000000 1.0
C      1  0.4574010000000  0.4868310000000  0.5524920000000 1.0
C      1  0.4475080000000  0.4574020000000  0.5131690000000 1.0
C      1  0.5524920000000  0.5425980000000  0.5131700000000 1.0
C      1  0.4475090000000  0.5425990000000  0.4868310000000 1.0
C      1  0.5131700000000  0.5524910000000  0.5425990000000 1.0
C      1  0.4868300000000  0.4475080000000  0.5425980000000 1.0
C      1  0.5131690000000  0.4475080000000  0.4574010000000 1.0
C      1  0.5425980000000  0.4868300000000  0.4475080000000 1.0
C      1  0.4574020000000  0.5131700000000  0.4475080000000 1.0
C      1  0.5425990000000  0.5131690000000  0.5524920000000 1.0
C      1  0.4758580000000  0.5139440000000  0.4638390000000 1.0
C      1  0.5139430000000  0.4638390000000  0.4758580000000 1.0
C      1  0.4638380000000  0.4758580000000  0.5139430000000 1.0
C      1  0.5241420000000  0.5139430000000  0.5361610000000 1.0
C      1  0.5241420000000  0.4860560000000  0.4638390000000 1.0
C      1  0.4758580000000  0.4860570000000  0.5361610000000 1.0
C      1  0.4860560000000  0.4638390000000  0.5241420000000 1.0
C      1  0.4860570000000  0.5361620000000  0.4758580000000 1.0
C      1  0.5139440000000  0.5361610000000  0.5241420000000 1.0
C      1  0.5361610000000  0.4758580000000  0.4860560000000 1.0
C      1  0.5361620000000  0.5241420000000  0.5139440000000 1.0
C      1  0.4638390000000  0.5241420000000  0.4860560000000 1.0
C      1  0.4638390000000  0.5139440000000  0.4758580000000 1.0
C      1  0.4758580000000  0.4638390000000  0.5139430000000 1.0
C      1  0.5139430000000  0.4758580000000  0.4638390000000 1.0
C      1  0.5361610000000  0.5139430000000  0.5241420000000 1.0
C      1  0.4638390000000  0.4860570000000  0.5241420000000 1.0
C      1  0.5361610000000  0.4860560000000  0.4758580000000 1.0
C      1  0.5241420000000  0.4638380000000  0.4860560000000 1.0
C      1  0.4758580000000  0.5361620000000  0.4860560000000 1.0
C      1  0.5241420000000  0.5361610000000  0.5139440000000 1.0
C      1  0.4860560000000  0.4758580000000  0.5361610000000 1.0
C      1  0.5139440000000  0.5241420000000  0.5361610000000 1.0
C      1  0.4860570000000  0.5241420000000  0.4638390000000 1.0
C      1  0.5357850000000  0.5534300000000  0.4998840000000 1.0
C      1  0.5534300000000  0.4998830000000  0.5357850000000 1.0
C      1  0.4998840000000  0.5357850000000  0.5534300000000 1.0
C      1  0.4642150000000  0.5534300000000  0.5001170000000 1.0
C      1  0.4642150000000  0.4465700000000  0.4998830000000 1.0
C      1  0.5357850000000  0.4465700000000  0.5001160000000 1.0
C      1  0.4465700000000  0.4998840000000  0.4642150000000 1.0
C      1  0.4465700000000  0.5001170000000  0.5357850000000 1.0
C      1  0.5534300000000  0.5001160000000  0.4642150000000 1.0
C      1  0.5001170000000  0.5357850000000  0.4465700000000 1.0
C      1  0.5001160000000  0.4642150000000  0.5534300000000 1.0
C      1  0.4998830000000  0.4642150000000  0.4465700000000 1.0
C      1  0.4998840000000  0.5534300000000  0.5357850000000 1.0
C      1  0.5357850000000  0.4998830000000  0.5534300000000 1.0
C      1  0.5534300000000  0.5357850000000  0.4998840000000 1.0
C      1  0.5001170000000  0.5534300000000  0.4642150000000 1.0
C      1  0.4998830000000  0.4465700000000  0.4642150000000 1.0
C      1  0.5001160000000  0.4465700000000  0.5357850000000 1.0
C      1  0.4642150000000  0.4998840000000  0.4465700000000 1.0
C      1  0.5357850000000  0.5001160000000  0.4465700000000 1.0
C      1  0.4642150000000  0.5001170000000  0.5534300000000 1.0
C      1  0.4465700000000  0.5357850000000  0.5001160000000 1.0
C      1  0.5534300000000  0.4642150000000  0.5001160000000 1.0
C      1  0.4465700000000  0.4642150000000  0.4998830000000 1.0
C      1  0.4754730000000  0.4853540000000  0.4330510000000 1.0
C      1  0.4853530000000  0.4330510000000  0.4754730000000 1.0
C      1  0.4330510000000  0.4754740000000  0.4853530000000 1.0
C      1  0.5245270000000  0.4853530000000  0.5669490000000 1.0
C      1  0.5245270000000  0.5146470000000  0.4330510000000 1.0
C      1  0.4754730000000  0.5146470000000  0.5669490000000 1.0
C      1  0.5146460000000  0.4330510000000  0.5245270000000 1.0
C      1  0.5146470000000  0.5669490000000  0.4754730000000 1.0
C      1  0.4853540000000  0.5669490000000  0.5245270000000 1.0
C      1  0.5669490000000  0.4754720000000  0.5146470000000 1.0
C      1  0.5669490000000  0.5245270000000  0.4853530000000 1.0
C      1  0.4330510000000  0.5245280000000  0.5146470000000 1.0
C      1  0.4330510000000  0.4853540000000  0.4754730000000 1.0
C      1  0.4754720000000  0.4330510000000  0.4853530000000 1.0
C      1  0.4853530000000  0.4754730000000  0.4330510000000 1.0
C      1  0.5669490000000  0.4853530000000  0.5245270000000 1.0
C      1  0.4330510000000  0.5146470000000  0.5245270000000 1.0
C      1  0.5669490000000  0.5146460000000  0.4754730000000 1.0
C      1  0.5245270000000  0.4330510000000  0.5146470000000 1.0
C      1  0.4754730000000  0.5669490000000  0.5146470000000 1.0
C      1  0.5245280000000  0.5669490000000  0.4853540000000 1.0
C      1  0.5146460000000  0.4754730000000  0.5669490000000 1.0
C      1  0.4853530000000  0.5245270000000  0.5669490000000 1.0
C      1  0.5146470000000  0.5245270000000  0.4330510000000 1.0
C      1  0.5519170000000  0.5422230000000  0.4855840000000 1.0
C      1  0.5422230000000  0.4855840000000  0.5519160000000 1.0
C      1  0.4855840000000  0.5519160000000  0.5422230000000 1.0
C      1  0.4480840000000  0.5422240000000  0.5144160000000 1.0
C      1  0.4480830000000  0.4577770000000  0.4855840000000 1.0
C      1  0.5519160000000  0.4577760000000  0.5144160000000 1.0
C      1  0.4577770000000  0.4855850000000  0.4480840000000 1.0
C      1  0.4577770000000  0.5144160000000  0.5519160000000 1.0
C      1  0.5422230000000  0.5144160000000  0.4480840000000 1.0
C      1  0.5144160000000  0.5519160000000  0.4577770000000 1.0
C      1  0.5144150000000  0.4480830000000  0.5422230000000 1.0
C      1  0.4855840000000  0.4480840000000  0.4577770000000 1.0
C      1  0.4855840000000  0.5422230000000  0.5519160000000 1.0
C      1  0.5519160000000  0.4855840000000  0.5422230000000 1.0
C      1  0.5422240000000  0.5519160000000  0.4855840000000 1.0
C      1  0.5144160000000  0.5422230000000  0.4480840000000 1.0
C      1  0.4855840000000  0.4577770000000  0.4480840000000 1.0
C      1  0.5144160000000  0.4577760000000  0.5519160000000 1.0
C      1  0.4480840000000  0.4855850000000  0.4577770000000 1.0
C      1  0.5519170000000  0.5144160000000  0.4577770000000 1.0
C      1  0.4480840000000  0.5144160000000  0.5422230000000 1.0
C      1  0.4577770000000  0.5519170000000  0.5144160000000 1.0
C      1  0.5422230000000  0.4480830000000  0.5144160000000 1.0
C      1  0.4577760000000  0.4480840000000  0.4855840000000 1.0
C      1  0.4661360000000  0.4543820000000  0.5234140000000 1.0
C      1  0.4543820000000  0.5234150000000  0.4661360000000 1.0
C      1  0.5234140000000  0.4661360000000  0.4543820000000 1.0
C      1  0.5338640000000  0.4543820000000  0.4765860000000 1.0
C      1  0.5338640000000  0.5456180000000  0.5234140000000 1.0
C      1  0.4661360000000  0.5456190000000  0.4765860000000 1.0
C      1  0.5456180000000  0.5234140000000  0.5338640000000 1.0
C      1  0.5456180000000  0.4765860000000  0.4661360000000 1.0
C      1  0.4543820000000  0.4765860000000  0.5338640000000 1.0
C      1  0.4765860000000  0.4661360000000  0.5456180000000 1.0
C      1  0.4765860000000  0.5338640000000  0.4543820000000 1.0
C      1  0.5234140000000  0.5338640000000  0.5456180000000 1.0
C      1  0.5234140000000  0.4543820000000  0.4661360000000 1.0
C      1  0.4661360000000  0.5234150000000  0.4543820000000 1.0
C      1  0.4543820000000  0.4661360000000  0.5234140000000 1.0
C      1  0.4765850000000  0.4543820000000  0.5338640000000 1.0
C      1  0.5234140000000  0.5456180000000  0.5338640000000 1.0
C      1  0.4765860000000  0.5456180000000  0.4661360000000 1.0
C      1  0.5338640000000  0.5234140000000  0.5456180000000 1.0
C      1  0.4661360000000  0.4765860000000  0.5456180000000 1.0
C      1  0.5338640000000  0.4765860000000  0.4543820000000 1.0
C      1  0.5456180000000  0.4661360000000  0.4765860000000 1.0
C      1  0.4543820000000  0.5338640000000  0.4765860000000 1.0
C      1  0.5456180000000  0.5338640000000  0.5234140000000 1.0
C      1  0.5636040000000  0.4987080000000  0.5258290000000 1.0
C      1  0.4987090000000  0.5258290000000  0.5636040000000 1.0
C      1  0.5258300000000  0.5636040000000  0.4987090000000 1.0
C      1  0.4363960000000  0.4987090000000  0.4741710000000 1.0
C      1  0.4363960000000  0.5012920000000  0.5258290000000 1.0
C      1  0.5636040000000  0.5012910000000  0.4741710000000 1.0
C      1  0.5012920000000  0.5258300000000  0.4363960000000 1.0
C      1  0.5012910000000  0.4741700000000  0.5636040000000 1.0
C      1  0.4987080000000  0.4741710000000  0.4363960000000 1.0
C      1  0.4741710000000  0.5636040000000  0.5012920000000 1.0
C      1  0.4741700000000  0.4363960000000  0.4987080000000 1.0
C      1  0.5258290000000  0.4363960000000  0.5012910000000 1.0
C      1  0.5258290000000  0.4987080000000  0.5636040000000 1.0
C      1  0.5636040000000  0.5258290000000  0.4987090000000 1.0
C      1  0.4987090000000  0.5636040000000  0.5258300000000 1.0
C      1  0.4741710000000  0.4987090000000  0.4363960000000 1.0
C      1  0.5258290000000  0.5012910000000  0.4363960000000 1.0
C      1  0.4741710000000  0.5012910000000  0.5636040000000 1.0
C      1  0.4363960000000  0.5258300000000  0.5012910000000 1.0
C      1  0.5636040000000  0.4741700000000  0.5012910000000 1.0
C      1  0.4363960000000  0.4741710000000  0.4987080000000 1.0
C      1  0.5012920000000  0.5636040000000  0.4741710000000 1.0
C      1  0.4987080000000  0.4363960000000  0.4741700000000 1.0
C      1  0.5012910000000  0.4363960000000  0.5258290000000 1.0
C      1  0.4824670000000  0.5661460000000  0.4910590000000 1.0
C      1  0.5661460000000  0.4910590000000  0.4824660000000 1.0
C      1  0.4910590000000  0.4824660000000  0.5661460000000 1.0
C      1  0.5175340000000  0.5661460000000  0.5089410000000 1.0
C      1  0.5175330000000  0.4338540000000  0.4910590000000 1.0
C      1  0.4824660000000  0.4338540000000  0.5089410000000 1.0
C      1  0.4338540000000  0.4910600000000  0.5175330000000 1.0
C      1  0.4338540000000  0.5089410000000  0.4824660000000 1.0
C      1  0.5661460000000  0.5089400000000  0.5175340000000 1.0
C      1  0.5089410000000  0.4824660000000  0.4338540000000 1.0
C      1  0.5089410000000  0.5175330000000  0.5661460000000 1.0
C      1  0.4910590000000  0.5175340000000  0.4338540000000 1.0
C      1  0.4910600000000  0.5661460000000  0.4824670000000 1.0
C      1  0.4824660000000  0.4910590000000  0.5661460000000 1.0
C      1  0.5661460000000  0.4824660000000  0.4910590000000 1.0
C      1  0.5089410000000  0.5661460000000  0.5175340000000 1.0
C      1  0.4910590000000  0.4338540000000  0.5175330000000 1.0
C      1  0.5089400000000  0.4338540000000  0.4824660000000 1.0
C      1  0.5175340000000  0.4910590000000  0.4338540000000 1.0
C      1  0.4824670000000  0.5089410000000  0.4338540000000 1.0
C      1  0.5175340000000  0.5089400000000  0.5661460000000 1.0
C      1  0.4338540000000  0.4824670000000  0.5089410000000 1.0
C      1  0.5661460000000  0.5175330000000  0.5089410000000 1.0
C      1  0.4338540000000  0.5175340000000  0.4910590000000 1.0
C      1  0.4419430000000  0.5333200000000  0.5231820000000 1.0
C      1  0.5333200000000  0.5231810000000  0.4419430000000 1.0
C      1  0.5231810000000  0.4419430000000  0.5333190000000 1.0
C      1  0.5580570000000  0.5333190000000  0.4768190000000 1.0
C      1  0.5580570000000  0.4666800000000  0.5231820000000 1.0
C      1  0.4419430000000  0.4666810000000  0.4768180000000 1.0
C      1  0.4666810000000  0.5231820000000  0.5580570000000 1.0
C      1  0.4666810000000  0.4768190000000  0.4419430000000 1.0
C      1  0.5333190000000  0.4768180000000  0.5580570000000 1.0
C      1  0.4768180000000  0.4419430000000  0.4666800000000 1.0
C      1  0.4768190000000  0.5580570000000  0.5333190000000 1.0
C      1  0.5231820000000  0.5580570000000  0.4666810000000 1.0
C      1  0.5231820000000  0.5333190000000  0.4419430000000 1.0
C      1  0.4419430000000  0.5231820000000  0.5333190000000 1.0
C      1  0.5333190000000  0.4419430000000  0.5231810000000 1.0
C      1  0.4768190000000  0.5333190000000  0.5580570000000 1.0
C      1  0.5231810000000  0.4666800000000  0.5580570000000 1.0
C      1  0.4768180000000  0.4666810000000  0.4419430000000 1.0
C      1  0.5580570000000  0.5231810000000  0.4666810000000 1.0
C      1  0.4419430000000  0.4768190000000  0.4666810000000 1.0
C      1  0.5580570000000  0.4768180000000  0.5333190000000 1.0
C      1  0.4666800000000  0.4419430000000  0.4768180000000 1.0
C      1  0.5333200000000  0.5580570000000  0.4768190000000 1.0
C      1  0.4666810000000  0.5580570000000  0.5231820000000 1.0
END
