TITL C-112676-196-188 -1.72045390748003 1000000 -1617.30105245839 0 0 240 (Td) n - 1
REM
REM in /home/chem/mssmkc/work/GAP20/Larger-Clusters/Only-C240-new-series
REM
REM
REM
REM
REM
REM ./C.cell (c58642faaf353743302a0f2d8ff18644)
REM
REM compiler GCC version 8.3.0
REM options -cpp -mtune=generic -march=x86-64 -g -O0
REM seed 341378222 1187514848 200297700 -1088296480 -1339373581 1291058333 1314124871 -2107741715 -1561741651 -673152122 -297071364 605837427 2104685872 2046536090 -1418610416 1741483690 -392851207 600936147 -1266826322 -1776444032 -2097626174 -1912275647 -1139776160 1475347818 2061478514 -705204055 -1146096179 -1551562400 -1987376426 1544357733 2135746404 1659815841 2125643219
REM
CELL 1.54180  100.00000  100.00000  100.00000   90.00000   90.00000   90.00000
LATT -1
SFAC C  
C      1  0.4495860000000  0.5590020000000  0.4905670000000 1.0
C      1  0.4905630000000  0.4495830000000  0.5589980000000 1.0
C      1  0.5589940000000  0.4905590000000  0.4495780000000 1.0
C      1  0.4495960000000  0.4409930000000  0.5094520000000 1.0
C      1  0.5504100000000  0.4410010000000  0.4905320000000 1.0
C      1  0.5504080000000  0.5590040000000  0.5094490000000 1.0
C      1  0.4905360000000  0.5504160000000  0.4410060000000 1.0
C      1  0.5094590000000  0.5504020000000  0.5590080000000 1.0
C      1  0.5094420000000  0.4495990000000  0.4409890000000 1.0
C      1  0.5590120000000  0.5094470000000  0.5503990000000 1.0
C      1  0.4409870000000  0.5094540000000  0.4496040000000 1.0
C      1  0.4410070000000  0.4905400000000  0.5504190000000 1.0
C      1  0.4496030000000  0.4905390000000  0.5590110000000 1.0
C      1  0.4905370000000  0.5590090000000  0.4496010000000 1.0
C      1  0.5590040000000  0.4495950000000  0.4905320000000 1.0
C      1  0.4495790000000  0.5094560000000  0.4410080000000 1.0
C      1  0.5503980000000  0.4905600000000  0.4409860000000 1.0
C      1  0.5504200000000  0.5094450000000  0.5589940000000 1.0
C      1  0.4905620000000  0.4409900000000  0.5504030000000 1.0
C      1  0.5094570000000  0.5589970000000  0.5504150000000 1.0
C      1  0.5094440000000  0.4410040000000  0.4495810000000 1.0
C      1  0.5590020000000  0.5504110000000  0.5094460000000 1.0
C      1  0.4410010000000  0.4495870000000  0.5094550000000 1.0
C      1  0.4409930000000  0.5504070000000  0.4905680000000 1.0
C      1  0.5155110000000  0.5515080000000  0.4586020000000 1.0
C      1  0.4586070000000  0.5155120000000  0.5515110000000 1.0
C      1  0.5515070000000  0.4585980000000  0.5155060000000 1.0
C      1  0.5155320000000  0.4484940000000  0.5413920000000 1.0
C      1  0.4844730000000  0.4485030000000  0.4585940000000 1.0
C      1  0.4844840000000  0.5514950000000  0.5414120000000 1.0
C      1  0.4585890000000  0.4844830000000  0.4485040000000 1.0
C      1  0.5414130000000  0.4844740000000  0.5514910000000 1.0
C      1  0.5413920000000  0.5155300000000  0.4484930000000 1.0
C      1  0.5514960000000  0.5414070000000  0.4844740000000 1.0
C      1  0.4484990000000  0.5413980000000  0.5155370000000 1.0
C      1  0.4484980000000  0.4585970000000  0.4844830000000 1.0
C      1  0.5155330000000  0.4585920000000  0.5514930000000 1.0
C      1  0.4585980000000  0.5514970000000  0.5155360000000 1.0
C      1  0.5514930000000  0.5155300000000  0.4585900000000 1.0
C      1  0.5155090000000  0.5414100000000  0.4485010000000 1.0
C      1  0.4844710000000  0.4586040000000  0.4484960000000 1.0
C      1  0.4844860000000  0.5413950000000  0.5515100000000 1.0
C      1  0.4585970000000  0.4484990000000  0.4844800000000 1.0
C      1  0.5413970000000  0.5515060000000  0.4844780000000 1.0
C      1  0.5414080000000  0.4484990000000  0.5155070000000 1.0
C      1  0.5515100000000  0.4844760000000  0.5413900000000 1.0
C      1  0.4485060000000  0.5155130000000  0.5414140000000 1.0
C      1  0.4484910000000  0.4844810000000  0.4586060000000 1.0
C      1  0.5559150000000  0.5180160000000  0.5287390000000 1.0
C      1  0.5287480000000  0.5559090000000  0.5180190000000 1.0
C      1  0.5180260000000  0.5287410000000  0.5559110000000 1.0
C      1  0.5559060000000  0.4819900000000  0.4712390000000 1.0
C      1  0.4440960000000  0.4819770000000  0.5287560000000 1.0
C      1  0.4440830000000  0.5180180000000  0.4712660000000 1.0
C      1  0.5287470000000  0.4440930000000  0.4819700000000 1.0
C      1  0.4712590000000  0.4440860000000  0.5180150000000 1.0
C      1  0.4712460000000  0.5559110000000  0.4819960000000 1.0
C      1  0.5180070000000  0.4712610000000  0.4440820000000 1.0
C      1  0.4819960000000  0.4712440000000  0.5559100000000 1.0
C      1  0.4819710000000  0.5287540000000  0.4440970000000 1.0
C      1  0.5559120000000  0.5287480000000  0.5180100000000 1.0
C      1  0.5287570000000  0.5180110000000  0.5559070000000 1.0
C      1  0.5180190000000  0.5559080000000  0.5287510000000 1.0
C      1  0.5559080000000  0.4712580000000  0.4819690000000 1.0
C      1  0.4440850000000  0.5287470000000  0.4819980000000 1.0
C      1  0.4440940000000  0.4712470000000  0.5180230000000 1.0
C      1  0.5287380000000  0.4819920000000  0.4440820000000 1.0
C      1  0.4712410000000  0.5180230000000  0.4440970000000 1.0
C      1  0.4712640000000  0.4819740000000  0.5559140000000 1.0
C      1  0.5180140000000  0.4440940000000  0.4712420000000 1.0
C      1  0.4819750000000  0.5559130000000  0.4712640000000 1.0
C      1  0.4819920000000  0.4440850000000  0.5287430000000 1.0
C      1  0.4388860000000  0.4637940000000  0.5072470000000 1.0
C      1  0.5072370000000  0.4388880000000  0.4637880000000 1.0
C      1  0.4637860000000  0.5072470000000  0.4388910000000 1.0
C      1  0.4388800000000  0.5362000000000  0.4927760000000 1.0
C      1  0.5611160000000  0.5362040000000  0.5072340000000 1.0
C      1  0.5611170000000  0.4638020000000  0.4927430000000 1.0
C      1  0.5072440000000  0.5611120000000  0.5362090000000 1.0
C      1  0.4927500000000  0.5611210000000  0.4638080000000 1.0
C      1  0.4927700000000  0.4388780000000  0.5361950000000 1.0
C      1  0.4638100000000  0.4927500000000  0.5611230000000 1.0
C      1  0.5361910000000  0.4927700000000  0.4388750000000 1.0
C      1  0.5362130000000  0.5072340000000  0.5611110000000 1.0
C      1  0.4388760000000  0.5072420000000  0.4638110000000 1.0
C      1  0.5072310000000  0.4638070000000  0.4388770000000 1.0
C      1  0.4638020000000  0.4388800000000  0.5072390000000 1.0
C      1  0.4388900000000  0.4927520000000  0.5362130000000 1.0
C      1  0.5611240000000  0.5072390000000  0.5361910000000 1.0
C      1  0.5611100000000  0.4927680000000  0.4637850000000 1.0
C      1  0.5072500000000  0.5361940000000  0.5611200000000 1.0
C      1  0.4927730000000  0.4637890000000  0.5611140000000 1.0
C      1  0.4927460000000  0.5362100000000  0.4388890000000 1.0
C      1  0.4637930000000  0.5611160000000  0.4927750000000 1.0
C      1  0.5362040000000  0.4388860000000  0.4927450000000 1.0
C      1  0.5362000000000  0.5611180000000  0.5072420000000 1.0
C      1  0.4396320000000  0.5399980000000  0.5502750000000 1.0
C      1  0.5502690000000  0.4396210000000  0.5399900000000 1.0
C      1  0.5399940000000  0.5502680000000  0.4396230000000 1.0
C      1  0.4396170000000  0.4599960000000  0.4497480000000 1.0
C      1  0.5603880000000  0.4599880000000  0.5502410000000 1.0
C      1  0.5603640000000  0.5400180000000  0.4497360000000 1.0
C      1  0.5502480000000  0.5603840000000  0.4599900000000 1.0
C      1  0.4497460000000  0.5603680000000  0.5400260000000 1.0
C      1  0.4497370000000  0.4396270000000  0.4599940000000 1.0
C      1  0.5400220000000  0.4497360000000  0.5603620000000 1.0
C      1  0.4599830000000  0.4497480000000  0.4396250000000 1.0
C      1  0.4600010000000  0.5502480000000  0.5603900000000 1.0
C      1  0.4396290000000  0.5502500000000  0.5400260000000 1.0
C      1  0.5502450000000  0.5400190000000  0.4396200000000 1.0
C      1  0.5400210000000  0.4396190000000  0.5502430000000 1.0
C      1  0.4396190000000  0.4497440000000  0.4599970000000 1.0
C      1  0.5603660000000  0.5502670000000  0.4599870000000 1.0
C      1  0.5603860000000  0.4497390000000  0.5399900000000 1.0
C      1  0.5502720000000  0.4599870000000  0.5603610000000 1.0
C      1  0.4497510000000  0.5399970000000  0.5603910000000 1.0
C      1  0.4497320000000  0.4599980000000  0.4396280000000 1.0
C      1  0.5399950000000  0.5603850000000  0.4497420000000 1.0
C      1  0.4599860000000  0.4396290000000  0.4497410000000 1.0
C      1  0.4599990000000  0.5603670000000  0.5502740000000 1.0
C      1  0.5588390000000  0.4931340000000  0.5331230000000 1.0
C      1  0.5331310000000  0.5588350000000  0.4931370000000 1.0
C      1  0.4931450000000  0.5331270000000  0.5588380000000 1.0
C      1  0.5588250000000  0.5068720000000  0.4668550000000 1.0
C      1  0.4411740000000  0.5068580000000  0.5331470000000 1.0
C      1  0.4411620000000  0.4931360000000  0.4668750000000 1.0
C      1  0.5331390000000  0.4411690000000  0.5068510000000 1.0
C      1  0.4668670000000  0.4411670000000  0.4931340000000 1.0
C      1  0.4668630000000  0.5588300000000  0.5068790000000 1.0
C      1  0.4931250000000  0.4668720000000  0.4411650000000 1.0
C      1  0.5068780000000  0.4668570000000  0.5588260000000 1.0
C      1  0.5068520000000  0.5331430000000  0.4411710000000 1.0
C      1  0.5588290000000  0.5331390000000  0.4931280000000 1.0
C      1  0.5331470000000  0.4931290000000  0.5588250000000 1.0
C      1  0.4931380000000  0.5588270000000  0.5331440000000 1.0
C      1  0.5588350000000  0.4668670000000  0.5068490000000 1.0
C      1  0.4411680000000  0.5331310000000  0.5068810000000 1.0
C      1  0.4411680000000  0.4668630000000  0.4931420000000 1.0
C      1  0.5331230000000  0.5068750000000  0.4411620000000 1.0
C      1  0.4668540000000  0.4931410000000  0.4411730000000 1.0
C      1  0.4668760000000  0.5068550000000  0.5588390000000 1.0
C      1  0.4931320000000  0.4411720000000  0.4668580000000 1.0
C      1  0.5068560000000  0.5588370000000  0.4668710000000 1.0
C      1  0.5068740000000  0.4411640000000  0.5331260000000 1.0
C      1  0.5224410000000  0.4672980000000  0.4576540000000 1.0
C      1  0.4576550000000  0.5224500000000  0.4673030000000 1.0
C      1  0.4672980000000  0.4576580000000  0.5224480000000 1.0
C      1  0.5224540000000  0.5327040000000  0.5423370000000 1.0
C      1  0.4775430000000  0.5327130000000  0.4576720000000 1.0
C      1  0.4775620000000  0.4672850000000  0.5423370000000 1.0
C      1  0.4576700000000  0.4775460000000  0.5327140000000 1.0
C      1  0.5423320000000  0.4775590000000  0.4672800000000 1.0
C      1  0.5423420000000  0.5224450000000  0.5327030000000 1.0
C      1  0.4672850000000  0.5423380000000  0.4775640000000 1.0
C      1  0.5327110000000  0.5423360000000  0.5224470000000 1.0
C      1  0.5327060000000  0.4576680000000  0.4775410000000 1.0
C      1  0.5224430000000  0.4576680000000  0.4672810000000 1.0
C      1  0.4576690000000  0.4672860000000  0.5224510000000 1.0
C      1  0.4672820000000  0.5224510000000  0.4576720000000 1.0
C      1  0.5224520000000  0.5423340000000  0.5327100000000 1.0
C      1  0.4775610000000  0.4576570000000  0.5327070000000 1.0
C      1  0.4775440000000  0.5423400000000  0.4673010000000 1.0
C      1  0.4576570000000  0.5327090000000  0.4775650000000 1.0
C      1  0.5423340000000  0.4672970000000  0.4775400000000 1.0
C      1  0.5423400000000  0.5327080000000  0.5224440000000 1.0
C      1  0.4673010000000  0.4775450000000  0.5423400000000 1.0
C      1  0.5327160000000  0.5224430000000  0.5423340000000 1.0
C      1  0.5327020000000  0.4775600000000  0.4576540000000 1.0
C      1  0.4343110000000  0.4776130000000  0.4876380000000 1.0
C      1  0.4876270000000  0.4343150000000  0.4776080000000 1.0
C      1  0.4776030000000  0.4876360000000  0.4343150000000 1.0
C      1  0.4343130000000  0.5223800000000  0.5123880000000 1.0
C      1  0.5656840000000  0.5223900000000  0.4876180000000 1.0
C      1  0.5656910000000  0.4776160000000  0.5123560000000 1.0
C      1  0.4876290000000  0.5656840000000  0.5223960000000 1.0
C      1  0.5123640000000  0.5656910000000  0.4776210000000 1.0
C      1  0.5123800000000  0.4343100000000  0.5223740000000 1.0
C      1  0.4776270000000  0.5123620000000  0.5656940000000 1.0
C      1  0.5223720000000  0.5123820000000  0.4343100000000 1.0
C      1  0.5223980000000  0.4876200000000  0.5656820000000 1.0
C      1  0.4343090000000  0.4876280000000  0.4776260000000 1.0
C      1  0.4876170000000  0.4776230000000  0.4343120000000 1.0
C      1  0.4776160000000  0.4343130000000  0.4876240000000 1.0
C      1  0.4343160000000  0.5123660000000  0.5223990000000 1.0
C      1  0.5656930000000  0.4876280000000  0.5223710000000 1.0
C      1  0.5656830000000  0.5123780000000  0.4776040000000 1.0
C      1  0.4876400000000  0.5223760000000  0.5656930000000 1.0
C      1  0.5123860000000  0.4776070000000  0.5656820000000 1.0
C      1  0.5123580000000  0.5223950000000  0.4343130000000 1.0
C      1  0.4776140000000  0.5656850000000  0.5123850000000 1.0
C      1  0.5223910000000  0.4343120000000  0.5123590000000 1.0
C      1  0.5223790000000  0.5656910000000  0.4876330000000 1.0
C      1  0.4915970000000  0.4206780000000  0.4822070000000 1.0
C      1  0.4822010000000  0.4916060000000  0.4206780000000 1.0
C      1  0.4206750000000  0.4822130000000  0.4916090000000 1.0
C      1  0.4915960000000  0.5793210000000  0.5177960000000 1.0
C      1  0.5083960000000  0.5793270000000  0.4822250000000 1.0
C      1  0.5084110000000  0.4206740000000  0.5177720000000 1.0
C      1  0.4822310000000  0.5083920000000  0.5793280000000 1.0
C      1  0.5177680000000  0.5084150000000  0.4206740000000 1.0
C      1  0.5177990000000  0.4915870000000  0.5793190000000 1.0
C      1  0.4206770000000  0.5177790000000  0.5084210000000 1.0
C      1  0.5793210000000  0.5177890000000  0.4915830000000 1.0
C      1  0.5793260000000  0.4822190000000  0.5083860000000 1.0
C      1  0.4915820000000  0.4822260000000  0.4206750000000 1.0
C      1  0.4822190000000  0.4206760000000  0.4915890000000 1.0
C      1  0.4206730000000  0.4915950000000  0.4822300000000 1.0
C      1  0.4916110000000  0.5177730000000  0.5793280000000 1.0
C      1  0.5084200000000  0.4822060000000  0.5793200000000 1.0
C      1  0.5083880000000  0.5177950000000  0.4206770000000 1.0
C      1  0.4822140000000  0.5793220000000  0.5084180000000 1.0
C      1  0.5177890000000  0.4206760000000  0.5083900000000 1.0
C      1  0.5177780000000  0.5793260000000  0.4916040000000 1.0
C      1  0.4206790000000  0.5083970000000  0.5178000000000 1.0
C      1  0.5793280000000  0.4915980000000  0.5177670000000 1.0
C      1  0.5793200000000  0.5084100000000  0.4822020000000 1.0
C      1  0.4691910000000  0.5523330000000  0.5411830000000 1.0
C      1  0.5411810000000  0.4691810000000  0.5523280000000 1.0
C      1  0.5523320000000  0.5411760000000  0.4691810000000 1.0
C      1  0.4691800000000  0.4476640000000  0.4588290000000 1.0
C      1  0.5308250000000  0.4476560000000  0.5411570000000 1.0
C      1  0.5308040000000  0.5523470000000  0.4588310000000 1.0
C      1  0.5411580000000  0.5308240000000  0.4476560000000 1.0
C      1  0.4588390000000  0.5308050000000  0.5523520000000 1.0
C      1  0.4588220000000  0.4691900000000  0.4476630000000 1.0
C      1  0.5523480000000  0.4588290000000  0.5307990000000 1.0
C      1  0.4476560000000  0.4588320000000  0.4691900000000 1.0
C      1  0.4476630000000  0.5411630000000  0.5308300000000 1.0
C      1  0.4691930000000  0.5411610000000  0.5523520000000 1.0
C      1  0.5411610000000  0.5523470000000  0.4691850000000 1.0
C      1  0.5523500000000  0.4691830000000  0.5411550000000 1.0
C      1  0.4691780000000  0.4588360000000  0.4476600000000 1.0
C      1  0.5308020000000  0.5411780000000  0.4476590000000 1.0
C      1  0.5308270000000  0.4588250000000  0.5523290000000 1.0
C      1  0.5411780000000  0.4476580000000  0.5308000000000 1.0
C      1  0.4588340000000  0.5523340000000  0.5308290000000 1.0
C      1  0.4588270000000  0.4476620000000  0.4691860000000 1.0
C      1  0.5523310000000  0.5308230000000  0.4588240000000 1.0
C      1  0.4476530000000  0.4691880000000  0.4588360000000 1.0
C      1  0.4476660000000  0.5308060000000  0.5411840000000 1.0
END
