TITL C-112675-8135-45 -1.12349662409831 1000000 -1667.47412852118 0 0 240 (Th) n - 1
REM
REM in /home/chem/mssmkc/work/GAP20/Larger-Clusters/Only-C240-new-series
REM
REM
REM
REM
REM
REM ./C.cell (2f3fc68bb9f120311d5b08947c2f1929)
REM
REM compiler GCC version 8.3.0
REM options -cpp -mtune=generic -march=x86-64 -g -O0
REM seed 1230284758 -173885955 1844123671 -1614111707 -1282393723 1924204747 427126066 943163561 1024298446 -821234774 -1893833507 454527220 673977794 1780663271 1082957129 1097932975 303128012 954832135 -461618917 -1571471079 1378649585 -624248225 -859557296 -1015497852 -859723133 1366818140 -1728603152 -1264579924 1833893607 1395347027 2075969106 1100314351 -828372677
REM
CELL 1.54180  100.00000  100.00000  100.00000   90.00000   90.00000   90.00000
LATT -1
SFAC C  
C      1  0.5404500000000  0.5536120000000  0.4757100000000 1.0
C      1  0.5536080000000  0.4757260000000  0.5404650000000 1.0
C      1  0.4756990000000  0.5404590000000  0.5536000000000 1.0
C      1  0.4595560000000  0.4463820000000  0.4757140000000 1.0
C      1  0.5404620000000  0.4464010000000  0.5243000000000 1.0
C      1  0.4595320000000  0.5536050000000  0.5242760000000 1.0
C      1  0.4463830000000  0.5242840000000  0.5404460000000 1.0
C      1  0.5536090000000  0.5242920000000  0.4595470000000 1.0
C      1  0.4464000000000  0.4756980000000  0.4595410000000 1.0
C      1  0.5242880000000  0.4595550000000  0.5536170000000 1.0
C      1  0.4757250000000  0.4595330000000  0.4463940000000 1.0
C      1  0.5242880000000  0.5404530000000  0.4463890000000 1.0
C      1  0.5404440000000  0.5536180000000  0.5242860000000 1.0
C      1  0.5536170000000  0.4757160000000  0.4595540000000 1.0
C      1  0.4757120000000  0.5404450000000  0.4463830000000 1.0
C      1  0.4595500000000  0.4463880000000  0.5242900000000 1.0
C      1  0.5404680000000  0.4463950000000  0.4757240000000 1.0
C      1  0.4595380000000  0.5535990000000  0.4757000000000 1.0
C      1  0.4463920000000  0.5242740000000  0.4595350000000 1.0
C      1  0.5536000000000  0.5243020000000  0.5404590000000 1.0
C      1  0.4463910000000  0.4757080000000  0.5404530000000 1.0
C      1  0.5243010000000  0.4595410000000  0.4464000000000 1.0
C      1  0.4757120000000  0.4595470000000  0.5536110000000 1.0
C      1  0.5242750000000  0.5404670000000  0.5536060000000 1.0
C      1  0.5389980000000  0.4364700000000  0.5137370000000 1.0
C      1  0.4364550000000  0.5137180000000  0.5389800000000 1.0
C      1  0.5137250000000  0.5389830000000  0.4364590000000 1.0
C      1  0.4609990000000  0.5635330000000  0.5137110000000 1.0
C      1  0.5389800000000  0.5635430000000  0.4862730000000 1.0
C      1  0.4610230000000  0.4364540000000  0.4862800000000 1.0
C      1  0.5635360000000  0.4862920000000  0.5389980000000 1.0
C      1  0.4364690000000  0.4862610000000  0.4610050000000 1.0
C      1  0.5635400000000  0.5137290000000  0.4610170000000 1.0
C      1  0.4862900000000  0.4610010000000  0.4364650000000 1.0
C      1  0.5137230000000  0.4610220000000  0.5635450000000 1.0
C      1  0.4862620000000  0.5389950000000  0.5635310000000 1.0
C      1  0.5390010000000  0.4364670000000  0.4862890000000 1.0
C      1  0.4364640000000  0.5137080000000  0.4610020000000 1.0
C      1  0.5137100000000  0.5389990000000  0.5635350000000 1.0
C      1  0.4610020000000  0.5635300000000  0.4862630000000 1.0
C      1  0.5389770000000  0.5635460000000  0.5137200000000 1.0
C      1  0.4610200000000  0.4364570000000  0.5137270000000 1.0
C      1  0.5635450000000  0.4862820000000  0.4610200000000 1.0
C      1  0.4364600000000  0.4862710000000  0.5389830000000 1.0
C      1  0.5635310000000  0.5137390000000  0.5389950000000 1.0
C      1  0.4862750000000  0.4610170000000  0.5635410000000 1.0
C      1  0.5137380000000  0.4610050000000  0.4364690000000 1.0
C      1  0.4862770000000  0.5389790000000  0.4364550000000 1.0
C      1  0.4927520000000  0.5622710000000  0.4735730000000 1.0
C      1  0.5622810000000  0.4735910000000  0.4927700000000 1.0
C      1  0.4735750000000  0.4927630000000  0.5622740000000 1.0
C      1  0.5072540000000  0.4377220000000  0.4735900000000 1.0
C      1  0.4927670000000  0.4377260000000  0.5264250000000 1.0
C      1  0.5072270000000  0.5622800000000  0.5264110000000 1.0
C      1  0.4377210000000  0.5264070000000  0.4927490000000 1.0
C      1  0.5622710000000  0.5264300000000  0.5072450000000 1.0
C      1  0.4377280000000  0.4735720000000  0.5072370000000 1.0
C      1  0.5264100000000  0.5072530000000  0.5622780000000 1.0
C      1  0.4735880000000  0.5072280000000  0.4377200000000 1.0
C      1  0.5264270000000  0.4927560000000  0.4377280000000 1.0
C      1  0.4927460000000  0.5622780000000  0.5264100000000 1.0
C      1  0.5622790000000  0.4735930000000  0.5072510000000 1.0
C      1  0.4735900000000  0.4927470000000  0.4377220000000 1.0
C      1  0.5072480000000  0.4377290000000  0.5264270000000 1.0
C      1  0.4927730000000  0.4377200000000  0.4735890000000 1.0
C      1  0.5072330000000  0.5622740000000  0.4735750000000 1.0
C      1  0.4377190000000  0.5264090000000  0.5072300000000 1.0
C      1  0.5622720000000  0.5264280000000  0.4927630000000 1.0
C      1  0.4377290000000  0.4735700000000  0.4927550000000 1.0
C      1  0.5264250000000  0.5072370000000  0.4377260000000 1.0
C      1  0.4735730000000  0.5072440000000  0.5622720000000 1.0
C      1  0.5264120000000  0.4927720000000  0.5622800000000 1.0
C      1  0.4607390000000  0.4920730000000  0.5556140000000 1.0
C      1  0.4920680000000  0.5556110000000  0.4607360000000 1.0
C      1  0.5556250000000  0.4607520000000  0.4920840000000 1.0
C      1  0.5392480000000  0.5079410000000  0.5556210000000 1.0
C      1  0.4607490000000  0.5079140000000  0.4443770000000 1.0
C      1  0.5392640000000  0.4920720000000  0.4443880000000 1.0
C      1  0.5079410000000  0.4443790000000  0.4607520000000 1.0
C      1  0.4920770000000  0.4443860000000  0.5392620000000 1.0
C      1  0.5079140000000  0.5556240000000  0.5392500000000 1.0
C      1  0.4443770000000  0.5392460000000  0.4920610000000 1.0
C      1  0.5556100000000  0.5392660000000  0.5079290000000 1.0
C      1  0.4443880000000  0.4607360000000  0.5079260000000 1.0
C      1  0.4607520000000  0.4920590000000  0.4443790000000 1.0
C      1  0.4920590000000  0.5556210000000  0.5392480000000 1.0
C      1  0.5556230000000  0.4607540000000  0.5079390000000 1.0
C      1  0.5392610000000  0.5079270000000  0.4443860000000 1.0
C      1  0.4607360000000  0.5079280000000  0.5556120000000 1.0
C      1  0.5392510000000  0.4920860000000  0.5556230000000 1.0
C      1  0.5079320000000  0.4443890000000  0.5392640000000 1.0
C      1  0.4920860000000  0.4443760000000  0.4607500000000 1.0
C      1  0.5079230000000  0.5556140000000  0.4607380000000 1.0
C      1  0.4443750000000  0.5392480000000  0.5079160000000 1.0
C      1  0.5556120000000  0.5392640000000  0.4920740000000 1.0
C      1  0.4443900000000  0.4607340000000  0.4920710000000 1.0
C      1  0.4358900000000  0.4928010000000  0.4734790000000 1.0
C      1  0.4928270000000  0.4734760000000  0.4358890000000 1.0
C      1  0.4734970000000  0.4358810000000  0.4928200000000 1.0
C      1  0.5641160000000  0.5071920000000  0.4734920000000 1.0
C      1  0.4358820000000  0.5071780000000  0.5265060000000 1.0
C      1  0.5641120000000  0.4928290000000  0.5265230000000 1.0
C      1  0.5071880000000  0.5265070000000  0.4358840000000 1.0
C      1  0.4928030000000  0.5265210000000  0.5641100000000 1.0
C      1  0.5071820000000  0.4734950000000  0.5641180000000 1.0
C      1  0.5265050000000  0.5641170000000  0.4928100000000 1.0
C      1  0.4734740000000  0.5641100000000  0.5071740000000 1.0
C      1  0.5265240000000  0.4358910000000  0.5071970000000 1.0
C      1  0.4358840000000  0.4928080000000  0.5265080000000 1.0
C      1  0.4928120000000  0.4734930000000  0.5641160000000 1.0
C      1  0.4734950000000  0.4358830000000  0.5071900000000 1.0
C      1  0.5641100000000  0.5071990000000  0.5265210000000 1.0
C      1  0.4358880000000  0.5071710000000  0.4734770000000 1.0
C      1  0.5641180000000  0.4928220000000  0.4734940000000 1.0
C      1  0.5071730000000  0.5265240000000  0.5641110000000 1.0
C      1  0.4928180000000  0.5265050000000  0.4358820000000 1.0
C      1  0.5071970000000  0.4734790000000  0.4358900000000 1.0
C      1  0.5265030000000  0.5641190000000  0.5071800000000 1.0
C      1  0.4734760000000  0.5641090000000  0.4928030000000 1.0
C      1  0.5265260000000  0.4358900000000  0.4928260000000 1.0
C      1  0.4573600000000  0.5211360000000  0.5501010000000 1.0
C      1  0.5211330000000  0.5501070000000  0.4573650000000 1.0
C      1  0.5501130000000  0.4573800000000  0.5211480000000 1.0
C      1  0.5426290000000  0.4788770000000  0.5501160000000 1.0
C      1  0.4573780000000  0.4788500000000  0.4498890000000 1.0
C      1  0.5426330000000  0.5211370000000  0.4498940000000 1.0
C      1  0.4788770000000  0.4498830000000  0.4573730000000 1.0
C      1  0.5211400000000  0.4499000000000  0.5426400000000 1.0
C      1  0.4788500000000  0.5501100000000  0.5426220000000 1.0
C      1  0.4498820000000  0.5426250000000  0.5211250000000 1.0
C      1  0.5501040000000  0.5426370000000  0.4788640000000 1.0
C      1  0.4499010000000  0.4573580000000  0.4788630000000 1.0
C      1  0.4573710000000  0.5211230000000  0.4498840000000 1.0
C      1  0.5211230000000  0.5501170000000  0.5426270000000 1.0
C      1  0.5501180000000  0.4573750000000  0.4788750000000 1.0
C      1  0.5426400000000  0.4788640000000  0.4498990000000 1.0
C      1  0.4573670000000  0.4788630000000  0.5501060000000 1.0
C      1  0.5426220000000  0.5211500000000  0.5501110000000 1.0
C      1  0.4788670000000  0.4498930000000  0.5426350000000 1.0
C      1  0.5211500000000  0.4498900000000  0.4573780000000 1.0
C      1  0.4788600000000  0.5501000000000  0.4573600000000 1.0
C      1  0.4498870000000  0.5426200000000  0.4788520000000 1.0
C      1  0.5500990000000  0.5426420000000  0.5211370000000 1.0
C      1  0.4498960000000  0.4573630000000  0.5211360000000 1.0
C      1  0.5607640000000  0.5141870000000  0.5144050000000 1.0
C      1  0.5141650000000  0.5144090000000  0.5607680000000 1.0
C      1  0.5143880000000  0.5607730000000  0.5141690000000 1.0
C      1  0.4392320000000  0.4858170000000  0.5143940000000 1.0
C      1  0.5607720000000  0.4858330000000  0.4856100000000 1.0
C      1  0.4392310000000  0.5141630000000  0.4855920000000 1.0
C      1  0.4858200000000  0.4856060000000  0.5607690000000 1.0
C      1  0.5141840000000  0.4855950000000  0.4392350000000 1.0
C      1  0.4858300000000  0.5143890000000  0.4392280000000 1.0
C      1  0.4856090000000  0.4392310000000  0.5141810000000 1.0
C      1  0.5144110000000  0.4392320000000  0.4858350000000 1.0
C      1  0.4855920000000  0.5607640000000  0.4858160000000 1.0
C      1  0.5607680000000  0.5141830000000  0.4856060000000 1.0
C      1  0.5141800000000  0.5143940000000  0.4392310000000 1.0
C      1  0.5143910000000  0.5607690000000  0.4858190000000 1.0
C      1  0.4392360000000  0.4858130000000  0.4855950000000 1.0
C      1  0.5607690000000  0.4858370000000  0.5144080000000 1.0
C      1  0.4392280000000  0.5141670000000  0.5143900000000 1.0
C      1  0.4858350000000  0.4855910000000  0.4392320000000 1.0
C      1  0.5141700000000  0.4856110000000  0.5607720000000 1.0
C      1  0.4858160000000  0.5144050000000  0.5607650000000 1.0
C      1  0.4856120000000  0.4392270000000  0.4858310000000 1.0
C      1  0.5144080000000  0.4392360000000  0.5141840000000 1.0
C      1  0.4855890000000  0.5607680000000  0.5141650000000 1.0
C      1  0.4472510000000  0.4665210000000  0.5309270000000 1.0
C      1  0.4665270000000  0.5309170000000  0.4472410000000 1.0
C      1  0.5309410000000  0.4472500000000  0.4665360000000 1.0
C      1  0.5527420000000  0.5334870000000  0.5309310000000 1.0
C      1  0.4472470000000  0.5334620000000  0.4690610000000 1.0
C      1  0.5527600000000  0.4665300000000  0.4690820000000 1.0
C      1  0.5334860000000  0.4690700000000  0.4472570000000 1.0
C      1  0.4665240000000  0.4690720000000  0.5527510000000 1.0
C      1  0.5334630000000  0.5309410000000  0.5527510000000 1.0
C      1  0.4690660000000  0.5527420000000  0.4665150000000 1.0
C      1  0.5309160000000  0.5527600000000  0.5334720000000 1.0
C      1  0.4690760000000  0.4472480000000  0.5334780000000 1.0
C      1  0.4472580000000  0.4665130000000  0.4690690000000 1.0
C      1  0.4665140000000  0.5309300000000  0.5527430000000 1.0
C      1  0.5309340000000  0.4472580000000  0.5334850000000 1.0
C      1  0.5527490000000  0.5334790000000  0.4690730000000 1.0
C      1  0.4472400000000  0.5334700000000  0.5309180000000 1.0
C      1  0.5527530000000  0.4665380000000  0.5309390000000 1.0
C      1  0.5334730000000  0.4690830000000  0.5527590000000 1.0
C      1  0.4665370000000  0.4690590000000  0.4472490000000 1.0
C      1  0.5334760000000  0.5309280000000  0.4472490000000 1.0
C      1  0.4690590000000  0.5527500000000  0.5334640000000 1.0
C      1  0.5309240000000  0.5527520000000  0.4665220000000 1.0
C      1  0.4690840000000  0.4472400000000  0.4665280000000 1.0
C      1  0.4320980000000  0.4936710000000  0.5500530000000 1.0
C      1  0.4936750000000  0.5500500000000  0.4320960000000 1.0
C      1  0.5500720000000  0.4321110000000  0.4936900000000 1.0
C      1  0.5678900000000  0.5063420000000  0.5500670000000 1.0
C      1  0.4321080000000  0.5063070000000  0.4499310000000 1.0
C      1  0.5679040000000  0.4936800000000  0.4499490000000 1.0
C      1  0.5063410000000  0.4499330000000  0.4321100000000 1.0
C      1  0.4936760000000  0.4499480000000  0.5679030000000 1.0
C      1  0.5063080000000  0.5500700000000  0.5678910000000 1.0
C      1  0.4499300000000  0.5678880000000  0.4936610000000 1.0
C      1  0.5500480000000  0.5679060000000  0.5063220000000 1.0
C      1  0.4499510000000  0.4320960000000  0.5063270000000 1.0
C      1  0.4321100000000  0.4936580000000  0.4499330000000 1.0
C      1  0.4936590000000  0.5500670000000  0.5678900000000 1.0
C      1  0.5500700000000  0.4321120000000  0.5063390000000 1.0
C      1  0.5679020000000  0.5063290000000  0.4499470000000 1.0
C      1  0.4320960000000  0.5063200000000  0.5500510000000 1.0
C      1  0.5678920000000  0.4936930000000  0.5500690000000 1.0
C      1  0.5063250000000  0.4499500000000  0.5679040000000 1.0
C      1  0.4936920000000  0.4499310000000  0.4321090000000 1.0
C      1  0.5063240000000  0.5500520000000  0.4320970000000 1.0
C      1  0.4499280000000  0.5678890000000  0.5063100000000 1.0
C      1  0.5500490000000  0.5679040000000  0.4936730000000 1.0
C      1  0.4499520000000  0.4320940000000  0.4936780000000 1.0
C      1  0.4928410000000  0.5072010000000  0.4489690000000 1.0
C      1  0.5072180000000  0.4489710000000  0.4928430000000 1.0
C      1  0.4489720000000  0.4928280000000  0.5072040000000 1.0
C      1  0.5071710000000  0.4927860000000  0.4489730000000 1.0
C      1  0.4928310000000  0.4927960000000  0.5510290000000 1.0
C      1  0.5071570000000  0.5072170000000  0.5510290000000 1.0
C      1  0.4927830000000  0.5510270000000  0.4928280000000 1.0
C      1  0.5072000000000  0.5510310000000  0.5071590000000 1.0
C      1  0.4927980000000  0.4489710000000  0.5071700000000 1.0
C      1  0.5510270000000  0.5071740000000  0.5072140000000 1.0
C      1  0.4489710000000  0.5071550000000  0.4927840000000 1.0
C      1  0.5510310000000  0.4928430000000  0.4927980000000 1.0
C      1  0.4928290000000  0.5072140000000  0.5510270000000 1.0
C      1  0.5072170000000  0.4489730000000  0.5071720000000 1.0
C      1  0.4489730000000  0.4928260000000  0.4927860000000 1.0
C      1  0.5071590000000  0.4927990000000  0.5510310000000 1.0
C      1  0.4928430000000  0.4927830000000  0.4489710000000 1.0
C      1  0.5071690000000  0.5072040000000  0.4489710000000 1.0
C      1  0.4927820000000  0.5510280000000  0.5071570000000 1.0
C      1  0.5072020000000  0.5510290000000  0.4928300000000 1.0
C      1  0.4928000000000  0.4489690000000  0.4928410000000 1.0
C      1  0.5510280000000  0.5071720000000  0.4927960000000 1.0
C      1  0.4489690000000  0.5071570000000  0.5072020000000 1.0
C      1  0.5510290000000  0.4928450000000  0.5072160000000 1.0
END
