TITL C-112676-196-163 7.53225185499229 1000000 -1588.57601600688 0 0 240 (Th) n - 1
REM
REM in /home/chem/mssmkc/work/GAP20/Larger-Clusters/Only-C240-new-series
REM
REM
REM
REM
REM
REM ./C.cell (c58642faaf353743302a0f2d8ff18644)
REM
REM compiler GCC version 8.3.0
REM options -cpp -mtune=generic -march=x86-64 -g -O0
REM seed -1755951656 36738827 1853914559 1982118798 1088650803 -387880466 1453204016 2013304552 -1761534843 358052302 163275965 1362624270 -1660986045 257781723 -1203429559 206704828 1995160676 633026898 -128329785 1774109577 56068226 -2120857990 1350261822 -621866891 -768817276 837854119 -1367675509 -1753214039 1242486354 -2000977841 -108272129 -521136638 -1052946391
REM
CELL 1.54180  100.00000  100.00000  100.00000   90.00000   90.00000   90.00000
LATT -1
SFAC C  
C      1  0.4302090000000  0.5178990000000  0.5270970000000 1.0
C      1  0.5179340000000  0.5271050000000  0.4302220000000 1.0
C      1  0.5271640000000  0.4302540000000  0.5179700000000 1.0
C      1  0.5697590000000  0.5180120000000  0.4728960000000 1.0
C      1  0.5697890000000  0.4821120000000  0.5271080000000 1.0
C      1  0.4302430000000  0.4819770000000  0.4728990000000 1.0
C      1  0.4820180000000  0.5271000000000  0.5697680000000 1.0
C      1  0.4820710000000  0.4728680000000  0.4302310000000 1.0
C      1  0.5179770000000  0.4729270000000  0.5697800000000 1.0
C      1  0.4729600000000  0.4301990000000  0.4820570000000 1.0
C      1  0.4728350000000  0.5697530000000  0.5179410000000 1.0
C      1  0.5270410000000  0.5697940000000  0.4820320000000 1.0
C      1  0.4302410000000  0.4819880000000  0.5271040000000 1.0
C      1  0.5179820000000  0.4729000000000  0.4302320000000 1.0
C      1  0.5270400000000  0.5698010000000  0.5179430000000 1.0
C      1  0.5697910000000  0.4821010000000  0.4729030000000 1.0
C      1  0.5697570000000  0.5180230000000  0.5271010000000 1.0
C      1  0.4302110000000  0.5178880000000  0.4728920000000 1.0
C      1  0.4820660000000  0.4728950000000  0.5697780000000 1.0
C      1  0.4820230000000  0.5270730000000  0.4302200000000 1.0
C      1  0.5179290000000  0.5271320000000  0.5697690000000 1.0
C      1  0.4728360000000  0.5697460000000  0.4820300000000 1.0
C      1  0.4729590000000  0.4302060000000  0.5179680000000 1.0
C      1  0.5271650000000  0.4302470000000  0.4820590000000 1.0
C      1  0.5742740000000  0.5293990000000  0.4938540000000 1.0
C      1  0.5293370000000  0.4938980000000  0.5743020000000 1.0
C      1  0.4937900000000  0.5743000000000  0.5293200000000 1.0
C      1  0.4256740000000  0.5292700000000  0.5061340000000 1.0
C      1  0.4257270000000  0.4705980000000  0.4938610000000 1.0
C      1  0.5743250000000  0.4707330000000  0.5061510000000 1.0
C      1  0.4706740000000  0.4938170000000  0.4257010000000 1.0
C      1  0.4706580000000  0.5061310000000  0.5742970000000 1.0
C      1  0.5293320000000  0.5061540000000  0.4257000000000 1.0
C      1  0.5060770000000  0.5742990000000  0.4706510000000 1.0
C      1  0.5062080000000  0.4257120000000  0.5293490000000 1.0
C      1  0.4939250000000  0.4256890000000  0.4706800000000 1.0
C      1  0.5743260000000  0.4707300000000  0.4938660000000 1.0
C      1  0.5293260000000  0.5061830000000  0.5742990000000 1.0
C      1  0.4939230000000  0.4257010000000  0.5293490000000 1.0
C      1  0.4257260000000  0.4706010000000  0.5061460000000 1.0
C      1  0.4256750000000  0.5292670000000  0.4938490000000 1.0
C      1  0.5742730000000  0.5294020000000  0.5061390000000 1.0
C      1  0.4706630000000  0.5061020000000  0.4256980000000 1.0
C      1  0.4706680000000  0.4938460000000  0.5743000000000 1.0
C      1  0.5293420000000  0.4938690000000  0.4257030000000 1.0
C      1  0.5062100000000  0.4257000000000  0.4706800000000 1.0
C      1  0.5060750000000  0.5743110000000  0.5293200000000 1.0
C      1  0.4937920000000  0.5742880000000  0.4706510000000 1.0
C      1  0.4661680000000  0.4530630000000  0.4301680000000 1.0
C      1  0.4531700000000  0.4301110000000  0.4661360000000 1.0
C      1  0.4301910000000  0.4660520000000  0.4531110000000 1.0
C      1  0.5339150000000  0.4531510000000  0.5698510000000 1.0
C      1  0.5338370000000  0.5469090000000  0.4301510000000 1.0
C      1  0.4660800000000  0.5468760000000  0.5698300000000 1.0
C      1  0.5469540000000  0.4302080000000  0.5338920000000 1.0
C      1  0.5468320000000  0.5698760000000  0.4661120000000 1.0
C      1  0.4530440000000  0.5698060000000  0.5338610000000 1.0
C      1  0.5698690000000  0.4661950000000  0.5469020000000 1.0
C      1  0.5698120000000  0.5339290000000  0.4531030000000 1.0
C      1  0.4301280000000  0.5338230000000  0.5468840000000 1.0
C      1  0.4660850000000  0.5468490000000  0.4301490000000 1.0
C      1  0.4530460000000  0.5697920000000  0.4661080000000 1.0
C      1  0.4301310000000  0.5338050000000  0.4530980000000 1.0
C      1  0.5338320000000  0.5469370000000  0.5698320000000 1.0
C      1  0.5339200000000  0.4531240000000  0.4301700000000 1.0
C      1  0.4661630000000  0.4530910000000  0.5698490000000 1.0
C      1  0.5468300000000  0.5698890000000  0.5338640000000 1.0
C      1  0.5469560000000  0.4301940000000  0.4661390000000 1.0
C      1  0.4531680000000  0.4301240000000  0.5338880000000 1.0
C      1  0.5698090000000  0.5339480000000  0.5468890000000 1.0
C      1  0.5698720000000  0.4661770000000  0.4531160000000 1.0
C      1  0.4301880000000  0.4660710000000  0.5468970000000 1.0
C      1  0.5285640000000  0.5188010000000  0.5677040000000 1.0
C      1  0.5187010000000  0.5677290000000  0.5285700000000 1.0
C      1  0.5676810000000  0.5286470000000  0.5187590000000 1.0
C      1  0.4714030000000  0.5187240000000  0.4322890000000 1.0
C      1  0.4714310000000  0.4812250000000  0.5677090000000 1.0
C      1  0.5286020000000  0.4812500000000  0.4322980000000 1.0
C      1  0.4811780000000  0.5676840000000  0.4714030000000 1.0
C      1  0.4812970000000  0.4322820000000  0.5285960000000 1.0
C      1  0.5188240000000  0.4323040000000  0.4714310000000 1.0
C      1  0.4322690000000  0.5285190000000  0.4812300000000 1.0
C      1  0.4323180000000  0.4713610000000  0.5187660000000 1.0
C      1  0.5677330000000  0.4714740000000  0.4812460000000 1.0
C      1  0.5285970000000  0.4812760000000  0.5677110000000 1.0
C      1  0.5188220000000  0.4323160000000  0.5285970000000 1.0
C      1  0.5677310000000  0.4714810000000  0.5187700000000 1.0
C      1  0.4714360000000  0.4811990000000  0.4322960000000 1.0
C      1  0.4713980000000  0.5187500000000  0.5677020000000 1.0
C      1  0.5285690000000  0.5187750000000  0.4322910000000 1.0
C      1  0.4812990000000  0.4322710000000  0.4714300000000 1.0
C      1  0.4811760000000  0.5676960000000  0.5285690000000 1.0
C      1  0.5187030000000  0.5677180000000  0.4714040000000 1.0
C      1  0.4323190000000  0.4713530000000  0.4812410000000 1.0
C      1  0.4322670000000  0.5285260000000  0.5187540000000 1.0
C      1  0.5676820000000  0.5286390000000  0.4812340000000 1.0
C      1  0.4652580000000  0.4330670000000  0.4923650000000 1.0
C      1  0.4331070000000  0.4922870000000  0.4651980000000 1.0
C      1  0.4923870000000  0.4651790000000  0.4331060000000 1.0
C      1  0.5348610000000  0.4331320000000  0.5076610000000 1.0
C      1  0.5347420000000  0.5669300000000  0.4923410000000 1.0
C      1  0.4651390000000  0.5668710000000  0.5076320000000 1.0
C      1  0.5669060000000  0.4924200000000  0.5348050000000 1.0
C      1  0.5668950000000  0.5076990000000  0.4651990000000 1.0
C      1  0.4330910000000  0.5075940000000  0.5347980000000 1.0
C      1  0.5076750000000  0.4652190000000  0.5669080000000 1.0
C      1  0.5076180000000  0.5347950000000  0.4330930000000 1.0
C      1  0.4923200000000  0.5348080000000  0.5668940000000 1.0
C      1  0.4651390000000  0.5668680000000  0.4923390000000 1.0
C      1  0.4330940000000  0.5075800000000  0.4651950000000 1.0
C      1  0.4923250000000  0.5347810000000  0.4330920000000 1.0
C      1  0.5347420000000  0.5669330000000  0.5076350000000 1.0
C      1  0.5348610000000  0.4331290000000  0.4923680000000 1.0
C      1  0.4652580000000  0.4330700000000  0.5076590000000 1.0
C      1  0.5668930000000  0.5077130000000  0.5348020000000 1.0
C      1  0.5669090000000  0.4924060000000  0.4652020000000 1.0
C      1  0.4331050000000  0.4923010000000  0.5348010000000 1.0
C      1  0.5076130000000  0.5348210000000  0.5668940000000 1.0
C      1  0.5076800000000  0.4651920000000  0.4331060000000 1.0
C      1  0.4923820000000  0.4652050000000  0.5669070000000 1.0
C      1  0.5503610000000  0.4505240000000  0.5187070000000 1.0
C      1  0.4504570000000  0.5186620000000  0.5503130000000 1.0
C      1  0.5186530000000  0.5503250000000  0.4504660000000 1.0
C      1  0.4497270000000  0.4504270000000  0.4813120000000 1.0
C      1  0.4496370000000  0.5494840000000  0.5186840000000 1.0
C      1  0.5502750000000  0.5495660000000  0.4812960000000 1.0
C      1  0.5495100000000  0.5187300000000  0.4496800000000 1.0
C      1  0.5495400000000  0.4813580000000  0.5503230000000 1.0
C      1  0.4504940000000  0.4812500000000  0.4496840000000 1.0
C      1  0.4812580000000  0.5503110000000  0.5495140000000 1.0
C      1  0.4813510000000  0.4496560000000  0.4504850000000 1.0
C      1  0.5187390000000  0.4497080000000  0.5495350000000 1.0
C      1  0.5502730000000  0.5495730000000  0.5186880000000 1.0
C      1  0.4504900000000  0.4812700000000  0.5503200000000 1.0
C      1  0.5187420000000  0.4496890000000  0.4504860000000 1.0
C      1  0.4496390000000  0.5494760000000  0.4812930000000 1.0
C      1  0.4497250000000  0.4504340000000  0.5187040000000 1.0
C      1  0.5503630000000  0.4505160000000  0.4813160000000 1.0
C      1  0.5495430000000  0.4813380000000  0.4496870000000 1.0
C      1  0.5495060000000  0.5187500000000  0.5503160000000 1.0
C      1  0.4504600000000  0.5186420000000  0.4496770000000 1.0
C      1  0.4813470000000  0.4496750000000  0.5495340000000 1.0
C      1  0.4812610000000  0.5502920000000  0.4504650000000 1.0
C      1  0.5186490000000  0.5503440000000  0.5495160000000 1.0
C      1  0.5292080000000  0.5495190000000  0.4415040000000 1.0
C      1  0.5495560000000  0.4415630000000  0.5292630000000 1.0
C      1  0.4414850000000  0.5292070000000  0.5494970000000 1.0
C      1  0.4707040000000  0.5494900000000  0.5584760000000 1.0
C      1  0.4707970000000  0.4504580000000  0.4415220000000 1.0
C      1  0.5292920000000  0.4505330000000  0.5584980000000 1.0
C      1  0.4505480000000  0.4414630000000  0.4707600000000 1.0
C      1  0.4504420000000  0.5584490000000  0.5292360000000 1.0
C      1  0.5494540000000  0.5585250000000  0.4707410000000 1.0
C      1  0.5584630000000  0.5292920000000  0.4504910000000 1.0
C      1  0.5585110000000  0.4708120000000  0.5495130000000 1.0
C      1  0.4415410000000  0.4706890000000  0.4504990000000 1.0
C      1  0.5292960000000  0.4505100000000  0.4415240000000 1.0
C      1  0.5494520000000  0.5585370000000  0.5292400000000 1.0
C      1  0.4415370000000  0.4707080000000  0.5495090000000 1.0
C      1  0.4707920000000  0.4504810000000  0.5584960000000 1.0
C      1  0.4707080000000  0.5494670000000  0.4415020000000 1.0
C      1  0.5292030000000  0.5495420000000  0.5584780000000 1.0
C      1  0.4504440000000  0.5584370000000  0.4707370000000 1.0
C      1  0.4505460000000  0.4414750000000  0.5292590000000 1.0
C      1  0.5495580000000  0.4415510000000  0.4707640000000 1.0
C      1  0.5585150000000  0.4707930000000  0.4505030000000 1.0
C      1  0.5584590000000  0.5293110000000  0.5495010000000 1.0
C      1  0.4414890000000  0.5291880000000  0.4504870000000 1.0
C      1  0.4828060000000  0.4456520000000  0.4643130000000 1.0
C      1  0.4457070000000  0.4642510000000  0.4827610000000 1.0
C      1  0.4643200000000  0.4827140000000  0.4456770000000 1.0
C      1  0.5172910000000  0.4456970000000  0.5357090000000 1.0
C      1  0.5171970000000  0.5543340000000  0.4642920000000 1.0
C      1  0.4827070000000  0.5543170000000  0.5356860000000 1.0
C      1  0.5543570000000  0.4643540000000  0.5172530000000 1.0
C      1  0.5542940000000  0.5357420000000  0.4827510000000 1.0
C      1  0.4456420000000  0.5356530000000  0.5172350000000 1.0
C      1  0.5357110000000  0.4827990000000  0.5543300000000 1.0
C      1  0.5356840000000  0.5172650000000  0.4456720000000 1.0
C      1  0.4642850000000  0.5172230000000  0.5543210000000 1.0
C      1  0.4827090000000  0.5543030000000  0.4642910000000 1.0
C      1  0.4456430000000  0.5356460000000  0.4827470000000 1.0
C      1  0.4642890000000  0.5172010000000  0.4456700000000 1.0
C      1  0.5171940000000  0.5543480000000  0.5356870000000 1.0
C      1  0.5172930000000  0.4456830000000  0.4643140000000 1.0
C      1  0.4828030000000  0.4456660000000  0.5357080000000 1.0
C      1  0.5542930000000  0.5357490000000  0.5172390000000 1.0
C      1  0.5543580000000  0.4643470000000  0.4827650000000 1.0
C      1  0.4457060000000  0.4642580000000  0.5172490000000 1.0
C      1  0.5356800000000  0.5172860000000  0.5543230000000 1.0
C      1  0.5357150000000  0.4827770000000  0.4456790000000 1.0
C      1  0.4643160000000  0.4827350000000  0.5543280000000 1.0
C      1  0.4522660000000  0.5291970000000  0.5061460000000 1.0
C      1  0.5292340000000  0.5061700000000  0.4522920000000 1.0
C      1  0.5061950000000  0.4523040000000  0.5292480000000 1.0
C      1  0.5476820000000  0.5292790000000  0.4938420000000 1.0
C      1  0.5477330000000  0.4708050000000  0.5061610000000 1.0
C      1  0.4523190000000  0.4707180000000  0.4938510000000 1.0
C      1  0.4707550000000  0.5061370000000  0.5477050000000 1.0
C      1  0.4707690000000  0.4938110000000  0.4522930000000 1.0
C      1  0.5292420000000  0.4938820000000  0.5477100000000 1.0
C      1  0.4938900000000  0.4522810000000  0.4707710000000 1.0
C      1  0.4938030000000  0.5477080000000  0.5292290000000 1.0
C      1  0.5061120000000  0.5477070000000  0.4707530000000 1.0
C      1  0.4523180000000  0.4707210000000  0.5061580000000 1.0
C      1  0.5292450000000  0.4938630000000  0.4522950000000 1.0
C      1  0.5061100000000  0.5477190000000  0.5292290000000 1.0
C      1  0.5477340000000  0.4708030000000  0.4938540000000 1.0
C      1  0.5476810000000  0.5292820000000  0.5061490000000 1.0
C      1  0.4522670000000  0.5291950000000  0.4938390000000 1.0
C      1  0.4707660000000  0.4938300000000  0.5477070000000 1.0
C      1  0.4707580000000  0.5061180000000  0.4522900000000 1.0
C      1  0.5292310000000  0.5061890000000  0.5477070000000 1.0
C      1  0.4938050000000  0.5476960000000  0.4707520000000 1.0
C      1  0.4938880000000  0.4522930000000  0.5292470000000 1.0
C      1  0.5061970000000  0.4522920000000  0.4707710000000 1.0
C      1  0.5071580000000  0.4546750000000  0.4435300000000 1.0
C      1  0.4547300000000  0.4434820000000  0.5071250000000 1.0
C      1  0.4435160000000  0.5070560000000  0.4546770000000 1.0
C      1  0.4929230000000  0.4546850000000  0.5564880000000 1.0
C      1  0.4928460000000  0.5453030000000  0.4435120000000 1.0
C      1  0.5070730000000  0.5453370000000  0.5564700000000 1.0
C      1  0.5453700000000  0.4435600000000  0.4928970000000 1.0
C      1  0.5452700000000  0.5565210000000  0.5071060000000 1.0
C      1  0.4546300000000  0.5564370000000  0.4928720000000 1.0
C      1  0.5564710000000  0.5071750000000  0.5453210000000 1.0
C      1  0.5564870000000  0.4929260000000  0.4546830000000 1.0
C      1  0.4435260000000  0.4928430000000  0.5453190000000 1.0
C      1  0.5070770000000  0.5453150000000  0.4435120000000 1.0
C      1  0.4546300000000  0.5564400000000  0.5071030000000 1.0
C      1  0.4435290000000  0.4928250000000  0.4546790000000 1.0
C      1  0.4928420000000  0.5453250000000  0.5564700000000 1.0
C      1  0.4929270000000  0.4546630000000  0.4435300000000 1.0
C      1  0.5071540000000  0.4546970000000  0.5564880000000 1.0
C      1  0.5452700000000  0.5565180000000  0.4928750000000 1.0
C      1  0.5453700000000  0.4435630000000  0.5071280000000 1.0
C      1  0.4547300000000  0.4434790000000  0.4928940000000 1.0
C      1  0.5564840000000  0.4929440000000  0.5453230000000 1.0
C      1  0.5564740000000  0.5071570000000  0.4546810000000 1.0
C      1  0.4435130000000  0.5070740000000  0.5453170000000 1.0
END
