TITL C-112675-8135-3 20.0141813076976 1000000 -1619.58213080962 0 0 240 (C1) n - 1
REM
REM in /home/chem/mssmkc/work/GAP20/Larger-Clusters/Only-C240-new-series
REM
REM
REM
REM
REM
REM ./C.cell (8c9a21c0b5c63cf27dc5cdb0d4affa9d)
REM
REM compiler GCC version 8.3.0
REM options -cpp -mtune=generic -march=x86-64 -g -O0
REM seed -515548910 -1180089613 -1903779706 -525001227 -74780619 1717763903 1446149843 1934845786 80570581 345146606 109628594 241446889 -1474711574 -121380246 821907416 -1661130977 -725236093 887624608 -59855631 -705497080 1240195269 467129975 104719186 721292041 1298409441 1550253747 -1359541934 55644668 1540398288 83193199 -1403616271 -347941357 -920244797
REM
CELL 1.54180  100.00000  100.00000  100.00000   90.00000   90.00000   90.00000
LATT -1
SFAC C  
C      1  0.4933370000000  0.5482170000000  0.4768440000000 1.0
C      1  0.4880320000000  0.4935960000000  0.5519260000000 1.0
C      1  0.5485680000000  0.4765140000000  0.4917700000000 1.0
C      1  0.5074200000000  0.5527660000000  0.5121560000000 1.0
C      1  0.4927570000000  0.4470580000000  0.5108560000000 1.0
C      1  0.5077760000000  0.4514990000000  0.4756680000000 1.0
C      1  0.5105580000000  0.4926820000000  0.4479390000000 1.0
C      1  0.4752770000000  0.5075880000000  0.4521270000000 1.0
C      1  0.5232320000000  0.5082940000000  0.5474350000000 1.0
C      1  0.4520230000000  0.4760900000000  0.5090340000000 1.0
C      1  0.5523130000000  0.5115030000000  0.5068820000000 1.0
C      1  0.4479540000000  0.5112640000000  0.4940470000000 1.0
C      1  0.4930250000000  0.4513280000000  0.4755840000000 1.0
C      1  0.4881060000000  0.5083220000000  0.5520140000000 1.0
C      1  0.5527200000000  0.5117340000000  0.4921700000000 1.0
C      1  0.5074940000000  0.4470110000000  0.5109300000000 1.0
C      1  0.4927080000000  0.5526880000000  0.5119710000000 1.0
C      1  0.5081130000000  0.5480110000000  0.4770490000000 1.0
C      1  0.5105480000000  0.5074430000000  0.4479750000000 1.0
C      1  0.4752410000000  0.4928380000000  0.4520320000000 1.0
C      1  0.5231550000000  0.4935110000000  0.5474700000000 1.0
C      1  0.4475240000000  0.5113140000000  0.5087690000000 1.0
C      1  0.5479890000000  0.4763910000000  0.5065300000000 1.0
C      1  0.4523000000000  0.4761430000000  0.4942660000000 1.0
C      1  0.4558770000000  0.4300660000000  0.4817260000000 1.0
C      1  0.4822150000000  0.4556960000000  0.4304460000000 1.0
C      1  0.4309230000000  0.4820590000000  0.4565010000000 1.0
C      1  0.5441350000000  0.4305130000000  0.5196900000000 1.0
C      1  0.4559760000000  0.5704230000000  0.5188390000000 1.0
C      1  0.5452150000000  0.5706320000000  0.4835100000000 1.0
C      1  0.5169930000000  0.4564840000000  0.5699640000000 1.0
C      1  0.4803970000000  0.5446290000000  0.5703920000000 1.0
C      1  0.5196740000000  0.5441080000000  0.4312350000000 1.0
C      1  0.5691820000000  0.4823800000000  0.5446310000000 1.0
C      1  0.4290100000000  0.5191950000000  0.5445580000000 1.0
C      1  0.5704580000000  0.5193730000000  0.4564320000000 1.0
C      1  0.4564210000000  0.5704610000000  0.4821500000000 1.0
C      1  0.4824590000000  0.5449610000000  0.4304680000000 1.0
C      1  0.4310910000000  0.5194210000000  0.4568470000000 1.0
C      1  0.5437290000000  0.5701510000000  0.5201960000000 1.0
C      1  0.4558720000000  0.4306560000000  0.5190410000000 1.0
C      1  0.5451980000000  0.4305760000000  0.4825200000000 1.0
C      1  0.5169550000000  0.5452050000000  0.5708550000000 1.0
C      1  0.4801900000000  0.4570370000000  0.5694280000000 1.0
C      1  0.5194600000000  0.4561250000000  0.4307650000000 1.0
C      1  0.5690110000000  0.5197230000000  0.5441490000000 1.0
C      1  0.4286490000000  0.4827580000000  0.5452240000000 1.0
C      1  0.5709150000000  0.4827240000000  0.4557770000000 1.0
C      1  0.4383050000000  0.5215620000000  0.4937200000000 1.0
C      1  0.4926900000000  0.4375070000000  0.5212650000000 1.0
C      1  0.5211350000000  0.4927520000000  0.4385710000000 1.0
C      1  0.5621860000000  0.5216130000000  0.5072690000000 1.0
C      1  0.4369430000000  0.4753780000000  0.5084330000000 1.0
C      1  0.5636060000000  0.4758300000000  0.4926390000000 1.0
C      1  0.5077490000000  0.4364190000000  0.4750260000000 1.0
C      1  0.4937170000000  0.5631750000000  0.4759490000000 1.0
C      1  0.5071790000000  0.5628200000000  0.5220920000000 1.0
C      1  0.4779640000000  0.4936120000000  0.5618250000000 1.0
C      1  0.5239960000000  0.5081080000000  0.5624410000000 1.0
C      1  0.4749050000000  0.5074980000000  0.4369950000000 1.0
C      1  0.4373580000000  0.4753220000000  0.4940750000000 1.0
C      1  0.4925250000000  0.5626660000000  0.5219550000000 1.0
C      1  0.5211280000000  0.5073980000000  0.4385960000000 1.0
C      1  0.5629340000000  0.4756530000000  0.5069960000000 1.0
C      1  0.4378030000000  0.5215700000000  0.5083740000000 1.0
C      1  0.5627240000000  0.5216900000000  0.4926420000000 1.0
C      1  0.5080900000000  0.5630020000000  0.4761220000000 1.0
C      1  0.4933770000000  0.4362490000000  0.4749760000000 1.0
C      1  0.5073650000000  0.4374120000000  0.5213150000000 1.0
C      1  0.4780150000000  0.5082540000000  0.5619040000000 1.0
C      1  0.5238950000000  0.4937510000000  0.5624760000000 1.0
C      1  0.4748880000000  0.4931480000000  0.4368970000000 1.0
C      1  0.4799110000000  0.4709120000000  0.5720570000000 1.0
C      1  0.5739130000000  0.4817160000000  0.4696030000000 1.0
C      1  0.4703260000000  0.5732560000000  0.4814930000000 1.0
C      1  0.5194140000000  0.4700460000000  0.4285740000000 1.0
C      1  0.4816020000000  0.5310760000000  0.4277190000000 1.0
C      1  0.5179020000000  0.5312160000000  0.5730150000000 1.0
C      1  0.4261720000000  0.4815860000000  0.5313120000000 1.0
C      1  0.5715700000000  0.5195770000000  0.5303340000000 1.0
C      1  0.4288610000000  0.5194120000000  0.4707510000000 1.0
C      1  0.5299080000000  0.5730280000000  0.5203170000000 1.0
C      1  0.4697030000000  0.4281390000000  0.5190640000000 1.0
C      1  0.5313570000000  0.4275640000000  0.4816250000000 1.0
C      1  0.4800130000000  0.5307110000000  0.5726790000000 1.0
C      1  0.5733780000000  0.5197600000000  0.4702310000000 1.0
C      1  0.4697120000000  0.4270510000000  0.4811290000000 1.0
C      1  0.5194570000000  0.5302650000000  0.4287890000000 1.0
C      1  0.4814740000000  0.4695880000000  0.4276530000000 1.0
C      1  0.5177940000000  0.4704260000000  0.5724910000000 1.0
C      1  0.4268140000000  0.5196100000000  0.5306400000000 1.0
C      1  0.5719420000000  0.4817940000000  0.5307480000000 1.0
C      1  0.4283360000000  0.4815260000000  0.4704300000000 1.0
C      1  0.5303100000000  0.4278540000000  0.5195960000000 1.0
C      1  0.4698640000000  0.5728250000000  0.5194310000000 1.0
C      1  0.5312880000000  0.5730490000000  0.4823820000000 1.0
C      1  0.5765850000000  0.4938560000000  0.4632670000000 1.0
C      1  0.4636970000000  0.5761180000000  0.4934210000000 1.0
C      1  0.4916930000000  0.4642340000000  0.5751460000000 1.0
C      1  0.4231290000000  0.4937430000000  0.5374430000000 1.0
C      1  0.5744350000000  0.5078580000000  0.5372000000000 1.0
C      1  0.4259060000000  0.5076100000000  0.4640330000000 1.0
C      1  0.5367800000000  0.5760150000000  0.5086060000000 1.0
C      1  0.4629810000000  0.4251060000000  0.5072910000000 1.0
C      1  0.5376880000000  0.4251430000000  0.4938090000000 1.0
C      1  0.5076790000000  0.4632700000000  0.4254380000000 1.0
C      1  0.4937940000000  0.5374380000000  0.4252810000000 1.0
C      1  0.5058510000000  0.5374740000000  0.5761890000000 1.0
C      1  0.5764570000000  0.5079510000000  0.4635450000000 1.0
C      1  0.4630860000000  0.4247430000000  0.4932160000000 1.0
C      1  0.4918030000000  0.5372550000000  0.5760220000000 1.0
C      1  0.4233500000000  0.5078220000000  0.5371620000000 1.0
C      1  0.5745430000000  0.4938160000000  0.5373350000000 1.0
C      1  0.4258210000000  0.4935800000000  0.4639030000000 1.0
C      1  0.5372700000000  0.4249740000000  0.5078750000000 1.0
C      1  0.4635120000000  0.5759520000000  0.5074810000000 1.0
C      1  0.5373920000000  0.5760240000000  0.4945570000000 1.0
C      1  0.5078520000000  0.5372150000000  0.4256390000000 1.0
C      1  0.4936240000000  0.4631510000000  0.4252670000000 1.0
C      1  0.5057410000000  0.4640160000000  0.5753050000000 1.0
C      1  0.5533700000000  0.4376800000000  0.5259670000000 1.0
C      1  0.5260310000000  0.5532340000000  0.4384480000000 1.0
C      1  0.4361880000000  0.5249160000000  0.5541920000000 1.0
C      1  0.4462580000000  0.4370760000000  0.4758430000000 1.0
C      1  0.5553270000000  0.5638370000000  0.4781190000000 1.0
C      1  0.4462710000000  0.5633170000000  0.5245080000000 1.0
C      1  0.4746970000000  0.5542890000000  0.5632450000000 1.0
C      1  0.5227090000000  0.4464960000000  0.5632740000000 1.0
C      1  0.4764570000000  0.4458550000000  0.4372010000000 1.0
C      1  0.5629850000000  0.5251750000000  0.4470830000000 1.0
C      1  0.4376100000000  0.4762070000000  0.4466910000000 1.0
C      1  0.5621970000000  0.4765820000000  0.5542990000000 1.0
C      1  0.5530920000000  0.5628100000000  0.5261350000000 1.0
C      1  0.5256100000000  0.4466590000000  0.4376890000000 1.0
C      1  0.4356360000000  0.4774100000000  0.5552390000000 1.0
C      1  0.4466980000000  0.5634040000000  0.4764250000000 1.0
C      1  0.5549350000000  0.4375720000000  0.4768640000000 1.0
C      1  0.4466230000000  0.4378210000000  0.5252510000000 1.0
C      1  0.4743670000000  0.4474610000000  0.5622820000000 1.0
C      1  0.5224230000000  0.5553650000000  0.5641980000000 1.0
C      1  0.4767900000000  0.5548300000000  0.4372970000000 1.0
C      1  0.5637160000000  0.4771170000000  0.4460690000000 1.0
C      1  0.4379500000000  0.5255910000000  0.4473640000000 1.0
C      1  0.5618330000000  0.5261180000000  0.5532730000000 1.0
C      1  0.5184200000000  0.5693670000000  0.5285430000000 1.0
C      1  0.5270080000000  0.5206520000000  0.5690940000000 1.0
C      1  0.5680100000000  0.5279650000000  0.5189600000000 1.0
C      1  0.4812800000000  0.5698610000000  0.4726060000000 1.0
C      1  0.5206480000000  0.4303510000000  0.4722250000000 1.0
C      1  0.4809740000000  0.4317950000000  0.5276270000000 1.0
C      1  0.4722510000000  0.5203770000000  0.4307770000000 1.0
C      1  0.5277440000000  0.4813710000000  0.4325100000000 1.0
C      1  0.4715900000000  0.4822910000000  0.5683210000000 1.0
C      1  0.4325270000000  0.5279120000000  0.4820140000000 1.0
C      1  0.5705690000000  0.4725360000000  0.4803470000000 1.0
C      1  0.4300910000000  0.4723230000000  0.5208540000000 1.0
C      1  0.5188400000000  0.4315060000000  0.5279000000000 1.0
C      1  0.5268770000000  0.4812000000000  0.5691270000000 1.0
C      1  0.5688710000000  0.4726880000000  0.5198900000000 1.0
C      1  0.4806510000000  0.4299110000000  0.4719700000000 1.0
C      1  0.5207570000000  0.5694160000000  0.4731240000000 1.0
C      1  0.4809380000000  0.5689400000000  0.5281010000000 1.0
C      1  0.4721560000000  0.4803460000000  0.4305550000000 1.0
C      1  0.5277150000000  0.5188520000000  0.4326430000000 1.0
C      1  0.4716360000000  0.5195480000000  0.5684690000000 1.0
C      1  0.4312770000000  0.4723520000000  0.4812460000000 1.0
C      1  0.5695030000000  0.5281500000000  0.4815580000000 1.0
C      1  0.4312540000000  0.5280690000000  0.5195830000000 1.0
C      1  0.4779450000000  0.5665510000000  0.5412010000000 1.0
C      1  0.5399570000000  0.4773220000000  0.5667860000000 1.0
C      1  0.5673620000000  0.5414290000000  0.4793870000000 1.0
C      1  0.5249160000000  0.5665630000000  0.4602140000000 1.0
C      1  0.4768370000000  0.4324650000000  0.4588980000000 1.0
C      1  0.5211660000000  0.4340330000000  0.5411300000000 1.0
C      1  0.4591350000000  0.4762980000000  0.4330530000000 1.0
C      1  0.5409150000000  0.5215290000000  0.4350480000000 1.0
C      1  0.4584420000000  0.5221650000000  0.5662190000000 1.0
C      1  0.4338020000000  0.5412220000000  0.5222180000000 1.0
C      1  0.5660890000000  0.4597160000000  0.5239330000000 1.0
C      1  0.4338290000000  0.4593190000000  0.4772700000000 1.0
C      1  0.4779400000000  0.4345730000000  0.5406900000000 1.0
C      1  0.5399670000000  0.5247540000000  0.5663900000000 1.0
C      1  0.5681400000000  0.4594190000000  0.4766290000000 1.0
C      1  0.5248080000000  0.4330950000000  0.4592820000000 1.0
C      1  0.4776380000000  0.5674110000000  0.4594820000000 1.0
C      1  0.5205970000000  0.5673640000000  0.5418480000000 1.0
C      1  0.4593160000000  0.5245850000000  0.4334870000000 1.0
C      1  0.5410310000000  0.4790620000000  0.4346480000000 1.0
C      1  0.4582870000000  0.4799720000000  0.5665360000000 1.0
C      1  0.4328530000000  0.4593460000000  0.5248900000000 1.0
C      1  0.5655210000000  0.5410980000000  0.5219240000000 1.0
C      1  0.4348080000000  0.5411080000000  0.4792330000000 1.0
C      1  0.4467450000000  0.4779670000000  0.5619860000000 1.0
C      1  0.5626120000000  0.4480810000000  0.4760850000000 1.0
C      1  0.4765840000000  0.5621380000000  0.4481010000000 1.0
C      1  0.5525790000000  0.4772820000000  0.4393240000000 1.0
C      1  0.4482190000000  0.5258190000000  0.4393400000000 1.0
C      1  0.5511640000000  0.5261350000000  0.5607890000000 1.0
C      1  0.4387420000000  0.4482060000000  0.5257400000000 1.0
C      1  0.5602580000000  0.5519760000000  0.5253250000000 1.0
C      1  0.4396910000000  0.5524360000000  0.4768430000000 1.0
C      1  0.5222410000000  0.5624980000000  0.5533240000000 1.0
C      1  0.4749570000000  0.4400800000000  0.5515820000000 1.0
C      1  0.5259390000000  0.4388620000000  0.4481330000000 1.0
C      1  0.4470970000000  0.5243410000000  0.5612360000000 1.0
C      1  0.5624360000000  0.5529390000000  0.4780230000000 1.0
C      1  0.4759800000000  0.4380580000000  0.4476350000000 1.0
C      1  0.5520270000000  0.5245000000000  0.4401000000000 1.0
C      1  0.4478880000000  0.4755400000000  0.4387080000000 1.0
C      1  0.5513560000000  0.4762760000000  0.5615410000000 1.0
C      1  0.4390220000000  0.5525200000000  0.5241880000000 1.0
C      1  0.5605990000000  0.4485490000000  0.5256850000000 1.0
C      1  0.4391060000000  0.4479930000000  0.4758640000000 1.0
C      1  0.5227870000000  0.4392350000000  0.5524690000000 1.0
C      1  0.4754160000000  0.5614410000000  0.5524090000000 1.0
C      1  0.5261750000000  0.5608110000000  0.4490720000000 1.0
C      1  0.5079590000000  0.5399790000000  0.4887450000000 1.0
C      1  0.4972190000000  0.5086100000000  0.5413220000000 1.0
C      1  0.5398510000000  0.4879840000000  0.5063350000000 1.0
C      1  0.4926520000000  0.5420320000000  0.5028350000000 1.0
C      1  0.5077530000000  0.4576090000000  0.5017200000000 1.0
C      1  0.4928070000000  0.4593150000000  0.4872980000000 1.0
C      1  0.5012760000000  0.5077490000000  0.4585180000000 1.0
C      1  0.4869210000000  0.4926820000000  0.4601010000000 1.0
C      1  0.5115050000000  0.4934690000000  0.5393710000000 1.0
C      1  0.4603720000000  0.4877830000000  0.4944370000000 1.0
C      1  0.5421520000000  0.5025010000000  0.4915540000000 1.0
C      1  0.4581470000000  0.5021360000000  0.5094060000000 1.0
C      1  0.5077290000000  0.4594680000000  0.4874050000000 1.0
C      1  0.4971570000000  0.4934150000000  0.5412530000000 1.0
C      1  0.5416830000000  0.5023260000000  0.5067570000000 1.0
C      1  0.4925320000000  0.4576130000000  0.5016130000000 1.0
C      1  0.5078400000000  0.5420460000000  0.5030800000000 1.0
C      1  0.4929800000000  0.5401400000000  0.4885020000000 1.0
C      1  0.5012570000000  0.4925080000000  0.4584540000000 1.0
C      1  0.4869320000000  0.5075810000000  0.4602230000000 1.0
C      1  0.5115750000000  0.5084430000000  0.5393430000000 1.0
C      1  0.4585730000000  0.5021020000000  0.4942050000000 1.0
C      1  0.5404170000000  0.4881500000000  0.4913930000000 1.0
C      1  0.4600830000000  0.4877840000000  0.5093940000000 1.0
END
