TITL C-112676-196-177 155.033789756957 1000000 -1689.61154233888 0 0 240 (Th) n - 1
REM
REM in /home/chem/mssmkc/work/GAP20/Larger-Clusters/Only-C240-new-series
REM
REM
REM
REM
REM
REM ./C.cell (c58642faaf353743302a0f2d8ff18644)
REM
REM compiler GCC version 8.3.0
REM options -cpp -mtune=generic -march=x86-64 -g -O0
REM seed -336089218 -285965156 -1785578700 -26297047 -972047891 833932125 1161834394 -1623575456 1231431614 1120385024 273065391 -1153469929 -752995958 1534251016 879975385 -1265338335 -2057916478 -2077689018 -1871371231 1340544590 -1501361696 1297107196 -2068470123 1406291789 -176012864 1885256514 -1183057918 789683839 1294870933 2069849663 -1811117162 442091568 -552507326
REM
CELL 1.54180  100.00000  100.00000  100.00000   90.00000   90.00000   90.00000
LATT -1
SFAC C  
C      1  0.4849210000000  0.5546870000000  0.5460150000000 1.0
C      1  0.5460130000000  0.4849170000000  0.5546870000000 1.0
C      1  0.5546890000000  0.5460120000000  0.4849210000000 1.0
C      1  0.5150850000000  0.4453050000000  0.5460020000000 1.0
C      1  0.5150750000000  0.5546960000000  0.4539960000000 1.0
C      1  0.4849190000000  0.4453120000000  0.4539870000000 1.0
C      1  0.4539940000000  0.5150730000000  0.5546960000000 1.0
C      1  0.4539880000000  0.4849230000000  0.4453100000000 1.0
C      1  0.5460040000000  0.5150870000000  0.4453070000000 1.0
C      1  0.4453090000000  0.4539910000000  0.4849190000000 1.0
C      1  0.4453080000000  0.5460050000000  0.5150880000000 1.0
C      1  0.5546940000000  0.4539920000000  0.5150720000000 1.0
C      1  0.4849150000000  0.5546950000000  0.4539980000000 1.0
C      1  0.5460060000000  0.4849270000000  0.4453040000000 1.0
C      1  0.5546910000000  0.5460090000000  0.5150810000000 1.0
C      1  0.5150790000000  0.4453140000000  0.4539850000000 1.0
C      1  0.5150810000000  0.5546880000000  0.5460130000000 1.0
C      1  0.4849250000000  0.4453040000000  0.5460040000000 1.0
C      1  0.4539870000000  0.5150840000000  0.4453130000000 1.0
C      1  0.4539960000000  0.4849130000000  0.5546930000000 1.0
C      1  0.5460120000000  0.5150770000000  0.5546900000000 1.0
C      1  0.4453110000000  0.4539880000000  0.5150790000000 1.0
C      1  0.4453060000000  0.5460080000000  0.4849280000000 1.0
C      1  0.5546920000000  0.4539950000000  0.4849120000000 1.0
C      1  0.5071390000000  0.5841680000000  0.5072340000000 1.0
C      1  0.5072320000000  0.5071340000000  0.5841690000000 1.0
C      1  0.5841690000000  0.5072290000000  0.5071360000000 1.0
C      1  0.4928620000000  0.4158300000000  0.5072190000000 1.0
C      1  0.4928550000000  0.5841690000000  0.4927820000000 1.0
C      1  0.5071440000000  0.4158320000000  0.4927650000000 1.0
C      1  0.4927790000000  0.4928500000000  0.5841680000000 1.0
C      1  0.4927680000000  0.5071490000000  0.4158330000000 1.0
C      1  0.5072210000000  0.4928670000000  0.4158300000000 1.0
C      1  0.4158320000000  0.4927700000000  0.5071460000000 1.0
C      1  0.4158310000000  0.5072240000000  0.4928650000000 1.0
C      1  0.5841680000000  0.4927770000000  0.4928520000000 1.0
C      1  0.5071380000000  0.5841700000000  0.4927810000000 1.0
C      1  0.5072210000000  0.5071500000000  0.4158320000000 1.0
C      1  0.5841680000000  0.5072300000000  0.4928540000000 1.0
C      1  0.4928610000000  0.4158320000000  0.4927660000000 1.0
C      1  0.4928560000000  0.5841680000000  0.5072350000000 1.0
C      1  0.5071450000000  0.4158310000000  0.5072180000000 1.0
C      1  0.4927680000000  0.4928660000000  0.4158310000000 1.0
C      1  0.4927790000000  0.5071330000000  0.5841700000000 1.0
C      1  0.5072320000000  0.4928510000000  0.5841670000000 1.0
C      1  0.4158310000000  0.4927710000000  0.4928630000000 1.0
C      1  0.4158320000000  0.5072230000000  0.5071480000000 1.0
C      1  0.5841690000000  0.4927760000000  0.5071350000000 1.0
C      1  0.5452200000000  0.4401210000000  0.5312820000000 1.0
C      1  0.5312850000000  0.5452220000000  0.4401250000000 1.0
C      1  0.4401240000000  0.5312850000000  0.5452220000000 1.0
C      1  0.4547840000000  0.5598730000000  0.5313000000000 1.0
C      1  0.4547850000000  0.4401240000000  0.4687060000000 1.0
C      1  0.5452110000000  0.5598820000000  0.4687120000000 1.0
C      1  0.4687070000000  0.4547890000000  0.4401200000000 1.0
C      1  0.4687110000000  0.5452090000000  0.5598840000000 1.0
C      1  0.5312970000000  0.4547800000000  0.5598710000000 1.0
C      1  0.5598810000000  0.4687070000000  0.5452080000000 1.0
C      1  0.5598730000000  0.5312980000000  0.4547840000000 1.0
C      1  0.4401210000000  0.4687110000000  0.4547860000000 1.0
C      1  0.5452150000000  0.4401270000000  0.4687000000000 1.0
C      1  0.5312930000000  0.5452110000000  0.5598800000000 1.0
C      1  0.4401190000000  0.5312930000000  0.4547920000000 1.0
C      1  0.4547800000000  0.5598790000000  0.4687180000000 1.0
C      1  0.4547890000000  0.4401180000000  0.5312880000000 1.0
C      1  0.5452150000000  0.5598760000000  0.5312940000000 1.0
C      1  0.4687140000000  0.4547780000000  0.5598750000000 1.0
C      1  0.4687030000000  0.5452200000000  0.4401290000000 1.0
C      1  0.5312890000000  0.4547920000000  0.4401160000000 1.0
C      1  0.5598750000000  0.4687150000000  0.4547780000000 1.0
C      1  0.5598790000000  0.5312890000000  0.5452140000000 1.0
C      1  0.4401270000000  0.4687020000000  0.5452160000000 1.0
C      1  0.5628000000000  0.5073520000000  0.4617810000000 1.0
C      1  0.4617830000000  0.5628010000000  0.5073540000000 1.0
C      1  0.5073510000000  0.4617790000000  0.5627990000000 1.0
C      1  0.4371950000000  0.4926550000000  0.4617880000000 1.0
C      1  0.4371990000000  0.5073400000000  0.5382200000000 1.0
C      1  0.5628060000000  0.4926530000000  0.5382110000000 1.0
C      1  0.5382180000000  0.4371980000000  0.5073370000000 1.0
C      1  0.5382130000000  0.5628050000000  0.4926580000000 1.0
C      1  0.4617860000000  0.4371970000000  0.4926510000000 1.0
C      1  0.4926570000000  0.5382090000000  0.5628070000000 1.0
C      1  0.4926520000000  0.4617900000000  0.4371940000000 1.0
C      1  0.5073400000000  0.5382220000000  0.4372000000000 1.0
C      1  0.5628050000000  0.5073450000000  0.5382120000000 1.0
C      1  0.4617820000000  0.5628020000000  0.4926630000000 1.0
C      1  0.5073430000000  0.4617910000000  0.4371930000000 1.0
C      1  0.4372000000000  0.4926480000000  0.5382190000000 1.0
C      1  0.4371950000000  0.5073470000000  0.4617890000000 1.0
C      1  0.5628000000000  0.4926600000000  0.4617800000000 1.0
C      1  0.5382170000000  0.4371990000000  0.4926460000000 1.0
C      1  0.5382140000000  0.5628030000000  0.5073490000000 1.0
C      1  0.4617870000000  0.4371950000000  0.5073420000000 1.0
C      1  0.4926490000000  0.5382210000000  0.4372010000000 1.0
C      1  0.4926600000000  0.4617780000000  0.5628000000000 1.0
C      1  0.5073480000000  0.5382100000000  0.5628060000000 1.0
C      1  0.5613510000000  0.4640690000000  0.5131710000000 1.0
C      1  0.5131740000000  0.5613520000000  0.4640730000000 1.0
C      1  0.4640710000000  0.5131720000000  0.5613520000000 1.0
C      1  0.4386510000000  0.5359280000000  0.5131860000000 1.0
C      1  0.4386520000000  0.4640670000000  0.4868220000000 1.0
C      1  0.5613460000000  0.5359360000000  0.4868200000000 1.0
C      1  0.4868210000000  0.4386550000000  0.4640630000000 1.0
C      1  0.4868210000000  0.5613450000000  0.5359390000000 1.0
C      1  0.5131830000000  0.4386490000000  0.5359250000000 1.0
C      1  0.5359370000000  0.4868170000000  0.5613450000000 1.0
C      1  0.5359280000000  0.5131860000000  0.4386500000000 1.0
C      1  0.4640640000000  0.4868260000000  0.4386530000000 1.0
C      1  0.5613490000000  0.4640710000000  0.4868140000000 1.0
C      1  0.5131790000000  0.5613460000000  0.5359370000000 1.0
C      1  0.4640630000000  0.5131830000000  0.4386550000000 1.0
C      1  0.4386490000000  0.5359310000000  0.4868290000000 1.0
C      1  0.4386540000000  0.4640640000000  0.5131790000000 1.0
C      1  0.5613480000000  0.5359330000000  0.5131780000000 1.0
C      1  0.4868260000000  0.4386480000000  0.5359270000000 1.0
C      1  0.4868170000000  0.5613510000000  0.4640750000000 1.0
C      1  0.5131790000000  0.4386560000000  0.4640610000000 1.0
C      1  0.5359290000000  0.4868280000000  0.4386480000000 1.0
C      1  0.5359360000000  0.5131740000000  0.5613470000000 1.0
C      1  0.4640720000000  0.4868140000000  0.5613500000000 1.0
C      1  0.4454100000000  0.4573030000000  0.5486840000000 1.0
C      1  0.5486840000000  0.4454110000000  0.4573010000000 1.0
C      1  0.4573040000000  0.5486880000000  0.4454120000000 1.0
C      1  0.5545970000000  0.5426880000000  0.5486850000000 1.0
C      1  0.5545930000000  0.4573160000000  0.4513080000000 1.0
C      1  0.4454000000000  0.5426930000000  0.4513230000000 1.0
C      1  0.4513110000000  0.5545970000000  0.4573180000000 1.0
C      1  0.4513200000000  0.4453990000000  0.5426880000000 1.0
C      1  0.5486850000000  0.5545930000000  0.5426920000000 1.0
C      1  0.5426880000000  0.4513220000000  0.4453980000000 1.0
C      1  0.5426920000000  0.5486810000000  0.5545970000000 1.0
C      1  0.4573150000000  0.4513090000000  0.5545930000000 1.0
C      1  0.4454030000000  0.4573120000000  0.4513150000000 1.0
C      1  0.5486900000000  0.4454030000000  0.5426820000000 1.0
C      1  0.4573110000000  0.5486780000000  0.5546020000000 1.0
C      1  0.5545900000000  0.5426970000000  0.4513160000000 1.0
C      1  0.5546000000000  0.4573070000000  0.5486770000000 1.0
C      1  0.4454070000000  0.5426840000000  0.5486920000000 1.0
C      1  0.4513160000000  0.5545890000000  0.5426990000000 1.0
C      1  0.4513150000000  0.4454070000000  0.4573080000000 1.0
C      1  0.5486800000000  0.5546010000000  0.4573120000000 1.0
C      1  0.5426960000000  0.4513120000000  0.5545880000000 1.0
C      1  0.5426850000000  0.5486910000000  0.4454070000000 1.0
C      1  0.4573080000000  0.4513190000000  0.4454030000000 1.0
C      1  0.5072850000000  0.5689150000000  0.5255930000000 1.0
C      1  0.5255910000000  0.5072800000000  0.5689160000000 1.0
C      1  0.5689170000000  0.5255890000000  0.5072840000000 1.0
C      1  0.4927180000000  0.4310800000000  0.5255810000000 1.0
C      1  0.4927100000000  0.5689190000000  0.4744200000000 1.0
C      1  0.5072870000000  0.4310860000000  0.4744060000000 1.0
C      1  0.4744180000000  0.4927070000000  0.5689180000000 1.0
C      1  0.4744080000000  0.5072910000000  0.4310850000000 1.0
C      1  0.5255830000000  0.4927220000000  0.4310800000000 1.0
C      1  0.4310840000000  0.4744100000000  0.5072880000000 1.0
C      1  0.4310810000000  0.5255850000000  0.4927210000000 1.0
C      1  0.5689180000000  0.4744160000000  0.4927070000000 1.0
C      1  0.5072820000000  0.5689200000000  0.4744190000000 1.0
C      1  0.5255820000000  0.5072930000000  0.4310820000000 1.0
C      1  0.5689160000000  0.5255900000000  0.4927120000000 1.0
C      1  0.4927150000000  0.4310850000000  0.4744070000000 1.0
C      1  0.4927130000000  0.5689150000000  0.5255940000000 1.0
C      1  0.5072900000000  0.4310810000000  0.5255800000000 1.0
C      1  0.4744090000000  0.4927200000000  0.4310840000000 1.0
C      1  0.4744170000000  0.5072780000000  0.5689200000000 1.0
C      1  0.5255920000000  0.4927090000000  0.5689150000000 1.0
C      1  0.4310830000000  0.4744110000000  0.4927160000000 1.0
C      1  0.4310820000000  0.5255830000000  0.5072930000000 1.0
C      1  0.5689190000000  0.4744150000000  0.5072790000000 1.0
C      1  0.4852730000000  0.5750890000000  0.5147500000000 1.0
C      1  0.5147470000000  0.4852690000000  0.5750890000000 1.0
C      1  0.5750900000000  0.5147460000000  0.4852710000000 1.0
C      1  0.5147290000000  0.4249080000000  0.5147340000000 1.0
C      1  0.5147210000000  0.5750930000000  0.4852650000000 1.0
C      1  0.4852770000000  0.4249100000000  0.4852520000000 1.0
C      1  0.4852630000000  0.5147170000000  0.5750930000000 1.0
C      1  0.4852540000000  0.4852820000000  0.4249080000000 1.0
C      1  0.5147360000000  0.5147330000000  0.4249090000000 1.0
C      1  0.4249080000000  0.4852570000000  0.4852790000000 1.0
C      1  0.4249090000000  0.5147370000000  0.5147310000000 1.0
C      1  0.5750930000000  0.4852600000000  0.5147190000000 1.0
C      1  0.4852710000000  0.5750920000000  0.4852670000000 1.0
C      1  0.5147370000000  0.4852830000000  0.4249060000000 1.0
C      1  0.5750920000000  0.5147430000000  0.5147210000000 1.0
C      1  0.5147270000000  0.4249110000000  0.4852500000000 1.0
C      1  0.5147230000000  0.5750900000000  0.5147480000000 1.0
C      1  0.4852790000000  0.4249070000000  0.5147350000000 1.0
C      1  0.4852530000000  0.5147310000000  0.4249110000000 1.0
C      1  0.4852640000000  0.4852670000000  0.5750910000000 1.0
C      1  0.5147460000000  0.5147180000000  0.5750910000000 1.0
C      1  0.4249100000000  0.4852540000000  0.5147280000000 1.0
C      1  0.4249070000000  0.5147400000000  0.4852810000000 1.0
C      1  0.5750910000000  0.4852630000000  0.4852690000000 1.0
C      1  0.5570640000000  0.5177550000000  0.4538600000000 1.0
C      1  0.4538610000000  0.5570640000000  0.5177570000000 1.0
C      1  0.5177540000000  0.4538570000000  0.5570620000000 1.0
C      1  0.4429300000000  0.4822540000000  0.4538640000000 1.0
C      1  0.4429350000000  0.5177420000000  0.5461440000000 1.0
C      1  0.5570710000000  0.4822490000000  0.5461330000000 1.0
C      1  0.5461410000000  0.4429330000000  0.5177400000000 1.0
C      1  0.5461350000000  0.5570710000000  0.4822540000000 1.0
C      1  0.4538630000000  0.4429320000000  0.4822490000000 1.0
C      1  0.4822530000000  0.5461320000000  0.5570730000000 1.0
C      1  0.4822490000000  0.4538670000000  0.4429290000000 1.0
C      1  0.5177430000000  0.5461440000000  0.4429360000000 1.0
C      1  0.5570700000000  0.5177460000000  0.5461360000000 1.0
C      1  0.4538590000000  0.5570670000000  0.4822600000000 1.0
C      1  0.5177470000000  0.4538680000000  0.4429270000000 1.0
C      1  0.4429360000000  0.4822450000000  0.5461400000000 1.0
C      1  0.4429290000000  0.5177510000000  0.4538670000000 1.0
C      1  0.5570650000000  0.4822580000000  0.4538560000000 1.0
C      1  0.5461390000000  0.4429360000000  0.4822430000000 1.0
C      1  0.5461370000000  0.5570670000000  0.5177510000000 1.0
C      1  0.4538650000000  0.4429290000000  0.5177460000000 1.0
C      1  0.4822460000000  0.5461430000000  0.4429380000000 1.0
C      1  0.4822570000000  0.4538560000000  0.5570640000000 1.0
C      1  0.5177510000000  0.5461330000000  0.5570710000000 1.0
C      1  0.4927320000000  0.4737590000000  0.5711940000000 1.0
C      1  0.5711950000000  0.4927320000000  0.4737600000000 1.0
C      1  0.4737630000000  0.5711960000000  0.4927350000000 1.0
C      1  0.5072770000000  0.5262280000000  0.5711980000000 1.0
C      1  0.5072700000000  0.4737730000000  0.4288010000000 1.0
C      1  0.4927210000000  0.5262410000000  0.4288070000000 1.0
C      1  0.4288020000000  0.5072730000000  0.4737710000000 1.0
C      1  0.4288060000000  0.4927210000000  0.5262380000000 1.0
C      1  0.5711980000000  0.5072740000000  0.5262300000000 1.0
C      1  0.5262360000000  0.4288050000000  0.4927180000000 1.0
C      1  0.5262320000000  0.5711970000000  0.5072790000000 1.0
C      1  0.4737690000000  0.4288020000000  0.5072690000000 1.0
C      1  0.4927230000000  0.4737720000000  0.4288020000000 1.0
C      1  0.5711980000000  0.4927270000000  0.5262290000000 1.0
C      1  0.4737640000000  0.5711950000000  0.5072820000000 1.0
C      1  0.5072680000000  0.5262410000000  0.4288060000000 1.0
C      1  0.5072790000000  0.4737590000000  0.5711930000000 1.0
C      1  0.4927300000000  0.5262270000000  0.5711990000000 1.0
C      1  0.4288050000000  0.5072680000000  0.5262400000000 1.0
C      1  0.4288020000000  0.4927260000000  0.4737700000000 1.0
C      1  0.5711940000000  0.5072790000000  0.4737620000000 1.0
C      1  0.5262370000000  0.4288040000000  0.5072650000000 1.0
C      1  0.5262310000000  0.5711980000000  0.4927310000000 1.0
C      1  0.4737680000000  0.4288030000000  0.4927210000000 1.0
END
