TITL C-112676-196-125 0.0374247613788984 1000000 -1730.40237243255 0 0 240 (C1) n - 1
REM
REM in /home/chem/mssmkc/work/GAP20/Larger-Clusters/Only-C240-new-series
REM
REM
REM
REM
REM
REM ./C.cell (db83009d4c1eceb3c2f0bef44cf3317a)
REM
REM compiler GCC version 8.3.0
REM options -cpp -mtune=generic -march=x86-64 -g -O0
REM seed -78883589 1359991063 671033285 -325494510 -1994241150 1818980952 -1967724783 -1124573460 -784014663 847856725 1294347953 -188366001 1985269105 844637855 1289802084 -1162804458 612384900 -172900083 -1783708794 -1533374661 -1614013418 -1903171046 -1171830530 824199058 1805489012 -780112022 1902193174 223450943 969121192 508140794 488615431 -1247799971 1832953344
REM
CELL 1.54180  100.00000  100.00000  100.00000   90.00000   90.00000   90.00000
LATT -1
SFAC C  
C      1  0.4349570000000  0.5143850000000  0.5051130000000 1.0
C      1  0.5053130000000  0.4280780000000  0.5128950000000 1.0
C      1  0.5168490000000  0.5063180000000  0.4353530000000 1.0
C      1  0.5651060000000  0.4850490000000  0.5062830000000 1.0
C      1  0.5660890000000  0.5172950000000  0.4935690000000 1.0
C      1  0.4341800000000  0.4838410000000  0.4952200000000 1.0
C      1  0.4955860000000  0.5711040000000  0.5170450000000 1.0
C      1  0.4923650000000  0.4314960000000  0.4818940000000 1.0
C      1  0.5059370000000  0.5722450000000  0.4861900000000 1.0
C      1  0.4866110000000  0.4933740000000  0.4308730000000 1.0
C      1  0.4832010000000  0.5075950000000  0.5654760000000 1.0
C      1  0.5144010000000  0.4932080000000  0.5660780000000 1.0
C      1  0.4359100000000  0.5146170000000  0.4929580000000 1.0
C      1  0.5045340000000  0.4310120000000  0.4833640000000 1.0
C      1  0.5149990000000  0.5054450000000  0.5668270000000 1.0
C      1  0.5656520000000  0.4847200000000  0.4940530000000 1.0
C      1  0.5653870000000  0.5161550000000  0.5057800000000 1.0
C      1  0.4344970000000  0.4821890000000  0.5073820000000 1.0
C      1  0.4936960000000  0.5718970000000  0.4858650000000 1.0
C      1  0.4930990000000  0.4282240000000  0.5140520000000 1.0
C      1  0.5078340000000  0.5707820000000  0.5175710000000 1.0
C      1  0.4847890000000  0.4954140000000  0.5657140000000 1.0
C      1  0.4877040000000  0.5055810000000  0.4310310000000 1.0
C      1  0.5179310000000  0.4940760000000  0.4349250000000 1.0
C      1  0.5538060000000  0.5294950000000  0.5375560000000 1.0
C      1  0.5406640000000  0.5595170000000  0.5268100000000 1.0
C      1  0.5285090000000  0.5370820000000  0.5581000000000 1.0
C      1  0.4438000000000  0.4719110000000  0.5408640000000 1.0
C      1  0.4458780000000  0.5255680000000  0.4602570000000 1.0
C      1  0.5586240000000  0.4733050000000  0.4607400000000 1.0
C      1  0.4610550000000  0.4359620000000  0.5260200000000 1.0
C      1  0.4616240000000  0.5614140000000  0.4756270000000 1.0
C      1  0.5361660000000  0.4419600000000  0.4718630000000 1.0
C      1  0.4714900000000  0.4635630000000  0.5583800000000 1.0
C      1  0.4724080000000  0.5355000000000  0.4419730000000 1.0
C      1  0.5299910000000  0.4616100000000  0.4456250000000 1.0
C      1  0.5582980000000  0.5282290000000  0.4599800000000 1.0
C      1  0.5356320000000  0.5592660000000  0.4718230000000 1.0
C      1  0.5282880000000  0.5388730000000  0.4466140000000 1.0
C      1  0.4422220000000  0.4704420000000  0.4633830000000 1.0
C      1  0.4377330000000  0.5260460000000  0.5382130000000 1.0
C      1  0.5566270000000  0.4734980000000  0.5391890000000 1.0
C      1  0.4595370000000  0.4425580000000  0.4716930000000 1.0
C      1  0.4646700000000  0.5592970000000  0.5295000000000 1.0
C      1  0.5347140000000  0.4423400000000  0.5270810000000 1.0
C      1  0.4752690000000  0.4605760000000  0.4363780000000 1.0
C      1  0.4729910000000  0.5411260000000  0.5568070000000 1.0
C      1  0.5273630000000  0.4617820000000  0.5530240000000 1.0
C      1  0.5447570000000  0.4481970000000  0.4627130000000 1.0
C      1  0.4614930000000  0.5419710000000  0.4473880000000 1.0
C      1  0.4482570000000  0.4647430000000  0.5524750000000 1.0
C      1  0.4544930000000  0.5562630000000  0.4651760000000 1.0
C      1  0.4540060000000  0.4407670000000  0.5367130000000 1.0
C      1  0.5514120000000  0.5530670000000  0.5335420000000 1.0
C      1  0.5419490000000  0.4565640000000  0.4515640000000 1.0
C      1  0.5383030000000  0.5451540000000  0.5519080000000 1.0
C      1  0.4607400000000  0.4563640000000  0.5535030000000 1.0
C      1  0.5489030000000  0.5417490000000  0.5429240000000 1.0
C      1  0.5533970000000  0.4659410000000  0.4496690000000 1.0
C      1  0.4495880000000  0.5329590000000  0.4485950000000 1.0
C      1  0.5428880000000  0.4485240000000  0.5365730000000 1.0
C      1  0.4656470000000  0.5526810000000  0.5526090000000 1.0
C      1  0.4472280000000  0.4597680000000  0.4561380000000 1.0
C      1  0.4574970000000  0.5538140000000  0.5399350000000 1.0
C      1  0.4481130000000  0.4472470000000  0.4644170000000 1.0
C      1  0.5437600000000  0.5531200000000  0.4622200000000 1.0
C      1  0.5395600000000  0.4567870000000  0.5476330000000 1.0
C      1  0.5404410000000  0.5443250000000  0.4516100000000 1.0
C      1  0.4645470000000  0.4533170000000  0.4408630000000 1.0
C      1  0.5521320000000  0.5352630000000  0.4491250000000 1.0
C      1  0.5509930000000  0.4661120000000  0.5500640000000 1.0
C      1  0.4419630000000  0.5367000000000  0.5456670000000 1.0
C      1  0.4713320000000  0.5644230000000  0.4952110000000 1.0
C      1  0.4927790000000  0.4711210000000  0.5601530000000 1.0
C      1  0.5621260000000  0.4939920000000  0.4706310000000 1.0
C      1  0.5278290000000  0.4370350000000  0.4924940000000 1.0
C      1  0.5301650000000  0.5646780000000  0.5069320000000 1.0
C      1  0.4700160000000  0.4350150000000  0.5054270000000 1.0
C      1  0.5069740000000  0.5293750000000  0.5614240000000 1.0
C      1  0.5092140000000  0.4702640000000  0.4390130000000 1.0
C      1  0.4939350000000  0.5291520000000  0.4392570000000 1.0
C      1  0.4416180000000  0.5053860000000  0.4704370000000 1.0
C      1  0.4394000000000  0.4918040000000  0.5298550000000 1.0
C      1  0.5590210000000  0.5081330000000  0.5293600000000 1.0
C      1  0.4720740000000  0.5640640000000  0.5087670000000 1.0
C      1  0.4955970000000  0.4701100000000  0.4367210000000 1.0
C      1  0.5598440000000  0.4942290000000  0.5294710000000 1.0
C      1  0.5277580000000  0.4369300000000  0.5061260000000 1.0
C      1  0.5291780000000  0.5647220000000  0.4931540000000 1.0
C      1  0.4697180000000  0.4367450000000  0.4917030000000 1.0
C      1  0.5076040000000  0.5297700000000  0.4409030000000 1.0
C      1  0.5064720000000  0.4703350000000  0.5588570000000 1.0
C      1  0.4931450000000  0.5302500000000  0.5607250000000 1.0
C      1  0.4381340000000  0.5055320000000  0.5290250000000 1.0
C      1  0.4402930000000  0.4916900000000  0.4712060000000 1.0
C      1  0.5622070000000  0.5078820000000  0.4703910000000 1.0
C      1  0.5524660000000  0.5257550000000  0.5664730000000 1.0
C      1  0.5632920000000  0.5530830000000  0.5261590000000 1.0
C      1  0.5325130000000  0.5581320000000  0.5516490000000 1.0
C      1  0.4479500000000  0.4734320000000  0.5636790000000 1.0
C      1  0.4493180000000  0.5243700000000  0.4373350000000 1.0
C      1  0.5548330000000  0.4722880000000  0.4373640000000 1.0
C      1  0.4425580000000  0.4467200000000  0.5324720000000 1.0
C      1  0.4438950000000  0.5494920000000  0.4703560000000 1.0
C      1  0.5572320000000  0.4490380000000  0.4697470000000 1.0
C      1  0.4641770000000  0.4453160000000  0.5459860000000 1.0
C      1  0.4645550000000  0.5528420000000  0.4552530000000 1.0
C      1  0.5260860000000  0.4330750000000  0.4476010000000 1.0
C      1  0.5530650000000  0.5287910000000  0.4368280000000 1.0
C      1  0.5569230000000  0.5528940000000  0.4680310000000 1.0
C      1  0.5232060000000  0.5674010000000  0.4487140000000 1.0
C      1  0.4549010000000  0.4632610000000  0.4451970000000 1.0
C      1  0.4477060000000  0.5325430000000  0.5572960000000 1.0
C      1  0.5519850000000  0.4725260000000  0.5623960000000 1.0
C      1  0.4367320000000  0.4468490000000  0.4729040000000 1.0
C      1  0.4467420000000  0.5462130000000  0.5358600000000 1.0
C      1  0.5557480000000  0.4493010000000  0.5302010000000 1.0
C      1  0.4688620000000  0.4420170000000  0.4469710000000 1.0
C      1  0.4741720000000  0.5639820000000  0.5535120000000 1.0
C      1  0.5232910000000  0.4331610000000  0.5504020000000 1.0
C      1  0.5163830000000  0.4801900000000  0.5622450000000 1.0
C      1  0.5639520000000  0.5185580000000  0.4801700000000 1.0
C      1  0.4824770000000  0.5677370000000  0.5184120000000 1.0
C      1  0.4820990000000  0.5208650000000  0.5626840000000 1.0
C      1  0.4853090000000  0.4802460000000  0.4335680000000 1.0
C      1  0.5177630000000  0.5197810000000  0.4381140000000 1.0
C      1  0.4363980000000  0.4823510000000  0.4818430000000 1.0
C      1  0.4362300000000  0.5157480000000  0.5184780000000 1.0
C      1  0.5621250000000  0.4838680000000  0.5194960000000 1.0
C      1  0.5177560000000  0.4328700000000  0.5157110000000 1.0
C      1  0.5186480000000  0.5681040000000  0.4836910000000 1.0
C      1  0.4792680000000  0.4350940000000  0.4808150000000 1.0
C      1  0.5192970000000  0.4805910000000  0.4369990000000 1.0
C      1  0.5618480000000  0.5178210000000  0.5189330000000 1.0
C      1  0.4809140000000  0.5676620000000  0.4846080000000 1.0
C      1  0.4851970000000  0.5183780000000  0.4347610000000 1.0
C      1  0.4835550000000  0.4819530000000  0.5638760000000 1.0
C      1  0.5167070000000  0.5188500000000  0.5648180000000 1.0
C      1  0.4375770000000  0.4808180000000  0.5205680000000 1.0
C      1  0.4395060000000  0.5160350000000  0.4799390000000 1.0
C      1  0.5635310000000  0.4835320000000  0.4807010000000 1.0
C      1  0.5179050000000  0.4336650000000  0.4823070000000 1.0
C      1  0.5209250000000  0.5671760000000  0.5179760000000 1.0
C      1  0.4802750000000  0.4319310000000  0.5156610000000 1.0
C      1  0.5484680000000  0.4518670000000  0.5072670000000 1.0
C      1  0.5053200000000  0.5515530000000  0.4532060000000 1.0
C      1  0.4500780000000  0.5086850000000  0.5514890000000 1.0
C      1  0.4513080000000  0.5484160000000  0.5103630000000 1.0
C      1  0.4476250000000  0.4496330000000  0.4937310000000 1.0
C      1  0.5502930000000  0.5504160000000  0.4910280000000 1.0
C      1  0.4928520000000  0.4482790000000  0.4493910000000 1.0
C      1  0.4948790000000  0.5530260000000  0.5494110000000 1.0
C      1  0.5047110000000  0.4485150000000  0.5466680000000 1.0
C      1  0.5480140000000  0.4935810000000  0.5514710000000 1.0
C      1  0.5501050000000  0.5077730000000  0.4480070000000 1.0
C      1  0.4531800000000  0.4886720000000  0.4491790000000 1.0
C      1  0.5488150000000  0.4517660000000  0.4922620000000 1.0
C      1  0.5094450000000  0.5518070000000  0.5492470000000 1.0
C      1  0.4536850000000  0.5036960000000  0.4481070000000 1.0
C      1  0.4508390000000  0.5485820000000  0.4946340000000 1.0
C      1  0.4483930000000  0.4485400000000  0.5084530000000 1.0
C      1  0.5511180000000  0.5502460000000  0.5056490000000 1.0
C      1  0.4897260000000  0.4493270000000  0.5473730000000 1.0
C      1  0.4902790000000  0.5502980000000  0.4528380000000 1.0
C      1  0.5075060000000  0.4479350000000  0.4508360000000 1.0
C      1  0.5504800000000  0.4933590000000  0.4480250000000 1.0
C      1  0.5478360000000  0.5078640000000  0.5517980000000 1.0
C      1  0.4511070000000  0.4940140000000  0.5524790000000 1.0
C      1  0.5135480000000  0.5413100000000  0.4471890000000 1.0
C      1  0.4410410000000  0.5126700000000  0.5411350000000 1.0
C      1  0.5383500000000  0.4433900000000  0.5130010000000 1.0
C      1  0.4886660000000  0.4580950000000  0.4399880000000 1.0
C      1  0.4875920000000  0.5424540000000  0.5561000000000 1.0
C      1  0.5126750000000  0.4589470000000  0.5525870000000 1.0
C      1  0.5556040000000  0.4876360000000  0.5411600000000 1.0
C      1  0.5577520000000  0.5140070000000  0.4583060000000 1.0
C      1  0.4448930000000  0.4840280000000  0.4600060000000 1.0
C      1  0.4613590000000  0.5574080000000  0.5157400000000 1.0
C      1  0.4579000000000  0.4425350000000  0.4862460000000 1.0
C      1  0.5397100000000  0.5586380000000  0.4857550000000 1.0
C      1  0.5145160000000  0.5406380000000  0.5567460000000 1.0
C      1  0.4467730000000  0.5109430000000  0.4585380000000 1.0
C      1  0.5389270000000  0.4432300000000  0.4860990000000 1.0
C      1  0.4850160000000  0.4600790000000  0.5555980000000 1.0
C      1  0.4858330000000  0.5396430000000  0.4444200000000 1.0
C      1  0.5154860000000  0.4586970000000  0.4452960000000 1.0
C      1  0.5579710000000  0.4875050000000  0.4586560000000 1.0
C      1  0.5534980000000  0.5151230000000  0.5407760000000 1.0
C      1  0.4442820000000  0.4864630000000  0.5421170000000 1.0
C      1  0.4595890000000  0.5585920000000  0.4893830000000 1.0
C      1  0.4582220000000  0.4389920000000  0.5125320000000 1.0
C      1  0.5418700000000  0.5588330000000  0.5124380000000 1.0
C      1  0.5560880000000  0.4580340000000  0.5191300000000 1.0
C      1  0.5145440000000  0.5626190000000  0.4582810000000 1.0
C      1  0.4563730000000  0.5214610000000  0.5577930000000 1.0
C      1  0.4445450000000  0.5414290000000  0.5218070000000 1.0
C      1  0.4384260000000  0.4561120000000  0.4834440000000 1.0
C      1  0.5577280000000  0.5443040000000  0.4792210000000 1.0
C      1  0.4799060000000  0.4415780000000  0.4555140000000 1.0
C      1  0.4845760000000  0.5629610000000  0.5441120000000 1.0
C      1  0.5141640000000  0.4378370000000  0.5412590000000 1.0
C      1  0.5421320000000  0.4818210000000  0.5594770000000 1.0
C      1  0.5435800000000  0.5193150000000  0.4402830000000 1.0
C      1  0.4596980000000  0.4770200000000  0.4423230000000 1.0
C      1  0.5570200000000  0.4578290000000  0.4807560000000 1.0
C      1  0.5213670000000  0.5594600000000  0.5432940000000 1.0
C      1  0.4592190000000  0.5144330000000  0.4385050000000 1.0
C      1  0.4444380000000  0.5414620000000  0.4816930000000 1.0
C      1  0.4423210000000  0.4551410000000  0.5212120000000 1.0
C      1  0.5591910000000  0.5435740000000  0.5168810000000 1.0
C      1  0.4778980000000  0.4422550000000  0.5410440000000 1.0
C      1  0.4782370000000  0.5566950000000  0.4596170000000 1.0
C      1  0.5166130000000  0.4372880000000  0.4566940000000 1.0
C      1  0.5449180000000  0.4815500000000  0.4400850000000 1.0
C      1  0.5425570000000  0.5170330000000  0.5626320000000 1.0
C      1  0.4573370000000  0.4838070000000  0.5619370000000 1.0
C      1  0.4697590000000  0.5272180000000  0.5594600000000 1.0
C      1  0.5588910000000  0.4710660000000  0.5251760000000 1.0
C      1  0.5224960000000  0.5640430000000  0.4706780000000 1.0
C      1  0.5289010000000  0.4751560000000  0.5589970000000 1.0
C      1  0.5301250000000  0.5254120000000  0.4409900000000 1.0
C      1  0.4725150000000  0.4744350000000  0.4359000000000 1.0
C      1  0.4380620000000  0.5286060000000  0.5242840000000 1.0
C      1  0.4378390000000  0.4692300000000  0.4769620000000 1.0
C      1  0.5606880000000  0.5311070000000  0.4738880000000 1.0
C      1  0.4734660000000  0.4395200000000  0.4685890000000 1.0
C      1  0.4778970000000  0.5644170000000  0.5311840000000 1.0
C      1  0.5218110000000  0.4369310000000  0.5286210000000 1.0
C      1  0.4718210000000  0.5220140000000  0.4372710000000 1.0
C      1  0.5602550000000  0.4708250000000  0.4748280000000 1.0
C      1  0.5270160000000  0.5626910000000  0.5301680000000 1.0
C      1  0.5316830000000  0.4751410000000  0.4401340000000 1.0
C      1  0.5296800000000  0.5239190000000  0.5628700000000 1.0
C      1  0.4703920000000  0.4771700000000  0.5626100000000 1.0
C      1  0.4431590000000  0.5285030000000  0.4743790000000 1.0
C      1  0.4409150000000  0.4685410000000  0.5269620000000 1.0
C      1  0.5587880000000  0.5305340000000  0.5237440000000 1.0
C      1  0.4749480000000  0.4353660000000  0.5284800000000 1.0
C      1  0.4752890000000  0.5632960000000  0.4723260000000 1.0
C      1  0.5232530000000  0.4367660000000  0.4697380000000 1.0
END
