TITL C-112676-196-198 100.139364410121 1000000 -1647.80867989647 0 0 240 (C1) n - 1
REM
REM in /home/chem/mssmkc/work/GAP20/Larger-Clusters/Only-C240-new-series
REM
REM
REM
REM
REM
REM ./C.cell (c58642faaf353743302a0f2d8ff18644)
REM
REM compiler GCC version 8.3.0
REM options -cpp -mtune=generic -march=x86-64 -g -O0
REM seed -247414565 -160907175 1800384045 462335206 164563927 1566424356 -815870413 -634202463 235721216 2020694919 -763311063 214498537 575201794 -384492310 598375190 444459350 -1719422107 1515174970 1223334286 77018669 2019490800 -1218862452 1682160226 -287126913 442139086 -628023059 -1026640080 1064981970 -825715490 794648077 1077522884 1537881137 -1974972191
REM
CELL 1.54180  100.00000  100.00000  100.00000   90.00000   90.00000   90.00000
LATT -1
SFAC C  
C      1  0.4935040000000  0.4645940000000  0.5552100000000 1.0
C      1  0.4633340000000  0.5551990000000  0.4934110000000 1.0
C      1  0.5560400000000  0.4930770000000  0.4617100000000 1.0
C      1  0.5072630000000  0.4639660000000  0.4425280000000 1.0
C      1  0.5064450000000  0.5365710000000  0.5554680000000 1.0
C      1  0.4924590000000  0.5354120000000  0.4443260000000 1.0
C      1  0.5350450000000  0.5566180000000  0.5066680000000 1.0
C      1  0.5365650000000  0.4445550000000  0.4906010000000 1.0
C      1  0.4643820000000  0.4438810000000  0.5076880000000 1.0
C      1  0.4442910000000  0.4930850000000  0.5365420000000 1.0
C      1  0.4438910000000  0.5061780000000  0.4646810000000 1.0
C      1  0.5553480000000  0.5078100000000  0.5342830000000 1.0
C      1  0.4917810000000  0.5367730000000  0.5562620000000 1.0
C      1  0.4645150000000  0.4435950000000  0.4930540000000 1.0
C      1  0.5559030000000  0.5077470000000  0.4622160000000 1.0
C      1  0.5070610000000  0.5358650000000  0.4435820000000 1.0
C      1  0.5081550000000  0.4644160000000  0.5544200000000 1.0
C      1  0.4926620000000  0.4634710000000  0.4434380000000 1.0
C      1  0.5365200000000  0.4444810000000  0.5052820000000 1.0
C      1  0.5353840000000  0.5561420000000  0.4920490000000 1.0
C      1  0.4630140000000  0.5559390000000  0.5080780000000 1.0
C      1  0.4436770000000  0.5077670000000  0.5368290000000 1.0
C      1  0.4440440000000  0.4915680000000  0.4644820000000 1.0
C      1  0.5560830000000  0.4932020000000  0.5338080000000 1.0
C      1  0.4817190000000  0.4931110000000  0.5791360000000 1.0
C      1  0.4920830000000  0.5786670000000  0.4836800000000 1.0
C      1  0.5794740000000  0.4807620000000  0.4900820000000 1.0
C      1  0.5183420000000  0.4932930000000  0.4191780000000 1.0
C      1  0.5165150000000  0.5071850000000  0.5780570000000 1.0
C      1  0.4829890000000  0.5065650000000  0.4209280000000 1.0
C      1  0.5060500000000  0.5798050000000  0.5186690000000 1.0
C      1  0.5082630000000  0.4208730000000  0.4817240000000 1.0
C      1  0.4933380000000  0.4211180000000  0.5198540000000 1.0
C      1  0.4210350000000  0.4835130000000  0.5075790000000 1.0
C      1  0.4204520000000  0.5184420000000  0.4933900000000 1.0
C      1  0.5786400000000  0.5183360000000  0.5062030000000 1.0
C      1  0.4805790000000  0.5077480000000  0.5794120000000 1.0
C      1  0.4937890000000  0.4206410000000  0.4838240000000 1.0
C      1  0.5788560000000  0.5166890000000  0.4916560000000 1.0
C      1  0.5191200000000  0.5079510000000  0.4195800000000 1.0
C      1  0.5183640000000  0.4926630000000  0.5777220000000 1.0
C      1  0.4817090000000  0.4919820000000  0.4207550000000 1.0
C      1  0.5079680000000  0.4211060000000  0.5184050000000 1.0
C      1  0.5066240000000  0.5789130000000  0.4820270000000 1.0
C      1  0.4914050000000  0.5796690000000  0.5197210000000 1.0
C      1  0.4203680000000  0.5194670000000  0.5080490000000 1.0
C      1  0.4210220000000  0.4818110000000  0.4930520000000 1.0
C      1  0.5794700000000  0.4816290000000  0.5047480000000 1.0
C      1  0.4479040000000  0.5299900000000  0.5318390000000 1.0
C      1  0.5292910000000  0.5310690000000  0.4478780000000 1.0
C      1  0.5314110000000  0.4495370000000  0.5272660000000 1.0
C      1  0.5506420000000  0.5293520000000  0.4687600000000 1.0
C      1  0.5516010000000  0.4712280000000  0.5282110000000 1.0
C      1  0.4493380000000  0.4697070000000  0.4699760000000 1.0
C      1  0.4695850000000  0.5316070000000  0.5520600000000 1.0
C      1  0.4708930000000  0.4686060000000  0.4494570000000 1.0
C      1  0.5299530000000  0.4699180000000  0.5488080000000 1.0
C      1  0.4703940000000  0.4484440000000  0.4711660000000 1.0
C      1  0.4680240000000  0.5518130000000  0.5303150000000 1.0
C      1  0.5300770000000  0.5507130000000  0.4701820000000 1.0
C      1  0.4497280000000  0.4713910000000  0.5303890000000 1.0
C      1  0.5292290000000  0.4697590000000  0.4468640000000 1.0
C      1  0.5294810000000  0.5515900000000  0.5285500000000 1.0
C      1  0.5512440000000  0.4709330000000  0.4665690000000 1.0
C      1  0.5497700000000  0.5297130000000  0.5292690000000 1.0
C      1  0.4490210000000  0.5280460000000  0.4700790000000 1.0
C      1  0.4713870000000  0.4699320000000  0.5509570000000 1.0
C      1  0.4709780000000  0.5290070000000  0.4500460000000 1.0
C      1  0.5280460000000  0.5305180000000  0.5495910000000 1.0
C      1  0.4695950000000  0.5495900000000  0.4718090000000 1.0
C      1  0.4696240000000  0.4493200000000  0.5295370000000 1.0
C      1  0.5307810000000  0.4493290000000  0.4686610000000 1.0
C      1  0.4815590000000  0.4401130000000  0.4714340000000 1.0
C      1  0.4408480000000  0.4695730000000  0.4811160000000 1.0
C      1  0.4703310000000  0.4796270000000  0.4408010000000 1.0
C      1  0.5207750000000  0.4406550000000  0.5275470000000 1.0
C      1  0.5189220000000  0.5592190000000  0.4700150000000 1.0
C      1  0.4787860000000  0.5605760000000  0.5303030000000 1.0
C      1  0.5602190000000  0.4714550000000  0.5173710000000 1.0
C      1  0.5590470000000  0.5289330000000  0.4798760000000 1.0
C      1  0.4392140000000  0.5299940000000  0.5210140000000 1.0
C      1  0.5302400000000  0.4809490000000  0.5574710000000 1.0
C      1  0.5295350000000  0.5204560000000  0.4389280000000 1.0
C      1  0.4697120000000  0.5207360000000  0.5606810000000 1.0
C      1  0.4805360000000  0.5583060000000  0.4718090000000 1.0
C      1  0.4400930000000  0.5282080000000  0.4807010000000 1.0
C      1  0.4710660000000  0.5180550000000  0.4413360000000 1.0
C      1  0.5187080000000  0.5602960000000  0.5285670000000 1.0
C      1  0.5197280000000  0.4407250000000  0.4688210000000 1.0
C      1  0.4803510000000  0.4404630000000  0.5299010000000 1.0
C      1  0.5584900000000  0.5302070000000  0.5182830000000 1.0
C      1  0.5602370000000  0.4705800000000  0.4771480000000 1.0
C      1  0.4411080000000  0.4714750000000  0.5193990000000 1.0
C      1  0.5280870000000  0.5193930000000  0.5580400000000 1.0
C      1  0.5287980000000  0.4805860000000  0.4382480000000 1.0
C      1  0.4715230000000  0.4806780000000  0.5596940000000 1.0
C      1  0.4495440000000  0.5394720000000  0.5220600000000 1.0
C      1  0.5390020000000  0.5215470000000  0.4493350000000 1.0
C      1  0.5217840000000  0.4511790000000  0.5369230000000 1.0
C      1  0.5488210000000  0.5386860000000  0.4786090000000 1.0
C      1  0.5499290000000  0.4617430000000  0.5184620000000 1.0
C      1  0.4512140000000  0.4601690000000  0.4795510000000 1.0
C      1  0.4601740000000  0.5217630000000  0.5503790000000 1.0
C      1  0.4611360000000  0.4780570000000  0.4512400000000 1.0
C      1  0.5395480000000  0.4795040000000  0.5470560000000 1.0
C      1  0.4799320000000  0.4501370000000  0.4614990000000 1.0
C      1  0.4777780000000  0.5502470000000  0.5398220000000 1.0
C      1  0.5205070000000  0.5490630000000  0.4605190000000 1.0
C      1  0.4512730000000  0.4617070000000  0.5208110000000 1.0
C      1  0.5386470000000  0.4796220000000  0.4484090000000 1.0
C      1  0.5197990000000  0.5497950000000  0.5380690000000 1.0
C      1  0.5497050000000  0.4613240000000  0.4762590000000 1.0
C      1  0.5481710000000  0.5395900000000  0.5199330000000 1.0
C      1  0.4505630000000  0.5376690000000  0.4797330000000 1.0
C      1  0.4617960000000  0.4795750000000  0.5493940000000 1.0
C      1  0.4613890000000  0.5193580000000  0.4515840000000 1.0
C      1  0.5376420000000  0.5209150000000  0.5477220000000 1.0
C      1  0.4791600000000  0.5480100000000  0.4621660000000 1.0
C      1  0.4794060000000  0.4510900000000  0.5390010000000 1.0
C      1  0.5210890000000  0.4509110000000  0.4591580000000 1.0
C      1  0.5193640000000  0.4607530000000  0.5468680000000 1.0
C      1  0.4591190000000  0.5493040000000  0.5196500000000 1.0
C      1  0.5487440000000  0.5192170000000  0.4590480000000 1.0
C      1  0.4817270000000  0.4596580000000  0.4513160000000 1.0
C      1  0.4801840000000  0.5406360000000  0.5496400000000 1.0
C      1  0.5184770000000  0.5397180000000  0.4504350000000 1.0
C      1  0.5391770000000  0.5486600000000  0.4808370000000 1.0
C      1  0.5403570000000  0.4517380000000  0.5165160000000 1.0
C      1  0.4610150000000  0.4504880000000  0.4815620000000 1.0
C      1  0.4503650000000  0.5193150000000  0.5407600000000 1.0
C      1  0.4512860000000  0.4802580000000  0.4608420000000 1.0
C      1  0.5493510000000  0.4816630000000  0.5374190000000 1.0
C      1  0.5176310000000  0.5400100000000  0.5478630000000 1.0
C      1  0.4606670000000  0.4514760000000  0.5188090000000 1.0
C      1  0.5487910000000  0.4817960000000  0.4578180000000 1.0
C      1  0.4812800000000  0.5385260000000  0.4520560000000 1.0
C      1  0.4818990000000  0.4608300000000  0.5486140000000 1.0
C      1  0.5188690000000  0.4604550000000  0.4492350000000 1.0
C      1  0.5400960000000  0.4515600000000  0.4790440000000 1.0
C      1  0.5386380000000  0.5495470000000  0.5180240000000 1.0
C      1  0.4601110000000  0.5476160000000  0.4821450000000 1.0
C      1  0.4517780000000  0.4817830000000  0.5398450000000 1.0
C      1  0.4512630000000  0.5174040000000  0.4610440000000 1.0
C      1  0.5477120000000  0.5188920000000  0.5381530000000 1.0
C      1  0.4007170000000  0.4897990000000  0.5013510000000 1.0
C      1  0.4890220000000  0.5007840000000  0.4003910000000 1.0
C      1  0.5125030000000  0.3951740000000  0.4867540000000 1.0
C      1  0.5931420000000  0.4775220000000  0.4900570000000 1.0
C      1  0.6045020000000  0.5139380000000  0.5101700000000 1.0
C      1  0.4067070000000  0.5215290000000  0.4929590000000 1.0
C      1  0.5107890000000  0.5005000000000  0.5983910000000 1.0
C      1  0.5210370000000  0.4933800000000  0.4053420000000 1.0
C      1  0.4788990000000  0.4924770000000  0.5929230000000 1.0
C      1  0.4934620000000  0.4075440000000  0.5234600000000 1.0
C      1  0.4979730000000  0.5991410000000  0.4898250000000 1.0
C      1  0.5062800000000  0.5935930000000  0.5215920000000 1.0
C      1  0.4067570000000  0.5229050000000  0.5079890000000 1.0
C      1  0.4858670000000  0.4887780000000  0.3947480000000 1.0
C      1  0.5098730000000  0.6048870000000  0.4864160000000 1.0
C      1  0.5991540000000  0.5105520000000  0.4980840000000 1.0
C      1  0.5931920000000  0.4785020000000  0.5050990000000 1.0
C      1  0.3951310000000  0.4863270000000  0.4893970000000 1.0
C      1  0.5144670000000  0.4884530000000  0.6036370000000 1.0
C      1  0.5220850000000  0.5084570000000  0.4058750000000 1.0
C      1  0.4775280000000  0.5075020000000  0.5931160000000 1.0
C      1  0.4912320000000  0.5933220000000  0.5229610000000 1.0
C      1  0.5004910000000  0.4005470000000  0.4903350000000 1.0
C      1  0.5084600000000  0.4074810000000  0.5219320000000 1.0
C      1  0.5107180000000  0.5914630000000  0.4855350000000 1.0
C      1  0.6047430000000  0.4712860000000  0.5045090000000 1.0
C      1  0.4705390000000  0.5069160000000  0.6048500000000 1.0
C      1  0.4914750000000  0.6049920000000  0.5300650000000 1.0
C      1  0.4897560000000  0.4082010000000  0.4899630000000 1.0
C      1  0.5081530000000  0.3961490000000  0.5295060000000 1.0
C      1  0.4085580000000  0.4853610000000  0.4887380000000 1.0
C      1  0.3951760000000  0.5301530000000  0.5075630000000 1.0
C      1  0.5914520000000  0.5110510000000  0.4873840000000 1.0
C      1  0.5290080000000  0.5085850000000  0.3940980000000 1.0
C      1  0.5151070000000  0.4880860000000  0.5901750000000 1.0
C      1  0.4851570000000  0.4879300000000  0.4081790000000 1.0
C      1  0.5128890000000  0.4085940000000  0.4855330000000 1.0
C      1  0.5910530000000  0.5147510000000  0.5106430000000 1.0
C      1  0.4718250000000  0.4927170000000  0.6045730000000 1.0
C      1  0.4939700000000  0.3961360000000  0.5309740000000 1.0
C      1  0.4874910000000  0.5911360000000  0.4892920000000 1.0
C      1  0.5056850000000  0.6051100000000  0.5288640000000 1.0
C      1  0.3952540000000  0.5289140000000  0.4933560000000 1.0
C      1  0.4085390000000  0.4892460000000  0.5119660000000 1.0
C      1  0.6047570000000  0.4703130000000  0.4902850000000 1.0
C      1  0.5281010000000  0.4943590000000  0.3937230000000 1.0
C      1  0.5110250000000  0.5112740000000  0.5907700000000 1.0
C      1  0.4883810000000  0.5112450000000  0.4084040000000 1.0
C      1  0.5065280000000  0.4750330000000  0.4331570000000 1.0
C      1  0.4754090000000  0.4344440000000  0.5078530000000 1.0
C      1  0.4343930000000  0.5060180000000  0.4757120000000 1.0
C      1  0.4939660000000  0.4756300000000  0.5646550000000 1.0
C      1  0.4923580000000  0.5246730000000  0.4346880000000 1.0
C      1  0.5067360000000  0.5256110000000  0.5648540000000 1.0
C      1  0.5257260000000  0.4350770000000  0.4906070000000 1.0
C      1  0.5239550000000  0.5659920000000  0.5063360000000 1.0
C      1  0.4741140000000  0.5647970000000  0.4932300000000 1.0
C      1  0.5647930000000  0.5084730000000  0.5234270000000 1.0
C      1  0.5656070000000  0.4928970000000  0.4726180000000 1.0
C      1  0.4347650000000  0.4929580000000  0.5257060000000 1.0
C      1  0.5069880000000  0.5250340000000  0.4339590000000 1.0
C      1  0.4739320000000  0.5654650000000  0.5078510000000 1.0
C      1  0.4346600000000  0.4913240000000  0.4753910000000 1.0
C      1  0.4921240000000  0.5256990000000  0.5656040000000 1.0
C      1  0.4918620000000  0.4743380000000  0.4340010000000 1.0
C      1  0.5086460000000  0.4752720000000  0.5638860000000 1.0
C      1  0.5244460000000  0.5655140000000  0.4916450000000 1.0
C      1  0.5255300000000  0.4349580000000  0.5053090000000 1.0
C      1  0.4754850000000  0.4342680000000  0.4932220000000 1.0
C      1  0.5654410000000  0.4937870000000  0.5227230000000 1.0
C      1  0.5653470000000  0.5075150000000  0.4731000000000 1.0
C      1  0.4342370000000  0.5075830000000  0.5258290000000 1.0
C      1  0.5185080000000  0.5175670000000  0.4303640000000 1.0
C      1  0.5177560000000  0.4317410000000  0.5167180000000 1.0
C      1  0.4307920000000  0.5189190000000  0.5180460000000 1.0
C      1  0.4808570000000  0.5178230000000  0.5690560000000 1.0
C      1  0.4804390000000  0.4824550000000  0.4313700000000 1.0
C      1  0.5199340000000  0.4834990000000  0.5667940000000 1.0
C      1  0.4841220000000  0.4312760000000  0.4823240000000 1.0
C      1  0.4816130000000  0.5690520000000  0.5192180000000 1.0
C      1  0.5161610000000  0.5683640000000  0.4803920000000 1.0
C      1  0.5681460000000  0.5182000000000  0.4820660000000 1.0
C      1  0.5688130000000  0.4826560000000  0.5146070000000 1.0
C      1  0.4317230000000  0.4800740000000  0.4836900000000 1.0
C      1  0.5175480000000  0.4832550000000  0.4296820000000 1.0
C      1  0.5159210000000  0.5691710000000  0.5175780000000 1.0
C      1  0.4318960000000  0.4820650000000  0.5170420000000 1.0
C      1  0.4827260000000  0.4834850000000  0.5682690000000 1.0
C      1  0.4815250000000  0.5158870000000  0.4319310000000 1.0
C      1  0.5176630000000  0.5168770000000  0.5673780000000 1.0
C      1  0.4827750000000  0.5676470000000  0.4823140000000 1.0
C      1  0.4833190000000  0.4315310000000  0.5192360000000 1.0
C      1  0.5173760000000  0.4317530000000  0.4795260000000 1.0
C      1  0.5689550000000  0.4814040000000  0.4801870000000 1.0
C      1  0.5677600000000  0.5199090000000  0.5154530000000 1.0
C      1  0.4311770000000  0.5173150000000  0.4836180000000 1.0
END
