TITL C-112676-196-29 -1.25565896401594 1000000 -1631.85992340981 0 0 240 (Th) n - 1
REM
REM in /home/chem/mssmkc/work/GAP20/Larger-Clusters/Only-C240-new-series
REM
REM
REM
REM
REM
REM ./C.cell (2f3fc68bb9f120311d5b08947c2f1929)
REM
REM compiler GCC version 8.3.0
REM options -cpp -mtune=generic -march=x86-64 -g -O0
REM seed -1600276509 -636102453 1696134392 1535167570 -656604649 -1326165866 1944953812 -54886965 -1973139302 -437282095 698428929 1141502996 -1599073337 -1109482261 2027407635 -94248726 112135916 -1934795176 1770130580 1818608443 1914471742 -334542411 1658155600 284883967 1416551635 -1332325836 -1059917559 -1847892118 1668788601 1163426306 -136158662 924779544 -276668930
REM
CELL 1.54180  100.00000  100.00000  100.00000   90.00000   90.00000   90.00000
LATT -1
SFAC C  
C      1  0.5426190000000  0.5167430000000  0.5555150000000 1.0
C      1  0.5167880000000  0.5555180000000  0.5425960000000 1.0
C      1  0.5555440000000  0.5425800000000  0.5167450000000 1.0
C      1  0.5425770000000  0.4832300000000  0.4444610000000 1.0
C      1  0.4573920000000  0.5167750000000  0.4444870000000 1.0
C      1  0.4574120000000  0.4832520000000  0.5555370000000 1.0
C      1  0.5167290000000  0.4444710000000  0.4573950000000 1.0
C      1  0.4832470000000  0.5555330000000  0.4574100000000 1.0
C      1  0.4832360000000  0.4444770000000  0.5426000000000 1.0
C      1  0.5555070000000  0.4573850000000  0.4832230000000 1.0
C      1  0.4444830000000  0.5426160000000  0.4832590000000 1.0
C      1  0.4444660000000  0.4574190000000  0.5167720000000 1.0
C      1  0.4574230000000  0.5167700000000  0.5555380000000 1.0
C      1  0.4832710000000  0.5555290000000  0.5426050000000 1.0
C      1  0.4444930000000  0.5426150000000  0.5167770000000 1.0
C      1  0.4573810000000  0.4832570000000  0.4444850000000 1.0
C      1  0.5425880000000  0.5167480000000  0.4444630000000 1.0
C      1  0.5426080000000  0.4832250000000  0.5555130000000 1.0
C      1  0.4832120000000  0.4444820000000  0.4574040000000 1.0
C      1  0.5167640000000  0.5555230000000  0.4574000000000 1.0
C      1  0.5167530000000  0.4444670000000  0.5425900000000 1.0
C      1  0.4444560000000  0.4574200000000  0.4832550000000 1.0
C      1  0.5555340000000  0.5425810000000  0.4832280000000 1.0
C      1  0.5555170000000  0.4573840000000  0.5167410000000 1.0
C      1  0.4584140000000  0.5291340000000  0.5489010000000 1.0
C      1  0.5291270000000  0.5488800000000  0.4583850000000 1.0
C      1  0.5488830000000  0.4583740000000  0.5291080000000 1.0
C      1  0.4583680000000  0.4708920000000  0.4511230000000 1.0
C      1  0.5416040000000  0.5291130000000  0.4511020000000 1.0
C      1  0.5416130000000  0.4708610000000  0.5488740000000 1.0
C      1  0.5291200000000  0.4511010000000  0.5415980000000 1.0
C      1  0.4709040000000  0.5488950000000  0.5416200000000 1.0
C      1  0.4708490000000  0.4511240000000  0.4583970000000 1.0
C      1  0.5488920000000  0.5415950000000  0.4708650000000 1.0
C      1  0.4510910000000  0.4584080000000  0.4708880000000 1.0
C      1  0.4511340000000  0.5416230000000  0.5291390000000 1.0
C      1  0.5416320000000  0.5291080000000  0.5488770000000 1.0
C      1  0.4708800000000  0.5488990000000  0.4584020000000 1.0
C      1  0.4511080000000  0.4584050000000  0.5291350000000 1.0
C      1  0.5415860000000  0.4708660000000  0.4510990000000 1.0
C      1  0.4583870000000  0.5291390000000  0.4511260000000 1.0
C      1  0.4583960000000  0.4708870000000  0.5488980000000 1.0
C      1  0.4708730000000  0.4511200000000  0.5416150000000 1.0
C      1  0.5291510000000  0.5488760000000  0.5416030000000 1.0
C      1  0.5290960000000  0.4511050000000  0.4583800000000 1.0
C      1  0.4511170000000  0.5416260000000  0.4708920000000 1.0
C      1  0.5488660000000  0.4583770000000  0.4708610000000 1.0
C      1  0.5489090000000  0.5415920000000  0.5291120000000 1.0
C      1  0.5431090000000  0.5542740000000  0.4500800000000 1.0
C      1  0.5542820000000  0.4500700000000  0.5430880000000 1.0
C      1  0.4501180000000  0.5431190000000  0.5543010000000 1.0
C      1  0.5431030000000  0.4456990000000  0.5498960000000 1.0
C      1  0.4569250000000  0.5542960000000  0.5499250000000 1.0
C      1  0.4568630000000  0.4457310000000  0.4500990000000 1.0
C      1  0.5542890000000  0.5498960000000  0.4568810000000 1.0
C      1  0.4456870000000  0.4501090000000  0.4569070000000 1.0
C      1  0.4457430000000  0.5499260000000  0.5431240000000 1.0
C      1  0.4500610000000  0.4569120000000  0.4457270000000 1.0
C      1  0.5499090000000  0.5430930000000  0.4457030000000 1.0
C      1  0.5499120000000  0.4568750000000  0.5542690000000 1.0
C      1  0.4568970000000  0.5543010000000  0.4501040000000 1.0
C      1  0.4457110000000  0.4501040000000  0.5431190000000 1.0
C      1  0.5499400000000  0.5430880000000  0.5542730000000 1.0
C      1  0.4568910000000  0.4457260000000  0.5499200000000 1.0
C      1  0.5431370000000  0.5542690000000  0.5499010000000 1.0
C      1  0.5430750000000  0.4457040000000  0.4500750000000 1.0
C      1  0.4457180000000  0.5499300000000  0.4569120000000 1.0
C      1  0.5542570000000  0.4500740000000  0.4568760000000 1.0
C      1  0.5543130000000  0.5498910000000  0.5430930000000 1.0
C      1  0.5498820000000  0.4568810000000  0.4456990000000 1.0
C      1  0.4500880000000  0.5431250000000  0.4457310000000 1.0
C      1  0.4500910000000  0.4569070000000  0.5542970000000 1.0
C      1  0.5631360000000  0.5363840000000  0.4922950000000 1.0
C      1  0.5364190000000  0.4922960000000  0.5631160000000 1.0
C      1  0.4923410000000  0.5631280000000  0.5364090000000 1.0
C      1  0.5631180000000  0.4635760000000  0.5076700000000 1.0
C      1  0.4368870000000  0.5364230000000  0.5077090000000 1.0
C      1  0.4368590000000  0.4636160000000  0.4923260000000 1.0
C      1  0.5363890000000  0.5076810000000  0.4368630000000 1.0
C      1  0.4635760000000  0.4923250000000  0.4368830000000 1.0
C      1  0.4636160000000  0.5076980000000  0.5631380000000 1.0
C      1  0.4922800000000  0.4368770000000  0.4635950000000 1.0
C      1  0.5076990000000  0.5631260000000  0.4635970000000 1.0
C      1  0.5076800000000  0.4368690000000  0.5363990000000 1.0
C      1  0.4368820000000  0.5364240000000  0.4923300000000 1.0
C      1  0.4636110000000  0.4923190000000  0.5631370000000 1.0
C      1  0.5077200000000  0.5631230000000  0.5364050000000 1.0
C      1  0.4368640000000  0.4636160000000  0.5077050000000 1.0
C      1  0.5631410000000  0.5363840000000  0.5076740000000 1.0
C      1  0.5631130000000  0.4635770000000  0.4922910000000 1.0
C      1  0.4635810000000  0.5077040000000  0.4368840000000 1.0
C      1  0.5363840000000  0.4923020000000  0.4368620000000 1.0
C      1  0.5364240000000  0.5076750000000  0.5631170000000 1.0
C      1  0.5076590000000  0.4368720000000  0.4635910000000 1.0
C      1  0.4923200000000  0.5631310000000  0.4636010000000 1.0
C      1  0.4923010000000  0.4368740000000  0.5364030000000 1.0
C      1  0.4827220000000  0.5245690000000  0.4319590000000 1.0
C      1  0.5245340000000  0.4319460000000  0.4827230000000 1.0
C      1  0.4319550000000  0.4827540000000  0.5245780000000 1.0
C      1  0.4827450000000  0.4754420000000  0.5680510000000 1.0
C      1  0.5172940000000  0.5245510000000  0.5680430000000 1.0
C      1  0.5172400000000  0.4754380000000  0.4319470000000 1.0
C      1  0.5245860000000  0.5680380000000  0.5172630000000 1.0
C      1  0.4754230000000  0.4319600000000  0.5172700000000 1.0
C      1  0.4754570000000  0.5680560000000  0.4827440000000 1.0
C      1  0.4319520000000  0.5172890000000  0.4754600000000 1.0
C      1  0.5680350000000  0.4827130000000  0.4754200000000 1.0
C      1  0.5680590000000  0.5172440000000  0.5245420000000 1.0
C      1  0.5172550000000  0.5245580000000  0.4319490000000 1.0
C      1  0.4754140000000  0.4319620000000  0.4827370000000 1.0
C      1  0.5680480000000  0.4827110000000  0.5245400000000 1.0
C      1  0.5172780000000  0.4754310000000  0.5680410000000 1.0
C      1  0.4827600000000  0.5245620000000  0.5680530000000 1.0
C      1  0.4827060000000  0.4754490000000  0.4319570000000 1.0
C      1  0.4754660000000  0.5680540000000  0.5172770000000 1.0
C      1  0.5245430000000  0.4319440000000  0.5172560000000 1.0
C      1  0.5245770000000  0.5680400000000  0.4827300000000 1.0
C      1  0.5680450000000  0.5172460000000  0.4754220000000 1.0
C      1  0.4319410000000  0.4827560000000  0.4754580000000 1.0
C      1  0.4319650000000  0.5172870000000  0.5245800000000 1.0
C      1  0.5708630000000  0.4739270000000  0.5132860000000 1.0
C      1  0.4739740000000  0.5133120000000  0.5708760000000 1.0
C      1  0.5133220000000  0.5708650000000  0.4739500000000 1.0
C      1  0.5708720000000  0.5260280000000  0.4866740000000 1.0
C      1  0.4291200000000  0.4739730000000  0.4867120000000 1.0
C      1  0.4291440000000  0.5260720000000  0.5133280000000 1.0
C      1  0.4739260000000  0.4867050000000  0.4291390000000 1.0
C      1  0.5260340000000  0.5133020000000  0.4291260000000 1.0
C      1  0.5260660000000  0.4866810000000  0.5708600000000 1.0
C      1  0.5132920000000  0.4291270000000  0.5260430000000 1.0
C      1  0.4867230000000  0.5708710000000  0.5260570000000 1.0
C      1  0.4866630000000  0.4291380000000  0.4739500000000 1.0
C      1  0.4291280000000  0.4739720000000  0.5133260000000 1.0
C      1  0.5260740000000  0.5132950000000  0.5708610000000 1.0
C      1  0.4867080000000  0.5708730000000  0.4739570000000 1.0
C      1  0.4291370000000  0.5260730000000  0.4867140000000 1.0
C      1  0.5708560000000  0.4739280000000  0.4866720000000 1.0
C      1  0.5708800000000  0.5260270000000  0.5132880000000 1.0
C      1  0.5260260000000  0.4866880000000  0.4291240000000 1.0
C      1  0.4739340000000  0.5133190000000  0.4291400000000 1.0
C      1  0.4739660000000  0.4866980000000  0.5708740000000 1.0
C      1  0.4866780000000  0.4291350000000  0.5260500000000 1.0
C      1  0.5133370000000  0.5708620000000  0.5260500000000 1.0
C      1  0.5132770000000  0.4291290000000  0.4739430000000 1.0
C      1  0.5283030000000  0.4637970000000  0.5491000000000 1.0
C      1  0.4638320000000  0.5491200000000  0.5283130000000 1.0
C      1  0.5491080000000  0.5282870000000  0.4637960000000 1.0
C      1  0.5282980000000  0.5361850000000  0.4508840000000 1.0
C      1  0.4716750000000  0.4638200000000  0.4508960000000 1.0
C      1  0.4717250000000  0.5361980000000  0.5491190000000 1.0
C      1  0.4637850000000  0.4509030000000  0.4717070000000 1.0
C      1  0.5361990000000  0.5491000000000  0.4716920000000 1.0
C      1  0.5361840000000  0.4508770000000  0.5282880000000 1.0
C      1  0.5491110000000  0.4716820000000  0.5361760000000 1.0
C      1  0.4509090000000  0.5283140000000  0.5362070000000 1.0
C      1  0.4508710000000  0.4717170000000  0.4638210000000 1.0
C      1  0.4717020000000  0.4638150000000  0.5491160000000 1.0
C      1  0.5362150000000  0.5490970000000  0.5282930000000 1.0
C      1  0.4508890000000  0.5283180000000  0.4638240000000 1.0
C      1  0.4716970000000  0.5362030000000  0.4509000000000 1.0
C      1  0.5282750000000  0.4638020000000  0.4508810000000 1.0
C      1  0.5283250000000  0.5361800000000  0.5491040000000 1.0
C      1  0.5361680000000  0.4508800000000  0.4716870000000 1.0
C      1  0.4638160000000  0.5491230000000  0.4717120000000 1.0
C      1  0.4638010000000  0.4509000000000  0.5283080000000 1.0
C      1  0.4508920000000  0.4717140000000  0.5362040000000 1.0
C      1  0.5491290000000  0.5282830000000  0.5361790000000 1.0
C      1  0.5490900000000  0.4716860000000  0.4637930000000 1.0
C      1  0.5764930000000  0.4931640000000  0.4817850000000 1.0
C      1  0.4932030000000  0.4818050000000  0.5765010000000 1.0
C      1  0.4818290000000  0.5765060000000  0.4931970000000 1.0
C      1  0.5765070000000  0.5067870000000  0.5181720000000 1.0
C      1  0.4235030000000  0.4932110000000  0.5182150000000 1.0
C      1  0.4234970000000  0.5068370000000  0.4818280000000 1.0
C      1  0.4931720000000  0.5182000000000  0.4235030000000 1.0
C      1  0.5067850000000  0.4818080000000  0.4234970000000 1.0
C      1  0.5068400000000  0.5181880000000  0.5764990000000 1.0
C      1  0.4817840000000  0.4235050000000  0.5068140000000 1.0
C      1  0.5182200000000  0.5764940000000  0.5068110000000 1.0
C      1  0.5181670000000  0.4234940000000  0.4931790000000 1.0
C      1  0.4234930000000  0.4932130000000  0.4818280000000 1.0
C      1  0.5068280000000  0.4818000000000  0.5764970000000 1.0
C      1  0.5182160000000  0.5764950000000  0.4931860000000 1.0
C      1  0.4235070000000  0.5068360000000  0.5182150000000 1.0
C      1  0.5765030000000  0.4931630000000  0.5181720000000 1.0
C      1  0.5764970000000  0.5067890000000  0.4817850000000 1.0
C      1  0.5067970000000  0.5181950000000  0.4234990000000 1.0
C      1  0.4931600000000  0.4818120000000  0.4235010000000 1.0
C      1  0.4932150000000  0.5181920000000  0.5765030000000 1.0
C      1  0.5181710000000  0.4234940000000  0.5068030000000 1.0
C      1  0.4818330000000  0.5765060000000  0.5068210000000 1.0
C      1  0.4817800000000  0.4235060000000  0.4931890000000 1.0
C      1  0.4811640000000  0.5334850000000  0.4417560000000 1.0
C      1  0.5334530000000  0.4417390000000  0.4811570000000 1.0
C      1  0.4417520000000  0.4811870000000  0.5334920000000 1.0
C      1  0.4811760000000  0.4665260000000  0.5582550000000 1.0
C      1  0.5188570000000  0.5334680000000  0.5582470000000 1.0
C      1  0.5188030000000  0.4665200000000  0.4417420000000 1.0
C      1  0.5335000000000  0.5582390000000  0.5188240000000 1.0
C      1  0.4665100000000  0.4417590000000  0.5188370000000 1.0
C      1  0.4665370000000  0.5582630000000  0.4811820000000 1.0
C      1  0.4417460000000  0.5188500000000  0.4665410000000 1.0
C      1  0.5582360000000  0.4811530000000  0.4665060000000 1.0
C      1  0.5582660000000  0.5188100000000  0.5334610000000 1.0
C      1  0.5188240000000  0.5334740000000  0.4417450000000 1.0
C      1  0.4665000000000  0.4417610000000  0.4811760000000 1.0
C      1  0.5582540000000  0.4811500000000  0.5334590000000 1.0
C      1  0.5188360000000  0.4665150000000  0.5582440000000 1.0
C      1  0.4811970000000  0.5334800000000  0.5582580000000 1.0
C      1  0.4811430000000  0.4665320000000  0.4417530000000 1.0
C      1  0.4665470000000  0.5582610000000  0.5188430000000 1.0
C      1  0.5334630000000  0.4417370000000  0.5188180000000 1.0
C      1  0.5334900000000  0.5582410000000  0.4811630000000 1.0
C      1  0.5582480000000  0.5188130000000  0.4665080000000 1.0
C      1  0.4417340000000  0.4811900000000  0.4665390000000 1.0
C      1  0.4417640000000  0.5188470000000  0.5334940000000 1.0
C      1  0.5160770000000  0.4930580000000  0.4210490000000 1.0
C      1  0.4930380000000  0.4210550000000  0.5161000000000 1.0
C      1  0.4210570000000  0.5161270000000  0.4930820000000 1.0
C      1  0.5161260000000  0.5069320000000  0.5789420000000 1.0
C      1  0.4839180000000  0.4930600000000  0.5789500000000 1.0
C      1  0.4838780000000  0.5069500000000  0.4210590000000 1.0
C      1  0.4930790000000  0.5789490000000  0.4839040000000 1.0
C      1  0.5069120000000  0.4210530000000  0.4838920000000 1.0
C      1  0.5069710000000  0.5789430000000  0.5161040000000 1.0
C      1  0.4210510000000  0.4839230000000  0.5069630000000 1.0
C      1  0.5789530000000  0.5160770000000  0.5069200000000 1.0
C      1  0.5789390000000  0.4838740000000  0.4930360000000 1.0
C      1  0.4838740000000  0.4930680000000  0.4210580000000 1.0
C      1  0.5069210000000  0.4210510000000  0.5160960000000 1.0
C      1  0.5789490000000  0.5160770000000  0.4930370000000 1.0
C      1  0.4839230000000  0.5069420000000  0.5789510000000 1.0
C      1  0.5161220000000  0.4930500000000  0.5789410000000 1.0
C      1  0.5160820000000  0.5069400000000  0.4210500000000 1.0
C      1  0.5069620000000  0.5789450000000  0.4839000000000 1.0
C      1  0.4930290000000  0.4210570000000  0.4838960000000 1.0
C      1  0.4930880000000  0.5789470000000  0.5161080000000 1.0
C      1  0.5789430000000  0.4838730000000  0.5069180000000 1.0
C      1  0.4210610000000  0.5161260000000  0.5069640000000 1.0
C      1  0.4210470000000  0.4839230000000  0.4930800000000 1.0
END
