TITL C-112675-8135-95 -54.0353296167332 1000000 -1763.08829012285 0 0 240 (Td) n - 1
REM
REM in /home/chem/mssmkc/work/GAP20/Larger-Clusters/Only-C240-new-series
REM
REM
REM
REM
REM
REM ./C.cell (92f43df4b06298221612a7c33f48e63b)
REM
REM compiler GCC version 8.3.0
REM options -cpp -mtune=generic -march=x86-64 -g -O0
REM seed -1172701107 478805753 -2120686824 -659518126 -527204898 -736927608 1730699039 661539347 -565728524 1283928114 822651035 -632521322 865165449 1866418167 2000526545 -784883967 1334159497 -1262450755 1917324458 1335270503 -1470157853 -1037645294 1063323989 -2089270641 1893044387 616353384 850580343 -1684482284 -1937849533 2145951666 -1593798242 1808357520 -1060974126
REM
CELL 1.54180  100.00000  100.00000  100.00000   90.00000   90.00000   90.00000
LATT -1
SFAC C  
C      1  0.4640010000000  0.5561540000000  0.5462280000000 1.0
C      1  0.5462300000000  0.4640200000000  0.5561640000000 1.0
C      1  0.5561570000000  0.5462400000000  0.4640210000000 1.0
C      1  0.5359900000000  0.4438430000000  0.5462310000000 1.0
C      1  0.5359810000000  0.5561680000000  0.4537760000000 1.0
C      1  0.4640280000000  0.4438350000000  0.4537650000000 1.0
C      1  0.4537600000000  0.5359760000000  0.5561580000000 1.0
C      1  0.4537810000000  0.4640090000000  0.4438340000000 1.0
C      1  0.5462290000000  0.5359950000000  0.4438440000000 1.0
C      1  0.4438500000000  0.4537630000000  0.4640080000000 1.0
C      1  0.4438280000000  0.5462190000000  0.5359820000000 1.0
C      1  0.5561650000000  0.4537780000000  0.5359890000000 1.0
C      1  0.5561630000000  0.4640220000000  0.5462340000000 1.0
C      1  0.4640020000000  0.5462220000000  0.5561590000000 1.0
C      1  0.5462240000000  0.5561700000000  0.4640210000000 1.0
C      1  0.4438290000000  0.5359750000000  0.5462260000000 1.0
C      1  0.5561600000000  0.5359960000000  0.4537770000000 1.0
C      1  0.4438490000000  0.4640070000000  0.4537640000000 1.0
C      1  0.5359880000000  0.4537740000000  0.5561630000000 1.0
C      1  0.4640270000000  0.4537670000000  0.4438340000000 1.0
C      1  0.5359830000000  0.5462370000000  0.4438440000000 1.0
C      1  0.4537830000000  0.4438330000000  0.4640090000000 1.0
C      1  0.5462350000000  0.4438450000000  0.5359880000000 1.0
C      1  0.4537580000000  0.5561530000000  0.5359830000000 1.0
C      1  0.5363570000000  0.4427320000000  0.5001750000000 1.0
C      1  0.5001730000000  0.5363500000000  0.4427280000000 1.0
C      1  0.4427230000000  0.5001640000000  0.5363430000000 1.0
C      1  0.4636430000000  0.5572680000000  0.5001720000000 1.0
C      1  0.4636610000000  0.4427210000000  0.4998210000000 1.0
C      1  0.5363390000000  0.5572790000000  0.4998310000000 1.0
C      1  0.4998370000000  0.4636540000000  0.4427250000000 1.0
C      1  0.4998150000000  0.5363460000000  0.5572750000000 1.0
C      1  0.5001740000000  0.4636500000000  0.5572720000000 1.0
C      1  0.5572700000000  0.4998340000000  0.5363530000000 1.0
C      1  0.5572770000000  0.5001840000000  0.4636570000000 1.0
C      1  0.4427300000000  0.4998180000000  0.4636470000000 1.0
C      1  0.4427210000000  0.5363390000000  0.5001700000000 1.0
C      1  0.5363540000000  0.5001810000000  0.4427300000000 1.0
C      1  0.5001800000000  0.4427250000000  0.5363460000000 1.0
C      1  0.5572790000000  0.4636610000000  0.5001780000000 1.0
C      1  0.4427320000000  0.4636430000000  0.4998200000000 1.0
C      1  0.5572680000000  0.5363570000000  0.4998330000000 1.0
C      1  0.4636570000000  0.4998220000000  0.4427230000000 1.0
C      1  0.5363430000000  0.4998300000000  0.5572770000000 1.0
C      1  0.4636460000000  0.5001660000000  0.5572700000000 1.0
C      1  0.4998140000000  0.5572720000000  0.5363500000000 1.0
C      1  0.5001680000000  0.5572750000000  0.4636540000000 1.0
C      1  0.4998390000000  0.4427280000000  0.4636500000000 1.0
C      1  0.5239250000000  0.5027890000000  0.4354360000000 1.0
C      1  0.4354300000000  0.5239090000000  0.5027780000000 1.0
C      1  0.5027910000000  0.4354330000000  0.5239180000000 1.0
C      1  0.4760870000000  0.4972150000000  0.4354310000000 1.0
C      1  0.4760740000000  0.5027770000000  0.5645640000000 1.0
C      1  0.5239140000000  0.4972190000000  0.5645690000000 1.0
C      1  0.5645700000000  0.4760900000000  0.5027880000000 1.0
C      1  0.5645630000000  0.5239300000000  0.4972240000000 1.0
C      1  0.4354370000000  0.4760700000000  0.4972110000000 1.0
C      1  0.4972050000000  0.5645650000000  0.5239220000000 1.0
C      1  0.4972300000000  0.4354340000000  0.4760780000000 1.0
C      1  0.5027750000000  0.5645680000000  0.4760820000000 1.0
C      1  0.5027850000000  0.5239220000000  0.4354350000000 1.0
C      1  0.5239300000000  0.4354370000000  0.5027830000000 1.0
C      1  0.4354310000000  0.5027720000000  0.5239140000000 1.0
C      1  0.4972270000000  0.4760820000000  0.4354320000000 1.0
C      1  0.5027810000000  0.4760790000000  0.5645660000000 1.0
C      1  0.4972070000000  0.5239170000000  0.5645670000000 1.0
C      1  0.4760700000000  0.5645630000000  0.5027830000000 1.0
C      1  0.5239100000000  0.5645700000000  0.4972210000000 1.0
C      1  0.4760910000000  0.4354300000000  0.4972130000000 1.0
C      1  0.5645650000000  0.4972270000000  0.5239260000000 1.0
C      1  0.4354360000000  0.4972080000000  0.4760740000000 1.0
C      1  0.5645680000000  0.5027940000000  0.4760860000000 1.0
C      1  0.4770640000000  0.4566600000000  0.5325540000000 1.0
C      1  0.5325650000000  0.4770670000000  0.4566670000000 1.0
C      1  0.4566610000000  0.5325510000000  0.4770570000000 1.0
C      1  0.5229300000000  0.5433380000000  0.5325610000000 1.0
C      1  0.5229500000000  0.4566690000000  0.4674430000000 1.0
C      1  0.4770560000000  0.5433330000000  0.4674420000000 1.0
C      1  0.4674430000000  0.5229360000000  0.4566620000000 1.0
C      1  0.4674420000000  0.4770540000000  0.5433320000000 1.0
C      1  0.5325500000000  0.5229440000000  0.5433390000000 1.0
C      1  0.5433430000000  0.4674500000000  0.4770630000000 1.0
C      1  0.5433280000000  0.5325640000000  0.5229450000000 1.0
C      1  0.4566670000000  0.4674350000000  0.5229350000000 1.0
C      1  0.4566650000000  0.4770520000000  0.5325530000000 1.0
C      1  0.4770590000000  0.5325550000000  0.4566630000000 1.0
C      1  0.5325670000000  0.4566700000000  0.4770620000000 1.0
C      1  0.5433290000000  0.5229460000000  0.5325620000000 1.0
C      1  0.4566640000000  0.5229340000000  0.4674390000000 1.0
C      1  0.5433420000000  0.4770680000000  0.4674460000000 1.0
C      1  0.5229490000000  0.4674470000000  0.4566650000000 1.0
C      1  0.4770610000000  0.4674370000000  0.5433320000000 1.0
C      1  0.5229310000000  0.5325600000000  0.5433390000000 1.0
C      1  0.4674380000000  0.5433310000000  0.4770580000000 1.0
C      1  0.5325490000000  0.5433400000000  0.5229440000000 1.0
C      1  0.4674470000000  0.4566590000000  0.5229360000000 1.0
C      1  0.5104550000000  0.4994700000000  0.4379460000000 1.0
C      1  0.4379430000000  0.5104390000000  0.4994610000000 1.0
C      1  0.4994750000000  0.4379440000000  0.5104470000000 1.0
C      1  0.4895570000000  0.5005340000000  0.4379440000000 1.0
C      1  0.4895450000000  0.4994630000000  0.5620540000000 1.0
C      1  0.5104430000000  0.5005330000000  0.5620560000000 1.0
C      1  0.5620570000000  0.4895610000000  0.4994720000000 1.0
C      1  0.5620530000000  0.5104590000000  0.5005400000000 1.0
C      1  0.4379460000000  0.4895410000000  0.5005280000000 1.0
C      1  0.5005230000000  0.5620550000000  0.5104510000000 1.0
C      1  0.5005440000000  0.4379450000000  0.4895490000000 1.0
C      1  0.4994570000000  0.5620550000000  0.4895530000000 1.0
C      1  0.4994700000000  0.5104510000000  0.4379450000000 1.0
C      1  0.5104590000000  0.4379470000000  0.4994650000000 1.0
C      1  0.4379440000000  0.4994560000000  0.5104430000000 1.0
C      1  0.5005410000000  0.4895530000000  0.4379450000000 1.0
C      1  0.4994620000000  0.4895490000000  0.5620550000000 1.0
C      1  0.5005260000000  0.5104470000000  0.5620560000000 1.0
C      1  0.4895410000000  0.5620540000000  0.4994670000000 1.0
C      1  0.5104390000000  0.5620570000000  0.5005370000000 1.0
C      1  0.4895610000000  0.4379430000000  0.5005310000000 1.0
C      1  0.5620540000000  0.5005430000000  0.5104550000000 1.0
C      1  0.4379460000000  0.5005240000000  0.4895450000000 1.0
C      1  0.5620560000000  0.4994770000000  0.4895570000000 1.0
C      1  0.5734310000000  0.5239150000000  0.4864070000000 1.0
C      1  0.4863860000000  0.5734310000000  0.5239040000000 1.0
C      1  0.5238980000000  0.4864010000000  0.5734350000000 1.0
C      1  0.4265710000000  0.4760860000000  0.4863920000000 1.0
C      1  0.4265610000000  0.5238910000000  0.5135940000000 1.0
C      1  0.5734360000000  0.4761090000000  0.5136060000000 1.0
C      1  0.5136100000000  0.4265680000000  0.5239020000000 1.0
C      1  0.5135910000000  0.5734370000000  0.4761010000000 1.0
C      1  0.4864140000000  0.4265650000000  0.4760940000000 1.0
C      1  0.4760880000000  0.5135940000000  0.5734320000000 1.0
C      1  0.4761060000000  0.4863980000000  0.4265640000000 1.0
C      1  0.5239070000000  0.5136060000000  0.4265690000000 1.0
C      1  0.5238920000000  0.5734380000000  0.4864040000000 1.0
C      1  0.5734340000000  0.4864110000000  0.5239090000000 1.0
C      1  0.4863890000000  0.5238980000000  0.5734330000000 1.0
C      1  0.4761100000000  0.4265630000000  0.4863950000000 1.0
C      1  0.5239130000000  0.4265700000000  0.5136000000000 1.0
C      1  0.4760840000000  0.5734290000000  0.5136000000000 1.0
C      1  0.4265620000000  0.5135880000000  0.5238960000000 1.0
C      1  0.5734340000000  0.5136120000000  0.4761040000000 1.0
C      1  0.4265710000000  0.4863890000000  0.4760900000000 1.0
C      1  0.5135970000000  0.4760970000000  0.5734340000000 1.0
C      1  0.4864100000000  0.4760970000000  0.4265640000000 1.0
C      1  0.5136030000000  0.5239070000000  0.4265680000000 1.0
C      1  0.4765270000000  0.4370800000000  0.4563210000000 1.0
C      1  0.4563340000000  0.4765080000000  0.4370780000000 1.0
C      1  0.4370910000000  0.4563150000000  0.4765060000000 1.0
C      1  0.5234810000000  0.5629230000000  0.4563290000000 1.0
C      1  0.5234930000000  0.4370850000000  0.5436750000000 1.0
C      1  0.4764990000000  0.5629130000000  0.5436750000000 1.0
C      1  0.5436770000000  0.5234960000000  0.4370870000000 1.0
C      1  0.5436730000000  0.4765180000000  0.5629210000000 1.0
C      1  0.4563150000000  0.5234780000000  0.5629140000000 1.0
C      1  0.5629130000000  0.5436860000000  0.4765200000000 1.0
C      1  0.5629230000000  0.4563340000000  0.5234910000000 1.0
C      1  0.4370730000000  0.5436650000000  0.5234830000000 1.0
C      1  0.4370900000000  0.4765040000000  0.4563180000000 1.0
C      1  0.4765260000000  0.4563230000000  0.4370790000000 1.0
C      1  0.4563370000000  0.4370760000000  0.4765070000000 1.0
C      1  0.5629180000000  0.5234980000000  0.4563310000000 1.0
C      1  0.4370740000000  0.5234760000000  0.5436700000000 1.0
C      1  0.5629170000000  0.4765220000000  0.5436800000000 1.0
C      1  0.5234860000000  0.5436810000000  0.4370860000000 1.0
C      1  0.4765000000000  0.5436700000000  0.5629170000000 1.0
C      1  0.5234880000000  0.4563260000000  0.5629190000000 1.0
C      1  0.5436670000000  0.5629250000000  0.4765190000000 1.0
C      1  0.4563130000000  0.5629100000000  0.5234850000000 1.0
C      1  0.5436830000000  0.4370880000000  0.5234890000000 1.0
C      1  0.4890430000000  0.4438200000000  0.4538690000000 1.0
C      1  0.4538790000000  0.4890250000000  0.4438160000000 1.0
C      1  0.4438290000000  0.4538640000000  0.4890230000000 1.0
C      1  0.5109650000000  0.5561820000000  0.4538750000000 1.0
C      1  0.5109750000000  0.4438210000000  0.5461270000000 1.0
C      1  0.4890170000000  0.5561760000000  0.5461290000000 1.0
C      1  0.5461310000000  0.5109790000000  0.4438250000000 1.0
C      1  0.5461240000000  0.4890360000000  0.5561830000000 1.0
C      1  0.4538650000000  0.5109610000000  0.5561750000000 1.0
C      1  0.5561730000000  0.5461370000000  0.4890370000000 1.0
C      1  0.5561860000000  0.4538810000000  0.5109740000000 1.0
C      1  0.4438120000000  0.5461190000000  0.5109660000000 1.0
C      1  0.4438270000000  0.4890230000000  0.4538670000000 1.0
C      1  0.4890430000000  0.4538720000000  0.4438180000000 1.0
C      1  0.4538820000000  0.4438140000000  0.4890240000000 1.0
C      1  0.5561820000000  0.5109800000000  0.4538780000000 1.0
C      1  0.4438150000000  0.5109590000000  0.5461230000000 1.0
C      1  0.5561770000000  0.4890380000000  0.5461330000000 1.0
C      1  0.5109680000000  0.5461310000000  0.4438230000000 1.0
C      1  0.4890180000000  0.5461240000000  0.5561800000000 1.0
C      1  0.5109720000000  0.4538720000000  0.5561790000000 1.0
C      1  0.5461200000000  0.5561870000000  0.4890360000000 1.0
C      1  0.4538620000000  0.5561720000000  0.5109670000000 1.0
C      1  0.5461360000000  0.4438280000000  0.5109720000000 1.0
C      1  0.4514310000000  0.4616520000000  0.5104070000000 1.0
C      1  0.5104240000000  0.4514290000000  0.4616590000000 1.0
C      1  0.4616630000000  0.5104080000000  0.4514230000000 1.0
C      1  0.5485670000000  0.5383480000000  0.5104180000000 1.0
C      1  0.5485810000000  0.4616680000000  0.4895910000000 1.0
C      1  0.4514210000000  0.5383330000000  0.4895840000000 1.0
C      1  0.4895830000000  0.5485740000000  0.4616600000000 1.0
C      1  0.4895920000000  0.4514230000000  0.5383380000000 1.0
C      1  0.5104010000000  0.5485750000000  0.5383430000000 1.0
C      1  0.5383460000000  0.4895950000000  0.4514290000000 1.0
C      1  0.5383340000000  0.5104170000000  0.5485780000000 1.0
C      1  0.4616570000000  0.4895800000000  0.5485700000000 1.0
C      1  0.4616670000000  0.4514190000000  0.5104080000000 1.0
C      1  0.4514280000000  0.5104060000000  0.4616560000000 1.0
C      1  0.5104230000000  0.4616630000000  0.4514250000000 1.0
C      1  0.5383320000000  0.5485800000000  0.5104180000000 1.0
C      1  0.4616530000000  0.5485680000000  0.4895850000000 1.0
C      1  0.5383490000000  0.4514320000000  0.4895890000000 1.0
C      1  0.5485800000000  0.4895960000000  0.4616640000000 1.0
C      1  0.4514240000000  0.4895780000000  0.5383350000000 1.0
C      1  0.5485690000000  0.5104190000000  0.5383450000000 1.0
C      1  0.4895860000000  0.5383400000000  0.4514260000000 1.0
C      1  0.5104020000000  0.5383400000000  0.5485760000000 1.0
C      1  0.4895890000000  0.4616570000000  0.5485720000000 1.0
C      1  0.5339870000000  0.4272170000000  0.5237440000000 1.0
C      1  0.5237440000000  0.5339830000000  0.4272160000000 1.0
C      1  0.4272060000000  0.5237300000000  0.5339710000000 1.0
C      1  0.4660090000000  0.5727810000000  0.5237420000000 1.0
C      1  0.4660370000000  0.4272080000000  0.4762520000000 1.0
C      1  0.5339680000000  0.5727930000000  0.4762630000000 1.0
C      1  0.4762690000000  0.4660210000000  0.4272100000000 1.0
C      1  0.4762450000000  0.5339710000000  0.5727860000000 1.0
C      1  0.5237410000000  0.4660240000000  0.5727880000000 1.0
C      1  0.5727880000000  0.4762680000000  0.5339830000000 1.0
C      1  0.5727870000000  0.5237550000000  0.4660300000000 1.0
C      1  0.4272200000000  0.4762470000000  0.4660150000000 1.0
C      1  0.4272050000000  0.5339650000000  0.5237370000000 1.0
C      1  0.5339800000000  0.5237500000000  0.4272170000000 1.0
C      1  0.5237510000000  0.4272160000000  0.5339770000000 1.0
C      1  0.5727900000000  0.4660340000000  0.5237480000000 1.0
C      1  0.4272200000000  0.4660120000000  0.4762490000000 1.0
C      1  0.5727840000000  0.5339890000000  0.4762650000000 1.0
C      1  0.4660330000000  0.4762540000000  0.4272090000000 1.0
C      1  0.5339740000000  0.4762600000000  0.5727900000000 1.0
C      1  0.4660120000000  0.5237350000000  0.5727850000000 1.0
C      1  0.4762430000000  0.5727820000000  0.5339770000000 1.0
C      1  0.5237340000000  0.5727920000000  0.4660270000000 1.0
C      1  0.4762720000000  0.4272100000000  0.4660180000000 1.0
END
