TITL C-112676-196-47 0.0355079008222049 1000000 -1692.12279174762 0 0 240 (Cs) n - 1
REM
REM in /home/chem/mssmkc/work/GAP20/Larger-Clusters/Only-C240-new-series
REM
REM
REM
REM
REM
REM ./C.cell (2f3fc68bb9f120311d5b08947c2f1929)
REM
REM compiler GCC version 8.3.0
REM options -cpp -mtune=generic -march=x86-64 -g -O0
REM seed -548604334 -160015857 -1685101760 -1138063722 -1176884890 1232912778 -1817736929 847700580 -1923924540 -616017197 1312241507 1394110782 -2085826612 -1942196691 1105623834 1262671458 -911341743 1044038673 -2076165840 1559914752 -81079845 401192924 -120631463 -2141432379 -2049973404 -1817843306 -2030982614 1065993391 -907115608 1135956050 -2145318029 626090267 -635426075
REM
CELL 1.54180  100.00000  100.00000  100.00000   90.00000   90.00000   90.00000
LATT -1
SFAC C  
C      1  0.4502440000000  0.4698170000000  0.5394830000000 1.0
C      1  0.4687760000000  0.5402110000000  0.4477970000000 1.0
C      1  0.5408870000000  0.4500470000000  0.4697380000000 1.0
C      1  0.5482470000000  0.5296570000000  0.5393820000000 1.0
C      1  0.4488340000000  0.5310120000000  0.4590590000000 1.0
C      1  0.5520450000000  0.4697010000000  0.4599490000000 1.0
C      1  0.5295750000000  0.4620520000000  0.4513740000000 1.0
C      1  0.4692150000000  0.4584070000000  0.5508360000000 1.0
C      1  0.5306170000000  0.5413350000000  0.5518100000000 1.0
C      1  0.4611040000000  0.5497740000000  0.4696900000000 1.0
C      1  0.5381320000000  0.5505060000000  0.5298560000000 1.0
C      1  0.4589100000000  0.4477370000000  0.5309100000000 1.0
C      1  0.4689270000000  0.4477290000000  0.5402410000000 1.0
C      1  0.5408540000000  0.4698250000000  0.4499670000000 1.0
C      1  0.4501300000000  0.5394140000000  0.4699150000000 1.0
C      1  0.5306000000000  0.5518430000000  0.5413060000000 1.0
C      1  0.5295930000000  0.4514380000000  0.4619830000000 1.0
C      1  0.4690630000000  0.5508030000000  0.4584790000000 1.0
C      1  0.4587740000000  0.5308640000000  0.4478170000000 1.0
C      1  0.4612350000000  0.4696060000000  0.5498260000000 1.0
C      1  0.5381660000000  0.5298980000000  0.5504560000000 1.0
C      1  0.5520610000000  0.4600470000000  0.4695990000000 1.0
C      1  0.5482310000000  0.5394490000000  0.5295940000000 1.0
C      1  0.4489520000000  0.4589630000000  0.5310790000000 1.0
C      1  0.4338930000000  0.4710770000000  0.5054770000000 1.0
C      1  0.4688430000000  0.5034160000000  0.4324110000000 1.0
C      1  0.5045990000000  0.4369650000000  0.4709160000000 1.0
C      1  0.5630360000000  0.5300200000000  0.5047820000000 1.0
C      1  0.4355810000000  0.5305640000000  0.4964390000000 1.0
C      1  0.5678010000000  0.4703950000000  0.4966510000000 1.0
C      1  0.5302620000000  0.4952870000000  0.4341020000000 1.0
C      1  0.4716810000000  0.4947720000000  0.5643610000000 1.0
C      1  0.5292930000000  0.5034310000000  0.5657390000000 1.0
C      1  0.4955910000000  0.5665400000000  0.4684760000000 1.0
C      1  0.5046440000000  0.5672970000000  0.5301370000000 1.0
C      1  0.4954910000000  0.4325430000000  0.5288620000000 1.0
C      1  0.4689590000000  0.4323580000000  0.5034390000000 1.0
C      1  0.5045430000000  0.4709500000000  0.4369460000000 1.0
C      1  0.4338370000000  0.5053800000000  0.4711870000000 1.0
C      1  0.5291900000000  0.5657860000000  0.5034100000000 1.0
C      1  0.5303630000000  0.4341540000000  0.4952100000000 1.0
C      1  0.4715670000000  0.5643170000000  0.4948450000000 1.0
C      1  0.4953330000000  0.5288830000000  0.4325620000000 1.0
C      1  0.4957520000000  0.4684410000000  0.5665340000000 1.0
C      1  0.5047050000000  0.5301170000000  0.5673020000000 1.0
C      1  0.5677570000000  0.4967750000000  0.4702820000000 1.0
C      1  0.5630780000000  0.5048730000000  0.5299190000000 1.0
C      1  0.4356380000000  0.4963210000000  0.5306680000000 1.0
C      1  0.4489150000000  0.4955430000000  0.5339420000000 1.0
C      1  0.4953010000000  0.5360930000000  0.4440630000000 1.0
C      1  0.5373460000000  0.4457360000000  0.4959000000000 1.0
C      1  0.5499350000000  0.5040880000000  0.5336550000000 1.0
C      1  0.4451590000000  0.5048670000000  0.4636870000000 1.0
C      1  0.5563660000000  0.4962960000000  0.4628980000000 1.0
C      1  0.5044970000000  0.4685240000000  0.4504380000000 1.0
C      1  0.4956970000000  0.4618230000000  0.5546840000000 1.0
C      1  0.5046020000000  0.5380230000000  0.5562240000000 1.0
C      1  0.4678690000000  0.5511020000000  0.4950090000000 1.0
C      1  0.5326360000000  0.5526000000000  0.5038540000000 1.0
C      1  0.4619830000000  0.4439920000000  0.5042240000000 1.0
C      1  0.4954520000000  0.4440400000000  0.5360770000000 1.0
C      1  0.5372640000000  0.4959840000000  0.4456730000000 1.0
C      1  0.4488520000000  0.5338600000000  0.4956410000000 1.0
C      1  0.5045730000000  0.5562160000000  0.5380390000000 1.0
C      1  0.5045270000000  0.4504580000000  0.4684960000000 1.0
C      1  0.4955450000000  0.5546930000000  0.4618530000000 1.0
C      1  0.4618850000000  0.5041850000000  0.4440570000000 1.0
C      1  0.4679610000000  0.4949360000000  0.5511520000000 1.0
C      1  0.5327160000000  0.5038860000000  0.5525480000000 1.0
C      1  0.5564200000000  0.4629920000000  0.4961880000000 1.0
C      1  0.5498860000000  0.5337350000000  0.5040200000000 1.0
C      1  0.4452270000000  0.4635950000000  0.5049420000000 1.0
C      1  0.5080140000000  0.5798170000000  0.4812280000000 1.0
C      1  0.5798020000000  0.4837400000000  0.5097460000000 1.0
C      1  0.4823470000000  0.5072550000000  0.5793900000000 1.0
C      1  0.4920360000000  0.4214470000000  0.4807610000000 1.0
C      1  0.5081800000000  0.4195730000000  0.5161820000000 1.0
C      1  0.4919000000000  0.5798210000000  0.5168180000000 1.0
C      1  0.4216670000000  0.5192050000000  0.5097130000000 1.0
C      1  0.5786590000000  0.5194670000000  0.4931340000000 1.0
C      1  0.4203040000000  0.4837530000000  0.4934300000000 1.0
C      1  0.5178560000000  0.4907030000000  0.5798160000000 1.0
C      1  0.4822360000000  0.4902260000000  0.4204620000000 1.0
C      1  0.5176780000000  0.5067870000000  0.4200470000000 1.0
C      1  0.5797590000000  0.5098830000000  0.4836130000000 1.0
C      1  0.4822290000000  0.5793580000000  0.5073170000000 1.0
C      1  0.5081750000000  0.4812080000000  0.5797960000000 1.0
C      1  0.4202880000000  0.4933060000000  0.4838810000000 1.0
C      1  0.4216830000000  0.5095770000000  0.5193370000000 1.0
C      1  0.5787020000000  0.4932560000000  0.5193360000000 1.0
C      1  0.5178200000000  0.4200740000000  0.5067250000000 1.0
C      1  0.5177100000000  0.5798490000000  0.4907060000000 1.0
C      1  0.4823500000000  0.4204370000000  0.4902220000000 1.0
C      1  0.4920030000000  0.5167720000000  0.5798410000000 1.0
C      1  0.4919380000000  0.4807800000000  0.4214520000000 1.0
C      1  0.5080210000000  0.5162290000000  0.4195660000000 1.0
C      1  0.5235780000000  0.5125840000000  0.5748330000000 1.0
C      1  0.5136950000000  0.5754860000000  0.5231060000000 1.0
C      1  0.5717670000000  0.5247270000000  0.5144680000000 1.0
C      1  0.4767300000000  0.4855420000000  0.5737870000000 1.0
C      1  0.5240680000000  0.4855420000000  0.4261230000000 1.0
C      1  0.4758720000000  0.5122010000000  0.4239930000000 1.0
C      1  0.4863620000000  0.4240940000000  0.5222230000000 1.0
C      1  0.5138010000000  0.4273660000000  0.4756180000000 1.0
C      1  0.4863400000000  0.5747290000000  0.4751190000000 1.0
C      1  0.4255420000000  0.4773530000000  0.5149230000000 1.0
C      1  0.5758970000000  0.4777070000000  0.4877550000000 1.0
C      1  0.4261590000000  0.5249020000000  0.4876700000000 1.0
C      1  0.5137810000000  0.5230970000000  0.5754730000000 1.0
C      1  0.5717840000000  0.5145760000000  0.5246150000000 1.0
C      1  0.5234760000000  0.5748660000000  0.5125770000000 1.0
C      1  0.4865030000000  0.4750660000000  0.5747410000000 1.0
C      1  0.4862010000000  0.5222320000000  0.4241260000000 1.0
C      1  0.5137220000000  0.4756700000000  0.4273330000000 1.0
C      1  0.4262200000000  0.4875390000000  0.5250180000000 1.0
C      1  0.4254800000000  0.5148100000000  0.4774820000000 1.0
C      1  0.5758810000000  0.4878890000000  0.4775770000000 1.0
C      1  0.4760170000000  0.4239480000000  0.5122090000000 1.0
C      1  0.4765860000000  0.5737550000000  0.4856110000000 1.0
C      1  0.5241660000000  0.4261680000000  0.4854720000000 1.0
C      1  0.5438700000000  0.5362470000000  0.5159150000000 1.0
C      1  0.5342810000000  0.5161700000000  0.5467370000000 1.0
C      1  0.5165700000000  0.5538850000000  0.5438910000000 1.0
C      1  0.4480730000000  0.4577650000000  0.5168040000000 1.0
C      1  0.5531800000000  0.4582550000000  0.4839100000000 1.0
C      1  0.4545500000000  0.5354770000000  0.4833440000000 1.0
C      1  0.4653620000000  0.4829390000000  0.5451920000000 1.0
C      1  0.5426770000000  0.4839830000000  0.4487320000000 1.0
C      1  0.4571890000000  0.5165040000000  0.4472140000000 1.0
C      1  0.4833220000000  0.4473250000000  0.5411050000000 1.0
C      1  0.5166160000000  0.4566590000000  0.4668450000000 1.0
C      1  0.4833630000000  0.5512390000000  0.4571180000000 1.0
C      1  0.5342300000000  0.5467860000000  0.5161340000000 1.0
C      1  0.5165860000000  0.5438960000000  0.5538760000000 1.0
C      1  0.5439030000000  0.5159720000000  0.5361820000000 1.0
C      1  0.4573030000000  0.4471370000000  0.5165520000000 1.0
C      1  0.4652600000000  0.5451420000000  0.4830140000000 1.0
C      1  0.5427340000000  0.4488080000000  0.4838920000000 1.0
C      1  0.4835180000000  0.4570690000000  0.5512480000000 1.0
C      1  0.4831680000000  0.5410990000000  0.4473690000000 1.0
C      1  0.5165990000000  0.4668900000000  0.4566180000000 1.0
C      1  0.4546360000000  0.4832550000000  0.5355440000000 1.0
C      1  0.4479760000000  0.5167360000000  0.4578580000000 1.0
C      1  0.5531370000000  0.4840140000000  0.4581610000000 1.0
C      1  0.4916190000000  0.5261100000000  0.5692120000000 1.0
C      1  0.5265930000000  0.5687710000000  0.4900320000000 1.0
C      1  0.5671990000000  0.4918610000000  0.5275880000000 1.0
C      1  0.5088660000000  0.4720740000000  0.5689690000000 1.0
C      1  0.4912720000000  0.4729820000000  0.4332840000000 1.0
C      1  0.5085290000000  0.5254310000000  0.4303080000000 1.0
C      1  0.4728460000000  0.4309260000000  0.4902100000000 1.0
C      1  0.5266160000000  0.4311420000000  0.5081230000000 1.0
C      1  0.4740410000000  0.5678000000000  0.5080820000000 1.0
C      1  0.4328880000000  0.5097650000000  0.5280560000000 1.0
C      1  0.5694730000000  0.5100380000000  0.4738970000000 1.0
C      1  0.4312270000000  0.4923640000000  0.4749230000000 1.0
C      1  0.5267220000000  0.4900470000000  0.5687230000000 1.0
C      1  0.5671400000000  0.5277020000000  0.4917620000000 1.0
C      1  0.4915480000000  0.5691870000000  0.5261520000000 1.0
C      1  0.4741390000000  0.5080110000000  0.5678460000000 1.0
C      1  0.4727490000000  0.4901940000000  0.4309670000000 1.0
C      1  0.5264890000000  0.5081950000000  0.4311020000000 1.0
C      1  0.4312560000000  0.4748130000000  0.4924660000000 1.0
C      1  0.4328580000000  0.5279420000000  0.5098870000000 1.0
C      1  0.5695320000000  0.4740070000000  0.5099140000000 1.0
C      1  0.5086850000000  0.4303120000000  0.5253880000000 1.0
C      1  0.5087070000000  0.5689950000000  0.4720880000000 1.0
C      1  0.4913370000000  0.4332810000000  0.4729680000000 1.0
C      1  0.4946720000000  0.4153530000000  0.5137450000000 1.0
C      1  0.4170050000000  0.5171190000000  0.4961980000000 1.0
C      1  0.5157310000000  0.4929150000000  0.4164690000000 1.0
C      1  0.5054230000000  0.5842980000000  0.5145590000000 1.0
C      1  0.4942990000000  0.5839190000000  0.4834570000000 1.0
C      1  0.5057030000000  0.4173590000000  0.4827200000000 1.0
C      1  0.5842960000000  0.4863300000000  0.4963140000000 1.0
C      1  0.4163880000000  0.4858930000000  0.5071230000000 1.0
C      1  0.5820240000000  0.5173360000000  0.5070260000000 1.0
C      1  0.4844160000000  0.5036060000000  0.4155300000000 1.0
C      1  0.5156240000000  0.5043140000000  0.5840240000000 1.0
C      1  0.4843440000000  0.4936120000000  0.5834610000000 1.0
C      1  0.4170390000000  0.4960550000000  0.5172540000000 1.0
C      1  0.5158570000000  0.4164980000000  0.4928550000000 1.0
C      1  0.4945110000000  0.5137710000000  0.4153680000000 1.0
C      1  0.5820410000000  0.5071530000000  0.5172040000000 1.0
C      1  0.5842800000000  0.4964580000000  0.4861900000000 1.0
C      1  0.4163530000000  0.5069920000000  0.4860330000000 1.0
C      1  0.4841970000000  0.5834380000000  0.4936730000000 1.0
C      1  0.4845610000000  0.4155030000000  0.5035960000000 1.0
C      1  0.5154930000000  0.5840480000000  0.5043240000000 1.0
C      1  0.5055960000000  0.4827630000000  0.4173430000000 1.0
C      1  0.5055380000000  0.5145330000000  0.5842950000000 1.0
C      1  0.4944640000000  0.4834130000000  0.5839220000000 1.0
C      1  0.5353030000000  0.4899430000000  0.5467660000000 1.0
C      1  0.4913250000000  0.5489690000000  0.5387200000000 1.0
C      1  0.5451850000000  0.5364120000000  0.4899600000000 1.0
C      1  0.4653870000000  0.5090100000000  0.5461120000000 1.0
C      1  0.5384000000000  0.5095620000000  0.4518810000000 1.0
C      1  0.4612330000000  0.4910880000000  0.4517170000000 1.0
C      1  0.5090040000000  0.4506960000000  0.5374700000000 1.0
C      1  0.4904410000000  0.4555070000000  0.4656220000000 1.0
C      1  0.5089690000000  0.5479410000000  0.4608070000000 1.0
C      1  0.4515470000000  0.4623990000000  0.4913340000000 1.0
C      1  0.5491360000000  0.4618810000000  0.5095090000000 1.0
C      1  0.4549170000000  0.5362140000000  0.5093370000000 1.0
C      1  0.4913420000000  0.5386860000000  0.5489990000000 1.0
C      1  0.5452610000000  0.4900190000000  0.5363330000000 1.0
C      1  0.5352100000000  0.5468280000000  0.4899050000000 1.0
C      1  0.5091120000000  0.4608020000000  0.5479100000000 1.0
C      1  0.5088620000000  0.5375050000000  0.4506960000000 1.0
C      1  0.4904250000000  0.4656250000000  0.4555090000000 1.0
C      1  0.4549610000000  0.5092480000000  0.5362910000000 1.0
C      1  0.4515000000000  0.4912700000000  0.4624750000000 1.0
C      1  0.5490570000000  0.5096060000000  0.4618040000000 1.0
C      1  0.4612980000000  0.4516570000000  0.4911320000000 1.0
C      1  0.4653260000000  0.5460520000000  0.5090860000000 1.0
C      1  0.5384950000000  0.4519400000000  0.5094790000000 1.0
C      1  0.5572750000000  0.5181140000000  0.4717930000000 1.0
C      1  0.5174260000000  0.4706850000000  0.5569900000000 1.0
C      1  0.4733520000000  0.5562670000000  0.5174170000000 1.0
C      1  0.4426830000000  0.4831720000000  0.4729110000000 1.0
C      1  0.5559490000000  0.4821090000000  0.5281640000000 1.0
C      1  0.4451100000000  0.5180810000000  0.5284150000000 1.0
C      1  0.4832050000000  0.5280650000000  0.5572550000000 1.0
C      1  0.5172970000000  0.5275430000000  0.4420730000000 1.0
C      1  0.4819840000000  0.4728540000000  0.4448620000000 1.0
C      1  0.5280870000000  0.4425530000000  0.5174710000000 1.0
C      1  0.4713220000000  0.4434340000000  0.4825490000000 1.0
C      1  0.5272140000000  0.5567480000000  0.4812990000000 1.0
C      1  0.5172840000000  0.5570300000000  0.4706810000000 1.0
C      1  0.4734160000000  0.5173500000000  0.5563180000000 1.0
C      1  0.5573510000000  0.4718800000000  0.5180090000000 1.0
C      1  0.4820300000000  0.4448440000000  0.4728610000000 1.0
C      1  0.4831580000000  0.5572160000000  0.5281160000000 1.0
C      1  0.5174370000000  0.4420910000000  0.5274900000000 1.0
C      1  0.5273380000000  0.4813200000000  0.5566950000000 1.0
C      1  0.5279640000000  0.5175400000000  0.4425140000000 1.0
C      1  0.4712580000000  0.4825250000000  0.4434740000000 1.0
C      1  0.4450940000000  0.5283180000000  0.5181830000000 1.0
C      1  0.4427000000000  0.4728240000000  0.4832550000000 1.0
C      1  0.5558730000000  0.5282630000000  0.4820290000000 1.0
END
