TITL C-112676-196-115 -36.9149698533061 1000000 -1685.84709459952 0 0 240 (Cs) n - 1
REM
REM in /home/chem/mssmkc/work/GAP20/Larger-Clusters/Only-C240-new-series
REM
REM
REM
REM
REM
REM ./C.cell (db83009d4c1eceb3c2f0bef44cf3317a)
REM
REM compiler GCC version 8.3.0
REM options -cpp -mtune=generic -march=x86-64 -g -O0
REM seed -1480831084 1626744469 489519120 -1511443483 -13659763 -1808989664 -357001361 -814425173 -710969902 1567922686 1340826808 1486279178 459178219 -372172076 -2002538903 1787475532 923081868 -428404278 -704967578 1833423571 -710762388 -78692229 -1374735881 -1668222747 -1895787818 -1881043529 1206209183 -1446942747 338328033 1229975565 -1223380886 869509793 -989654999
REM
CELL 1.54180  100.00000  100.00000  100.00000   90.00000   90.00000   90.00000
LATT -1
SFAC C  
C      1  0.5179460000000  0.4647590000000  0.4470790000000 1.0
C      1  0.4473660000000  0.5180160000000  0.4651430000000 1.0
C      1  0.4650000000000  0.4471660000000  0.5180130000000 1.0
C      1  0.5178590000000  0.5352580000000  0.5525810000000 1.0
C      1  0.4821740000000  0.5348380000000  0.4474590000000 1.0
C      1  0.4818250000000  0.4652340000000  0.5526340000000 1.0
C      1  0.4469380000000  0.4817740000000  0.5349320000000 1.0
C      1  0.5526560000000  0.4820440000000  0.4647570000000 1.0
C      1  0.5523300000000  0.5182930000000  0.5344180000000 1.0
C      1  0.4654440000000  0.5524310000000  0.4823930000000 1.0
C      1  0.5370170000000  0.5539470000000  0.5191500000000 1.0
C      1  0.5349690000000  0.4474230000000  0.4820060000000 1.0
C      1  0.5180020000000  0.4471600000000  0.4650040000000 1.0
C      1  0.4470770000000  0.4647670000000  0.5179570000000 1.0
C      1  0.4651390000000  0.5180140000000  0.4473680000000 1.0
C      1  0.5191610000000  0.5539490000000  0.5370080000000 1.0
C      1  0.4820040000000  0.4474290000000  0.5349780000000 1.0
C      1  0.4823950000000  0.5524290000000  0.4654390000000 1.0
C      1  0.4474610000000  0.5348420000000  0.4821760000000 1.0
C      1  0.5526270000000  0.4652260000000  0.4818230000000 1.0
C      1  0.5525880000000  0.5352540000000  0.5178480000000 1.0
C      1  0.4647610000000  0.4820540000000  0.5526630000000 1.0
C      1  0.5344270000000  0.5182950000000  0.5523230000000 1.0
C      1  0.5349230000000  0.4817640000000  0.4469360000000 1.0
C      1  0.5403300000000  0.5176890000000  0.4920010000000 1.0
C      1  0.4929660000000  0.5402780000000  0.5179520000000 1.0
C      1  0.5168960000000  0.4932210000000  0.5396370000000 1.0
C      1  0.5399510000000  0.4831470000000  0.5072160000000 1.0
C      1  0.4596090000000  0.4823270000000  0.4923610000000 1.0
C      1  0.4595890000000  0.5169910000000  0.5075620000000 1.0
C      1  0.4923410000000  0.4596950000000  0.4824730000000 1.0
C      1  0.5074210000000  0.4600620000000  0.5172890000000 1.0
C      1  0.5081440000000  0.5392540000000  0.4830660000000 1.0
C      1  0.5174250000000  0.5072180000000  0.4594040000000 1.0
C      1  0.4821920000000  0.5078000000000  0.5401620000000 1.0
C      1  0.4824820000000  0.4921800000000  0.4596890000000 1.0
C      1  0.5396390000000  0.4932190000000  0.5168920000000 1.0
C      1  0.4920080000000  0.5176950000000  0.5403280000000 1.0
C      1  0.5179570000000  0.5402750000000  0.4929580000000 1.0
C      1  0.5401610000000  0.5077930000000  0.4821860000000 1.0
C      1  0.4596860000000  0.4921830000000  0.4824880000000 1.0
C      1  0.4594060000000  0.5072250000000  0.5174290000000 1.0
C      1  0.4923540000000  0.4823230000000  0.4596130000000 1.0
C      1  0.5075590000000  0.5169850000000  0.4595860000000 1.0
C      1  0.5072190000000  0.4831510000000  0.5399520000000 1.0
C      1  0.5172850000000  0.4600610000000  0.5074240000000 1.0
C      1  0.4830720000000  0.5392570000000  0.5081410000000 1.0
C      1  0.4824670000000  0.4596970000000  0.4923480000000 1.0
C      1  0.4643790000000  0.4398110000000  0.5057970000000 1.0
C      1  0.5056790000000  0.4641190000000  0.4397830000000 1.0
C      1  0.4399670000000  0.5058090000000  0.4644220000000 1.0
C      1  0.4649330000000  0.5596510000000  0.4947530000000 1.0
C      1  0.5367790000000  0.5595330000000  0.5061610000000 1.0
C      1  0.5356550000000  0.4402450000000  0.4943250000000 1.0
C      1  0.5057510000000  0.5356260000000  0.5602940000000 1.0
C      1  0.4943830000000  0.5354780000000  0.4400710000000 1.0
C      1  0.4940600000000  0.4646140000000  0.5599210000000 1.0
C      1  0.4396170000000  0.4939950000000  0.5356520000000 1.0
C      1  0.5600170000000  0.4942990000000  0.4641680000000 1.0
C      1  0.5596180000000  0.5060270000000  0.5350600000000 1.0
C      1  0.4644160000000  0.5058060000000  0.4399700000000 1.0
C      1  0.5057860000000  0.4398060000000  0.4643850000000 1.0
C      1  0.4397790000000  0.4641270000000  0.5056910000000 1.0
C      1  0.4641750000000  0.4943110000000  0.5600220000000 1.0
C      1  0.5350680000000  0.5060300000000  0.5596130000000 1.0
C      1  0.5356440000000  0.4939830000000  0.4396130000000 1.0
C      1  0.5061730000000  0.5595360000000  0.5367710000000 1.0
C      1  0.4943220000000  0.4402500000000  0.5356630000000 1.0
C      1  0.4947560000000  0.5596470000000  0.4649270000000 1.0
C      1  0.4400740000000  0.5354850000000  0.4943860000000 1.0
C      1  0.5599160000000  0.4646060000000  0.4940570000000 1.0
C      1  0.5602990000000  0.5356190000000  0.5057400000000 1.0
C      1  0.5683870000000  0.4997210000000  0.4736380000000 1.0
C      1  0.4744100000000  0.5679140000000  0.5000780000000 1.0
C      1  0.4992560000000  0.4739910000000  0.5685180000000 1.0
C      1  0.5681200000000  0.5005230000000  0.5257960000000 1.0
C      1  0.4315470000000  0.5004110000000  0.4738720000000 1.0
C      1  0.4311990000000  0.4993560000000  0.5261860000000 1.0
C      1  0.4739100000000  0.4314250000000  0.5005090000000 1.0
C      1  0.5262490000000  0.4317700000000  0.4996770000000 1.0
C      1  0.5229200000000  0.5617540000000  0.5026650000000 1.0
C      1  0.4997000000000  0.5260530000000  0.4315920000000 1.0
C      1  0.5005430000000  0.5260420000000  0.5686820000000 1.0
C      1  0.5003210000000  0.4736430000000  0.4314160000000 1.0
C      1  0.5685150000000  0.4739820000000  0.4992510000000 1.0
C      1  0.4736460000000  0.4997320000000  0.5683900000000 1.0
C      1  0.5000830000000  0.5679100000000  0.4744010000000 1.0
C      1  0.5686850000000  0.5260330000000  0.5005320000000 1.0
C      1  0.4314120000000  0.4736520000000  0.5003320000000 1.0
C      1  0.4315950000000  0.5260620000000  0.4997060000000 1.0
C      1  0.4738630000000  0.5004050000000  0.4315500000000 1.0
C      1  0.5261770000000  0.4993440000000  0.4311960000000 1.0
C      1  0.5258050000000  0.5005280000000  0.5681170000000 1.0
C      1  0.4996710000000  0.4317730000000  0.5262570000000 1.0
C      1  0.5026750000000  0.5617560000000  0.5229120000000 1.0
C      1  0.5004970000000  0.4314220000000  0.4739180000000 1.0
C      1  0.5504110000000  0.4599420000000  0.5043590000000 1.0
C      1  0.5047670000000  0.5499980000000  0.4598950000000 1.0
C      1  0.4591260000000  0.5044560000000  0.5505210000000 1.0
C      1  0.5512480000000  0.5406950000000  0.4951570000000 1.0
C      1  0.4496720000000  0.5402430000000  0.5045840000000 1.0
C      1  0.4493110000000  0.4592050000000  0.4955180000000 1.0
C      1  0.5044580000000  0.4498870000000  0.5404550000000 1.0
C      1  0.4955440000000  0.4492310000000  0.4594030000000 1.0
C      1  0.4958910000000  0.5505860000000  0.5410710000000 1.0
C      1  0.4594100000000  0.4955710000000  0.4493930000000 1.0
C      1  0.5400310000000  0.4959690000000  0.5500420000000 1.0
C      1  0.5405210000000  0.5042200000000  0.4490710000000 1.0
C      1  0.5505160000000  0.5044450000000  0.4591190000000 1.0
C      1  0.5043600000000  0.4599470000000  0.5504160000000 1.0
C      1  0.4599020000000  0.5500030000000  0.5047660000000 1.0
C      1  0.5500470000000  0.4959670000000  0.5400250000000 1.0
C      1  0.4490760000000  0.5042310000000  0.5405260000000 1.0
C      1  0.4493870000000  0.4955720000000  0.4594170000000 1.0
C      1  0.5045830000000  0.5402360000000  0.4496670000000 1.0
C      1  0.4955070000000  0.4591990000000  0.4493160000000 1.0
C      1  0.4951680000000  0.5407020000000  0.5512440000000 1.0
C      1  0.4593960000000  0.4492350000000  0.4955550000000 1.0
C      1  0.5410760000000  0.5505800000000  0.4958790000000 1.0
C      1  0.5404500000000  0.4498830000000  0.5044590000000 1.0
C      1  0.4584610000000  0.4686770000000  0.5515220000000 1.0
C      1  0.5515120000000  0.4587200000000  0.4685770000000 1.0
C      1  0.4691210000000  0.5514390000000  0.4590760000000 1.0
C      1  0.4588350000000  0.5313630000000  0.4486250000000 1.0
C      1  0.5411980000000  0.5313070000000  0.5514330000000 1.0
C      1  0.5413320000000  0.4685050000000  0.4481890000000 1.0
C      1  0.5517800000000  0.5415250000000  0.5315040000000 1.0
C      1  0.4487180000000  0.5413340000000  0.4689600000000 1.0
C      1  0.4482760000000  0.4584460000000  0.5313030000000 1.0
C      1  0.4686710000000  0.4484770000000  0.5413440000000 1.0
C      1  0.5313060000000  0.4483310000000  0.4586160000000 1.0
C      1  0.5322900000000  0.5525780000000  0.5425830000000 1.0
C      1  0.4590790000000  0.5514400000000  0.4691200000000 1.0
C      1  0.5515130000000  0.4686660000000  0.4584580000000 1.0
C      1  0.4685790000000  0.4587310000000  0.5515210000000 1.0
C      1  0.4586140000000  0.4483400000000  0.5313180000000 1.0
C      1  0.5425940000000  0.5525770000000  0.5322790000000 1.0
C      1  0.5413330000000  0.4484680000000  0.4686720000000 1.0
C      1  0.5514420000000  0.5313060000000  0.5411880000000 1.0
C      1  0.4481900000000  0.4685160000000  0.5413420000000 1.0
C      1  0.4486240000000  0.5313640000000  0.4588370000000 1.0
C      1  0.4689580000000  0.5413310000000  0.4487170000000 1.0
C      1  0.5312910000000  0.4584360000000  0.4482780000000 1.0
C      1  0.5315150000000  0.5415270000000  0.5517710000000 1.0
C      1  0.4577840000000  0.5116590000000  0.5313340000000 1.0
C      1  0.5312720000000  0.4587540000000  0.5117590000000 1.0
C      1  0.5119350000000  0.5308470000000  0.4582320000000 1.0
C      1  0.4581410000000  0.4879840000000  0.4684880000000 1.0
C      1  0.5411350000000  0.4888020000000  0.5308350000000 1.0
C      1  0.5416480000000  0.5119820000000  0.4681150000000 1.0
C      1  0.5317210000000  0.5416760000000  0.4887140000000 1.0
C      1  0.4688640000000  0.5408080000000  0.5122340000000 1.0
C      1  0.4684800000000  0.4580630000000  0.4880820000000 1.0
C      1  0.5116630000000  0.4691800000000  0.5415560000000 1.0
C      1  0.4880650000000  0.4683490000000  0.4581010000000 1.0
C      1  0.4876380000000  0.5316630000000  0.5422760000000 1.0
C      1  0.4582380000000  0.5308530000000  0.5119360000000 1.0
C      1  0.5313300000000  0.5116500000000  0.4577790000000 1.0
C      1  0.5117580000000  0.4587560000000  0.5312760000000 1.0
C      1  0.4580960000000  0.4683520000000  0.4880740000000 1.0
C      1  0.5422790000000  0.5316560000000  0.4876290000000 1.0
C      1  0.5415540000000  0.4691770000000  0.5116620000000 1.0
C      1  0.5308380000000  0.4888030000000  0.5411320000000 1.0
C      1  0.4681210000000  0.5119910000000  0.5416500000000 1.0
C      1  0.4684810000000  0.4879830000000  0.4581460000000 1.0
C      1  0.5122360000000  0.5408030000000  0.4688570000000 1.0
C      1  0.4880730000000  0.4580610000000  0.4684870000000 1.0
C      1  0.4887230000000  0.5416810000000  0.5317170000000 1.0
C      1  0.4937260000000  0.4611910000000  0.5160220000000 1.0
C      1  0.5160600000000  0.4936030000000  0.4606470000000 1.0
C      1  0.4609910000000  0.5157560000000  0.4939110000000 1.0
C      1  0.4942860000000  0.5385540000000  0.4842710000000 1.0
C      1  0.5064320000000  0.5461320000000  0.5172380000000 1.0
C      1  0.5060250000000  0.4610340000000  0.4837300000000 1.0
C      1  0.5156610000000  0.5069420000000  0.5381530000000 1.0
C      1  0.4838420000000  0.5058460000000  0.4609970000000 1.0
C      1  0.4834320000000  0.4940980000000  0.5388020000000 1.0
C      1  0.4607410000000  0.4836500000000  0.5060470000000 1.0
C      1  0.5387790000000  0.4841810000000  0.4934990000000 1.0
C      1  0.5383730000000  0.5169240000000  0.5057150000000 1.0
C      1  0.4939090000000  0.5157520000000  0.4609900000000 1.0
C      1  0.5160170000000  0.4611880000000  0.4937290000000 1.0
C      1  0.4606490000000  0.4936100000000  0.5160660000000 1.0
C      1  0.4935020000000  0.4841870000000  0.5387820000000 1.0
C      1  0.5057210000000  0.5169280000000  0.5383700000000 1.0
C      1  0.5060400000000  0.4836440000000  0.4607420000000 1.0
C      1  0.5172440000000  0.5461300000000  0.5064240000000 1.0
C      1  0.4837260000000  0.4610370000000  0.5060320000000 1.0
C      1  0.4842750000000  0.5385550000000  0.4942830000000 1.0
C      1  0.4609960000000  0.5058490000000  0.4838460000000 1.0
C      1  0.5387990000000  0.4940920000000  0.4834280000000 1.0
C      1  0.5381560000000  0.5069390000000  0.5156560000000 1.0
C      1  0.4283560000000  0.4822340000000  0.4916940000000 1.0
C      1  0.4918860000000  0.4282960000000  0.4824920000000 1.0
C      1  0.4823370000000  0.4916920000000  0.4284080000000 1.0
C      1  0.4283800000000  0.5175160000000  0.5083240000000 1.0
C      1  0.5717720000000  0.5176320000000  0.4917180000000 1.0
C      1  0.5716280000000  0.4824710000000  0.5079390000000 1.0
C      1  0.4928470000000  0.5688740000000  0.5176150000000 1.0
C      1  0.5089970000000  0.5702930000000  0.4832410000000 1.0
C      1  0.5083120000000  0.4286280000000  0.5177190000000 1.0
C      1  0.4821880000000  0.5083820000000  0.5715590000000 1.0
C      1  0.5176620000000  0.5080550000000  0.4281790000000 1.0
C      1  0.5173820000000  0.4918230000000  0.5713800000000 1.0
C      1  0.4284050000000  0.4916990000000  0.4823470000000 1.0
C      1  0.4916830000000  0.4822260000000  0.4283590000000 1.0
C      1  0.4824820000000  0.4282970000000  0.4918970000000 1.0
C      1  0.4281820000000  0.5080660000000  0.5176700000000 1.0
C      1  0.5713810000000  0.4918170000000  0.5173740000000 1.0
C      1  0.5715580000000  0.5083710000000  0.4821780000000 1.0
C      1  0.4917290000000  0.5176410000000  0.5717710000000 1.0
C      1  0.5079450000000  0.4824790000000  0.5716290000000 1.0
C      1  0.5083170000000  0.5175070000000  0.4283770000000 1.0
C      1  0.4832510000000  0.5702960000000  0.5089900000000 1.0
C      1  0.5177110000000  0.4286270000000  0.5083190000000 1.0
C      1  0.5176230000000  0.5688710000000  0.4928360000000 1.0
C      1  0.4838530000000  0.5274580000000  0.4615120000000 1.0
C      1  0.4609750000000  0.4834790000000  0.5276680000000 1.0
C      1  0.5276370000000  0.4614400000000  0.4835270000000 1.0
C      1  0.4834340000000  0.4724740000000  0.5385750000000 1.0
C      1  0.5162840000000  0.4720680000000  0.4610740000000 1.0
C      1  0.5159430000000  0.5286840000000  0.5382840000000 1.0
C      1  0.4614140000000  0.5161800000000  0.4723510000000 1.0
C      1  0.5380810000000  0.5170980000000  0.5272270000000 1.0
C      1  0.5385940000000  0.4837340000000  0.4719410000000 1.0
C      1  0.5281090000000  0.5406760000000  0.5171190000000 1.0
C      1  0.4726590000000  0.5383300000000  0.4840850000000 1.0
C      1  0.4721360000000  0.4612500000000  0.5162820000000 1.0
C      1  0.4835250000000  0.4614460000000  0.5276440000000 1.0
C      1  0.4615140000000  0.5274610000000  0.4838550000000 1.0
C      1  0.5276610000000  0.4834710000000  0.4609740000000 1.0
C      1  0.4840860000000  0.5383280000000  0.4726560000000 1.0
C      1  0.5162740000000  0.4612440000000  0.4721390000000 1.0
C      1  0.5171270000000  0.5406770000000  0.5281020000000 1.0
C      1  0.4610730000000  0.4720750000000  0.5162920000000 1.0
C      1  0.5382900000000  0.5286810000000  0.5159350000000 1.0
C      1  0.5385690000000  0.4724670000000  0.4834320000000 1.0
C      1  0.5272340000000  0.5170990000000  0.5380760000000 1.0
C      1  0.4719440000000  0.4837420000000  0.5385990000000 1.0
C      1  0.4723490000000  0.5161790000000  0.4614160000000 1.0
END
