TITL C-112676-196-65 -0.0190071151202737 1000000 -1738.99901599653 0 0 240 (Th) n - 1
REM
REM in /home/chem/mssmkc/work/GAP20/Larger-Clusters/Only-C240-new-series
REM
REM
REM
REM
REM
REM ./C.cell (92f43df4b06298221612a7c33f48e63b)
REM
REM compiler GCC version 8.3.0
REM options -cpp -mtune=generic -march=x86-64 -g -O0
REM seed 1740315460 1309483641 -737457840 992222011 -1627410265 1441947967 -519318889 -1031268967 -1827514834 768959496 1527725568 1132979251 -1209833361 364283252 1710688477 494212598 -1018317654 -2031860812 139568252 1276957551 1096402826 956076178 -566985554 -96589094 -1876401008 -358892440 -978623005 -1496586431 1513641899 1938403273 -1419836147 -1309426674 419316201
REM
CELL 1.54180  100.00000  100.00000  100.00000   90.00000   90.00000   90.00000
LATT -1
SFAC C  
C      1  0.5277280000000  0.4482180000000  0.4506370000000 1.0
C      1  0.4506350000000  0.5277260000000  0.4482190000000 1.0
C      1  0.4482200000000  0.4506360000000  0.5277300000000 1.0
C      1  0.5277270000000  0.5517820000000  0.5493620000000 1.0
C      1  0.4722710000000  0.5517790000000  0.4506350000000 1.0
C      1  0.4722730000000  0.4482200000000  0.5493660000000 1.0
C      1  0.4506370000000  0.4722730000000  0.5517820000000 1.0
C      1  0.5493640000000  0.4722710000000  0.4482200000000 1.0
C      1  0.5493640000000  0.5277300000000  0.5517800000000 1.0
C      1  0.4482190000000  0.5493630000000  0.4722710000000 1.0
C      1  0.5517800000000  0.5493650000000  0.5277260000000 1.0
C      1  0.5517810000000  0.4506360000000  0.4722730000000 1.0
C      1  0.4722730000000  0.4482180000000  0.4506380000000 1.0
C      1  0.5493630000000  0.5277270000000  0.4482180000000 1.0
C      1  0.5517810000000  0.4506370000000  0.5277290000000 1.0
C      1  0.4722720000000  0.5517820000000  0.5493630000000 1.0
C      1  0.5277270000000  0.5517800000000  0.4506340000000 1.0
C      1  0.5277290000000  0.4482210000000  0.5493650000000 1.0
C      1  0.5493650000000  0.4722740000000  0.5517810000000 1.0
C      1  0.4506360000000  0.4722700000000  0.4482200000000 1.0
C      1  0.4506360000000  0.5277290000000  0.5517800000000 1.0
C      1  0.5517800000000  0.5493640000000  0.4722700000000 1.0
C      1  0.4482190000000  0.5493640000000  0.5277270000000 1.0
C      1  0.4482200000000  0.4506350000000  0.4722740000000 1.0
C      1  0.5075840000000  0.4369800000000  0.5192030000000 1.0
C      1  0.5192010000000  0.5075810000000  0.4369800000000 1.0
C      1  0.4369800000000  0.5192000000000  0.5075830000000 1.0
C      1  0.5075820000000  0.5630200000000  0.4807970000000 1.0
C      1  0.4924170000000  0.5630210000000  0.5191990000000 1.0
C      1  0.4924180000000  0.4369790000000  0.4808010000000 1.0
C      1  0.5192020000000  0.4924190000000  0.5630200000000 1.0
C      1  0.4807990000000  0.4924150000000  0.4369800000000 1.0
C      1  0.4807990000000  0.5075840000000  0.5630200000000 1.0
C      1  0.4369800000000  0.4807980000000  0.4924180000000 1.0
C      1  0.5630200000000  0.4808000000000  0.5075830000000 1.0
C      1  0.5630200000000  0.5192020000000  0.4924160000000 1.0
C      1  0.4924180000000  0.4369800000000  0.5192030000000 1.0
C      1  0.4807980000000  0.5075810000000  0.4369800000000 1.0
C      1  0.5630200000000  0.5192020000000  0.5075820000000 1.0
C      1  0.4924160000000  0.5630200000000  0.4807970000000 1.0
C      1  0.5075820000000  0.5630210000000  0.5191990000000 1.0
C      1  0.5075830000000  0.4369790000000  0.4808010000000 1.0
C      1  0.4807990000000  0.4924190000000  0.5630200000000 1.0
C      1  0.5192010000000  0.4924160000000  0.4369800000000 1.0
C      1  0.5192010000000  0.5075850000000  0.5630200000000 1.0
C      1  0.5630200000000  0.4808000000000  0.4924170000000 1.0
C      1  0.4369800000000  0.4807980000000  0.5075840000000 1.0
C      1  0.4369800000000  0.5192000000000  0.4924170000000 1.0
C      1  0.4344530000000  0.5071940000000  0.4695570000000 1.0
C      1  0.4695580000000  0.4344530000000  0.5071970000000 1.0
C      1  0.5071950000000  0.4695550000000  0.4344540000000 1.0
C      1  0.4344540000000  0.4928050000000  0.5304440000000 1.0
C      1  0.5655470000000  0.4928050000000  0.4695560000000 1.0
C      1  0.5655470000000  0.5071970000000  0.5304430000000 1.0
C      1  0.4695560000000  0.5655460000000  0.4928030000000 1.0
C      1  0.5304430000000  0.5655470000000  0.5071930000000 1.0
C      1  0.5304440000000  0.4344540000000  0.4928060000000 1.0
C      1  0.5071950000000  0.5304450000000  0.5655460000000 1.0
C      1  0.4928040000000  0.5304410000000  0.4344530000000 1.0
C      1  0.4928050000000  0.4695580000000  0.5655480000000 1.0
C      1  0.5655460000000  0.5071950000000  0.4695560000000 1.0
C      1  0.5304440000000  0.4344540000000  0.5071970000000 1.0
C      1  0.4928050000000  0.4695550000000  0.4344540000000 1.0
C      1  0.5655470000000  0.4928060000000  0.5304430000000 1.0
C      1  0.4344530000000  0.4928030000000  0.4695570000000 1.0
C      1  0.4344530000000  0.5071950000000  0.5304440000000 1.0
C      1  0.5304420000000  0.5655470000000  0.4928030000000 1.0
C      1  0.4695560000000  0.5655460000000  0.5071940000000 1.0
C      1  0.4695570000000  0.4344530000000  0.4928070000000 1.0
C      1  0.4928050000000  0.5304450000000  0.5655460000000 1.0
C      1  0.5071950000000  0.5304420000000  0.4344520000000 1.0
C      1  0.5071960000000  0.4695590000000  0.5655470000000 1.0
C      1  0.4353000000000  0.4923770000000  0.4842760000000 1.0
C      1  0.4842760000000  0.4352990000000  0.4923800000000 1.0
C      1  0.4923780000000  0.4842730000000  0.4353000000000 1.0
C      1  0.4353000000000  0.5076220000000  0.5157250000000 1.0
C      1  0.5647000000000  0.5076230000000  0.4842750000000 1.0
C      1  0.5647010000000  0.4923790000000  0.5157250000000 1.0
C      1  0.4842740000000  0.5647000000000  0.5076200000000 1.0
C      1  0.5157240000000  0.5647000000000  0.4923760000000 1.0
C      1  0.5157260000000  0.4353000000000  0.5076240000000 1.0
C      1  0.4923780000000  0.5157270000000  0.5647000000000 1.0
C      1  0.5076220000000  0.5157230000000  0.4352990000000 1.0
C      1  0.5076230000000  0.4842770000000  0.5647010000000 1.0
C      1  0.5647000000000  0.4923780000000  0.4842750000000 1.0
C      1  0.5157260000000  0.4353000000000  0.4923800000000 1.0
C      1  0.5076220000000  0.4842730000000  0.4353000000000 1.0
C      1  0.5647000000000  0.5076230000000  0.5157240000000 1.0
C      1  0.4352990000000  0.5076210000000  0.4842750000000 1.0
C      1  0.4353000000000  0.4923770000000  0.5157250000000 1.0
C      1  0.5157240000000  0.5647010000000  0.5076200000000 1.0
C      1  0.4842740000000  0.5647000000000  0.4923760000000 1.0
C      1  0.4842760000000  0.4353000000000  0.5076240000000 1.0
C      1  0.5076220000000  0.5157270000000  0.5647000000000 1.0
C      1  0.4923770000000  0.5157230000000  0.4352990000000 1.0
C      1  0.4923780000000  0.4842770000000  0.5647010000000 1.0
C      1  0.4431320000000  0.4710510000000  0.4603900000000 1.0
C      1  0.4603890000000  0.4431310000000  0.4710550000000 1.0
C      1  0.4710530000000  0.4603870000000  0.4431330000000 1.0
C      1  0.4431320000000  0.5289470000000  0.5396110000000 1.0
C      1  0.5568670000000  0.5289460000000  0.4603880000000 1.0
C      1  0.5568680000000  0.4710550000000  0.5396120000000 1.0
C      1  0.4603880000000  0.5568680000000  0.5289450000000 1.0
C      1  0.5396100000000  0.5568680000000  0.4710510000000 1.0
C      1  0.5396120000000  0.4431330000000  0.5289480000000 1.0
C      1  0.4710530000000  0.5396120000000  0.5568670000000 1.0
C      1  0.5289460000000  0.5396100000000  0.4431310000000 1.0
C      1  0.5289480000000  0.4603910000000  0.5568690000000 1.0
C      1  0.5568680000000  0.4710530000000  0.4603890000000 1.0
C      1  0.5396120000000  0.4431320000000  0.4710550000000 1.0
C      1  0.5289470000000  0.4603880000000  0.4431330000000 1.0
C      1  0.5568680000000  0.5289490000000  0.5396100000000 1.0
C      1  0.4431320000000  0.5289450000000  0.4603880000000 1.0
C      1  0.4431330000000  0.4710540000000  0.5396120000000 1.0
C      1  0.5396110000000  0.5568690000000  0.5289450000000 1.0
C      1  0.4603880000000  0.5568670000000  0.4710520000000 1.0
C      1  0.4603900000000  0.4431320000000  0.5289490000000 1.0
C      1  0.5289470000000  0.5396130000000  0.5568670000000 1.0
C      1  0.4710520000000  0.5396090000000  0.4431310000000 1.0
C      1  0.4710540000000  0.4603900000000  0.5568690000000 1.0
C      1  0.5532870000000  0.5543990000000  0.4856460000000 1.0
C      1  0.4856480000000  0.5532890000000  0.5543980000000 1.0
C      1  0.5544000000000  0.4856500000000  0.5532880000000 1.0
C      1  0.5532880000000  0.4456020000000  0.5143530000000 1.0
C      1  0.4467130000000  0.4456000000000  0.4856500000000 1.0
C      1  0.4467120000000  0.5543990000000  0.5143510000000 1.0
C      1  0.4856490000000  0.4467110000000  0.4456020000000 1.0
C      1  0.5143530000000  0.4467140000000  0.5544010000000 1.0
C      1  0.5143510000000  0.5532860000000  0.4455990000000 1.0
C      1  0.5543990000000  0.5143510000000  0.4467120000000 1.0
C      1  0.4456010000000  0.5143530000000  0.5532880000000 1.0
C      1  0.4456010000000  0.4856460000000  0.4467130000000 1.0
C      1  0.4467120000000  0.5543980000000  0.4856470000000 1.0
C      1  0.5143510000000  0.5532890000000  0.5543980000000 1.0
C      1  0.4456010000000  0.4856490000000  0.5532880000000 1.0
C      1  0.4467130000000  0.4456010000000  0.5143540000000 1.0
C      1  0.5532880000000  0.4456010000000  0.4856490000000 1.0
C      1  0.5532870000000  0.5544000000000  0.5143500000000 1.0
C      1  0.5143520000000  0.4467110000000  0.4456020000000 1.0
C      1  0.4856490000000  0.4467140000000  0.5544010000000 1.0
C      1  0.4856470000000  0.5532860000000  0.4455990000000 1.0
C      1  0.4456000000000  0.5143500000000  0.4467120000000 1.0
C      1  0.5543990000000  0.5143540000000  0.5532870000000 1.0
C      1  0.5543990000000  0.4856470000000  0.4467120000000 1.0
C      1  0.4563010000000  0.4932360000000  0.4415020000000 1.0
C      1  0.4415020000000  0.4563000000000  0.4932400000000 1.0
C      1  0.4932390000000  0.4415000000000  0.4563030000000 1.0
C      1  0.4563010000000  0.5067620000000  0.5584990000000 1.0
C      1  0.5436990000000  0.5067600000000  0.4415010000000 1.0
C      1  0.5436990000000  0.4932410000000  0.5584980000000 1.0
C      1  0.4415010000000  0.5436980000000  0.5067600000000 1.0
C      1  0.5584980000000  0.5437000000000  0.4932370000000 1.0
C      1  0.5584990000000  0.4563020000000  0.5067620000000 1.0
C      1  0.4932380000000  0.5585000000000  0.5436970000000 1.0
C      1  0.5067600000000  0.5584970000000  0.4562990000000 1.0
C      1  0.5067620000000  0.4415030000000  0.5437010000000 1.0
C      1  0.5436990000000  0.4932380000000  0.4415010000000 1.0
C      1  0.5584990000000  0.4563020000000  0.4932400000000 1.0
C      1  0.5067620000000  0.4415000000000  0.4563030000000 1.0
C      1  0.5436990000000  0.5067640000000  0.5584980000000 1.0
C      1  0.4563010000000  0.5067590000000  0.4415020000000 1.0
C      1  0.4563010000000  0.4932400000000  0.5584990000000 1.0
C      1  0.5584980000000  0.5437000000000  0.5067600000000 1.0
C      1  0.4415010000000  0.5436980000000  0.4932380000000 1.0
C      1  0.4415020000000  0.4563000000000  0.5067630000000 1.0
C      1  0.5067610000000  0.5585000000000  0.5436970000000 1.0
C      1  0.4932380000000  0.5584970000000  0.4562990000000 1.0
C      1  0.4932400000000  0.4415030000000  0.5437010000000 1.0
C      1  0.4590890000000  0.5618980000000  0.5152730000000 1.0
C      1  0.5152760000000  0.4590920000000  0.5618990000000 1.0
C      1  0.5618970000000  0.5152750000000  0.4590890000000 1.0
C      1  0.4590900000000  0.4381010000000  0.4847270000000 1.0
C      1  0.5409110000000  0.4381030000000  0.5152760000000 1.0
C      1  0.5409090000000  0.5618980000000  0.4847230000000 1.0
C      1  0.5152740000000  0.5409090000000  0.4381010000000 1.0
C      1  0.4847250000000  0.5409120000000  0.5618970000000 1.0
C      1  0.4847250000000  0.4590880000000  0.4381030000000 1.0
C      1  0.5618980000000  0.4847270000000  0.5409100000000 1.0
C      1  0.4381020000000  0.4847230000000  0.4590900000000 1.0
C      1  0.4381020000000  0.5152750000000  0.5409100000000 1.0
C      1  0.5409100000000  0.5618990000000  0.5152730000000 1.0
C      1  0.4847260000000  0.4590910000000  0.5618990000000 1.0
C      1  0.4381020000000  0.5152730000000  0.4590900000000 1.0
C      1  0.5409110000000  0.4381020000000  0.4847270000000 1.0
C      1  0.4590910000000  0.4381020000000  0.5152770000000 1.0
C      1  0.4590890000000  0.5618970000000  0.4847240000000 1.0
C      1  0.4847240000000  0.5409080000000  0.4381010000000 1.0
C      1  0.5152750000000  0.5409120000000  0.5618970000000 1.0
C      1  0.5152750000000  0.4590880000000  0.4381030000000 1.0
C      1  0.4381030000000  0.4847250000000  0.5409110000000 1.0
C      1  0.5618980000000  0.4847250000000  0.4590900000000 1.0
C      1  0.5618980000000  0.5152770000000  0.5409100000000 1.0
C      1  0.4681120000000  0.5143440000000  0.4394380000000 1.0
C      1  0.4394390000000  0.4681120000000  0.5143480000000 1.0
C      1  0.5143470000000  0.4394380000000  0.4681140000000 1.0
C      1  0.4681130000000  0.4856550000000  0.5605620000000 1.0
C      1  0.5318870000000  0.4856520000000  0.4394390000000 1.0
C      1  0.5318870000000  0.5143490000000  0.5605610000000 1.0
C      1  0.4394380000000  0.5318860000000  0.4856530000000 1.0
C      1  0.5605610000000  0.5318880000000  0.5143450000000 1.0
C      1  0.5605620000000  0.4681130000000  0.4856540000000 1.0
C      1  0.5143460000000  0.5605630000000  0.5318850000000 1.0
C      1  0.4856530000000  0.5605610000000  0.4681110000000 1.0
C      1  0.4856550000000  0.4394390000000  0.5318890000000 1.0
C      1  0.5318870000000  0.5143450000000  0.4394380000000 1.0
C      1  0.5605620000000  0.4681140000000  0.5143470000000 1.0
C      1  0.4856540000000  0.4394370000000  0.4681150000000 1.0
C      1  0.5318880000000  0.4856560000000  0.5605620000000 1.0
C      1  0.4681130000000  0.4856510000000  0.4394390000000 1.0
C      1  0.4681130000000  0.5143480000000  0.5605610000000 1.0
C      1  0.5605610000000  0.5318880000000  0.4856520000000 1.0
C      1  0.4394380000000  0.5318870000000  0.5143460000000 1.0
C      1  0.4394390000000  0.4681120000000  0.4856550000000 1.0
C      1  0.4856530000000  0.5605620000000  0.5318860000000 1.0
C      1  0.5143450000000  0.5605610000000  0.4681110000000 1.0
C      1  0.5143470000000  0.4394390000000  0.5318890000000 1.0
C      1  0.4430190000000  0.5362150000000  0.5280730000000 1.0
C      1  0.5280750000000  0.4430210000000  0.5362160000000 1.0
C      1  0.5362140000000  0.5280730000000  0.4430180000000 1.0
C      1  0.4430200000000  0.4637840000000  0.4719270000000 1.0
C      1  0.5569810000000  0.4637870000000  0.5280750000000 1.0
C      1  0.5569800000000  0.5362150000000  0.4719240000000 1.0
C      1  0.5280730000000  0.5569800000000  0.4637840000000 1.0
C      1  0.4719250000000  0.5569810000000  0.5362130000000 1.0
C      1  0.4719260000000  0.4430180000000  0.4637870000000 1.0
C      1  0.5362150000000  0.4719280000000  0.5569810000000 1.0
C      1  0.4637850000000  0.4719240000000  0.4430200000000 1.0
C      1  0.4637850000000  0.5280750000000  0.5569800000000 1.0
C      1  0.5569800000000  0.5362160000000  0.5280730000000 1.0
C      1  0.4719270000000  0.4430200000000  0.5362160000000 1.0
C      1  0.4637850000000  0.5280720000000  0.4430190000000 1.0
C      1  0.5569810000000  0.4637850000000  0.4719270000000 1.0
C      1  0.4430200000000  0.4637850000000  0.5280760000000 1.0
C      1  0.4430190000000  0.5362130000000  0.4719250000000 1.0
C      1  0.4719250000000  0.5569790000000  0.4637840000000 1.0
C      1  0.5280740000000  0.5569820000000  0.5362130000000 1.0
C      1  0.5280750000000  0.4430190000000  0.4637870000000 1.0
C      1  0.4637860000000  0.4719270000000  0.5569820000000 1.0
C      1  0.5362150000000  0.4719250000000  0.4430200000000 1.0
C      1  0.5362150000000  0.5280760000000  0.5569800000000 1.0
END
