TITL C-112676-196-89 -49.252789140982 1000000 -1763.49711988895 0 0 240 (Td) n - 1
REM
REM in /home/chem/mssmkc/work/GAP20/Larger-Clusters/Only-C240-new-series
REM
REM
REM
REM
REM
REM ./C.cell (db83009d4c1eceb3c2f0bef44cf3317a)
REM
REM compiler GCC version 8.3.0
REM options -cpp -mtune=generic -march=x86-64 -g -O0
REM seed -1633807900 633770970 717519364 1751025940 -535671764 1247802097 4666225 706149599 -1966588758 -780237734 -497420378 -1772355948 -1471941464 100215660 213382447 71930044 304788829 -871094076 -1247747144 1693713460 -1446559009 1292671014 -1955268463 -2147034759 699475255 -1177043651 -930823880 1161560729 -1511289322 1849461201 127112849 903092504 1229973690
REM
CELL 1.54180  100.00000  100.00000  100.00000   90.00000   90.00000   90.00000
LATT -1
SFAC C  
C      1  0.4410160000000  0.5202720000000  0.4899660000000 1.0
C      1  0.4899660000000  0.4410170000000  0.5202730000000 1.0
C      1  0.5202710000000  0.4899650000000  0.4410160000000 1.0
C      1  0.5589840000000  0.4797270000000  0.4899730000000 1.0
C      1  0.5589860000000  0.5202680000000  0.5100310000000 1.0
C      1  0.4410140000000  0.4797340000000  0.5100290000000 1.0
C      1  0.5100320000000  0.5589860000000  0.5202660000000 1.0
C      1  0.5100280000000  0.4410130000000  0.4797350000000 1.0
C      1  0.4899730000000  0.5589840000000  0.4797260000000 1.0
C      1  0.4797330000000  0.5100270000000  0.4410140000000 1.0
C      1  0.4797280000000  0.4899750000000  0.5589850000000 1.0
C      1  0.5202680000000  0.5100330000000  0.5589850000000 1.0
C      1  0.5202670000000  0.4410140000000  0.4899740000000 1.0
C      1  0.4410140000000  0.4899740000000  0.5202680000000 1.0
C      1  0.4899730000000  0.5202660000000  0.4410130000000 1.0
C      1  0.4797330000000  0.5589850000000  0.4899650000000 1.0
C      1  0.5202720000000  0.5589850000000  0.5100270000000 1.0
C      1  0.4797270000000  0.4410170000000  0.5100330000000 1.0
C      1  0.5589850000000  0.5100290000000  0.5202710000000 1.0
C      1  0.4410160000000  0.5100320000000  0.4797280000000 1.0
C      1  0.5589850000000  0.4899660000000  0.4797330000000 1.0
C      1  0.5100310000000  0.4797260000000  0.4410170000000 1.0
C      1  0.4899670000000  0.4797350000000  0.5589860000000 1.0
C      1  0.5100290000000  0.5202730000000  0.5589840000000 1.0
C      1  0.5788850000000  0.5102910000000  0.5000400000000 1.0
C      1  0.5000410000000  0.5788850000000  0.5102890000000 1.0
C      1  0.5102910000000  0.5000430000000  0.5788840000000 1.0
C      1  0.4211150000000  0.4897090000000  0.5000360000000 1.0
C      1  0.4211160000000  0.5102980000000  0.4999590000000 1.0
C      1  0.5788840000000  0.4897020000000  0.4999660000000 1.0
C      1  0.4999580000000  0.4211170000000  0.5102990000000 1.0
C      1  0.4999660000000  0.5788830000000  0.4897010000000 1.0
C      1  0.5000350000000  0.4211150000000  0.4897110000000 1.0
C      1  0.4897030000000  0.4999680000000  0.5788840000000 1.0
C      1  0.4897090000000  0.5000330000000  0.4211160000000 1.0
C      1  0.5102970000000  0.4999560000000  0.4211160000000 1.0
C      1  0.5102980000000  0.5788840000000  0.5000330000000 1.0
C      1  0.5788840000000  0.5000350000000  0.5102970000000 1.0
C      1  0.5000350000000  0.5102990000000  0.5788830000000 1.0
C      1  0.4897020000000  0.4211160000000  0.5000430000000 1.0
C      1  0.5102910000000  0.4211150000000  0.4999680000000 1.0
C      1  0.4897090000000  0.5788850000000  0.4999560000000 1.0
C      1  0.4211150000000  0.4999660000000  0.5102910000000 1.0
C      1  0.5788850000000  0.4999580000000  0.4897090000000 1.0
C      1  0.4211160000000  0.5000410000000  0.4897030000000 1.0
C      1  0.4999590000000  0.4897110000000  0.5788850000000 1.0
C      1  0.5000400000000  0.4897010000000  0.4211170000000 1.0
C      1  0.4999650000000  0.5102890000000  0.4211150000000 1.0
C      1  0.4727550000000  0.4626960000000  0.4525280000000 1.0
C      1  0.4525260000000  0.4727540000000  0.4626980000000 1.0
C      1  0.4626970000000  0.4525260000000  0.4727560000000 1.0
C      1  0.5272490000000  0.5372980000000  0.4525250000000 1.0
C      1  0.5272420000000  0.4627000000000  0.5474770000000 1.0
C      1  0.4727550000000  0.5373070000000  0.5474700000000 1.0
C      1  0.5474760000000  0.5272410000000  0.4626980000000 1.0
C      1  0.5474710000000  0.4727550000000  0.5373060000000 1.0
C      1  0.4525260000000  0.5272500000000  0.5372990000000 1.0
C      1  0.5373050000000  0.5474700000000  0.4727530000000 1.0
C      1  0.5372990000000  0.4525270000000  0.5272500000000 1.0
C      1  0.4626990000000  0.5474770000000  0.5272410000000 1.0
C      1  0.4626980000000  0.4727530000000  0.4525270000000 1.0
C      1  0.4727540000000  0.4525250000000  0.4627000000000 1.0
C      1  0.4525260000000  0.4626980000000  0.4727550000000 1.0
C      1  0.5373050000000  0.5272410000000  0.4525260000000 1.0
C      1  0.4626970000000  0.5272500000000  0.5474700000000 1.0
C      1  0.5372990000000  0.4727560000000  0.5474770000000 1.0
C      1  0.5272490000000  0.5474700000000  0.4626960000000 1.0
C      1  0.4727550000000  0.5474770000000  0.5372980000000 1.0
C      1  0.5272420000000  0.4525280000000  0.5373060000000 1.0
C      1  0.5474760000000  0.5372980000000  0.4727540000000 1.0
C      1  0.4525270000000  0.5373060000000  0.5272410000000 1.0
C      1  0.5474710000000  0.4626970000000  0.5272500000000 1.0
C      1  0.4801500000000  0.5687000000000  0.5005660000000 1.0
C      1  0.5005680000000  0.4801520000000  0.5687000000000 1.0
C      1  0.5687000000000  0.5005670000000  0.4801500000000 1.0
C      1  0.5198490000000  0.4313000000000  0.5005760000000 1.0
C      1  0.5198560000000  0.5686980000000  0.4994250000000 1.0
C      1  0.4801440000000  0.4313020000000  0.4994330000000 1.0
C      1  0.4994270000000  0.5198570000000  0.5686980000000 1.0
C      1  0.4994300000000  0.4801430000000  0.4313020000000 1.0
C      1  0.5005740000000  0.5198480000000  0.4313000000000 1.0
C      1  0.4313020000000  0.4994310000000  0.4801450000000 1.0
C      1  0.4313000000000  0.5005750000000  0.5198500000000 1.0
C      1  0.5686980000000  0.4994270000000  0.5198550000000 1.0
C      1  0.5686980000000  0.4801440000000  0.5005750000000 1.0
C      1  0.4801450000000  0.5005770000000  0.5686980000000 1.0
C      1  0.5005750000000  0.5686980000000  0.4801430000000 1.0
C      1  0.4313020000000  0.5198560000000  0.5005670000000 1.0
C      1  0.5687000000000  0.5198490000000  0.4994300000000 1.0
C      1  0.4313000000000  0.4801500000000  0.4994280000000 1.0
C      1  0.5198500000000  0.4994330000000  0.5687000000000 1.0
C      1  0.4801500000000  0.4994250000000  0.4313000000000 1.0
C      1  0.5198550000000  0.5005660000000  0.4313020000000 1.0
C      1  0.4994270000000  0.4313000000000  0.4801520000000 1.0
C      1  0.5005670000000  0.4313020000000  0.5198570000000 1.0
C      1  0.4994310000000  0.5687000000000  0.5198480000000 1.0
C      1  0.4715420000000  0.5066720000000  0.4522050000000 1.0
C      1  0.4522050000000  0.4715430000000  0.5066740000000 1.0
C      1  0.5066730000000  0.4522040000000  0.4715440000000 1.0
C      1  0.5284610000000  0.4933210000000  0.4522080000000 1.0
C      1  0.5284580000000  0.5066760000000  0.5477940000000 1.0
C      1  0.4715380000000  0.4933300000000  0.5477930000000 1.0
C      1  0.5477950000000  0.5284580000000  0.5066740000000 1.0
C      1  0.5477930000000  0.4715380000000  0.4933300000000 1.0
C      1  0.4522080000000  0.5284610000000  0.4933220000000 1.0
C      1  0.4933290000000  0.5477920000000  0.4715370000000 1.0
C      1  0.4933230000000  0.4522090000000  0.5284630000000 1.0
C      1  0.5066750000000  0.5477950000000  0.5284570000000 1.0
C      1  0.5066750000000  0.4715370000000  0.4522090000000 1.0
C      1  0.4715380000000  0.4522080000000  0.5066760000000 1.0
C      1  0.4522080000000  0.5066740000000  0.4715380000000 1.0
C      1  0.4933290000000  0.5284570000000  0.4522040000000 1.0
C      1  0.5066740000000  0.5284630000000  0.5477920000000 1.0
C      1  0.4933230000000  0.4715440000000  0.5477950000000 1.0
C      1  0.5284620000000  0.5477930000000  0.5066720000000 1.0
C      1  0.4715430000000  0.5477940000000  0.4933220000000 1.0
C      1  0.5284580000000  0.4522050000000  0.4933300000000 1.0
C      1  0.5477940000000  0.4933220000000  0.4715420000000 1.0
C      1  0.4522050000000  0.4933300000000  0.5284580000000 1.0
C      1  0.5477930000000  0.5066740000000  0.5284610000000 1.0
C      1  0.4653260000000  0.5153310000000  0.5549280000000 1.0
C      1  0.5549280000000  0.4653250000000  0.5153300000000 1.0
C      1  0.5153290000000  0.5549270000000  0.4653240000000 1.0
C      1  0.5346700000000  0.4846760000000  0.5549330000000 1.0
C      1  0.5346760000000  0.5153200000000  0.4450700000000 1.0
C      1  0.4653280000000  0.4846720000000  0.4450690000000 1.0
C      1  0.4450710000000  0.5346770000000  0.5153210000000 1.0
C      1  0.4450690000000  0.4653280000000  0.4846750000000 1.0
C      1  0.5549320000000  0.5346700000000  0.4846740000000 1.0
C      1  0.4846730000000  0.4450680000000  0.4653300000000 1.0
C      1  0.4846760000000  0.5549330000000  0.5346690000000 1.0
C      1  0.5153220000000  0.4450710000000  0.5346770000000 1.0
C      1  0.5153220000000  0.4653300000000  0.5549330000000 1.0
C      1  0.4653290000000  0.5549330000000  0.5153210000000 1.0
C      1  0.5549320000000  0.5153210000000  0.4653280000000 1.0
C      1  0.4846740000000  0.5346770000000  0.5549270000000 1.0
C      1  0.5153290000000  0.5346690000000  0.4450680000000 1.0
C      1  0.4846750000000  0.4653240000000  0.4450710000000 1.0
C      1  0.5346700000000  0.4450690000000  0.5153310000000 1.0
C      1  0.4653250000000  0.4450700000000  0.4846770000000 1.0
C      1  0.5346760000000  0.5549280000000  0.4846720000000 1.0
C      1  0.4450700000000  0.4846740000000  0.4653260000000 1.0
C      1  0.5549280000000  0.4846740000000  0.5346760000000 1.0
C      1  0.4450690000000  0.5153300000000  0.5346700000000 1.0
C      1  0.4861330000000  0.5639610000000  0.5238340000000 1.0
C      1  0.5238360000000  0.4861340000000  0.5639600000000 1.0
C      1  0.5639600000000  0.5238350000000  0.4861310000000 1.0
C      1  0.5138660000000  0.4360430000000  0.5238440000000 1.0
C      1  0.5138730000000  0.5639560000000  0.4761570000000 1.0
C      1  0.4861290000000  0.4360410000000  0.4761650000000 1.0
C      1  0.4761590000000  0.5138750000000  0.5639570000000 1.0
C      1  0.4761620000000  0.4861270000000  0.4360420000000 1.0
C      1  0.5238420000000  0.5138640000000  0.4360420000000 1.0
C      1  0.4360410000000  0.4761630000000  0.4861300000000 1.0
C      1  0.4360420000000  0.5238430000000  0.5138650000000 1.0
C      1  0.5639570000000  0.4761590000000  0.5138730000000 1.0
C      1  0.5639570000000  0.4861290000000  0.5238420000000 1.0
C      1  0.4861290000000  0.5238440000000  0.5639560000000 1.0
C      1  0.5238420000000  0.5639560000000  0.4861270000000 1.0
C      1  0.4360410000000  0.5138740000000  0.5238360000000 1.0
C      1  0.5639600000000  0.5138650000000  0.4761620000000 1.0
C      1  0.4360420000000  0.4861320000000  0.4761600000000 1.0
C      1  0.5138660000000  0.4761650000000  0.5639600000000 1.0
C      1  0.4861320000000  0.4761570000000  0.4360430000000 1.0
C      1  0.5138730000000  0.5238340000000  0.4360410000000 1.0
C      1  0.4761580000000  0.4360420000000  0.4861340000000 1.0
C      1  0.5238360000000  0.4360420000000  0.5138750000000 1.0
C      1  0.4761630000000  0.5639600000000  0.5138640000000 1.0
C      1  0.5036770000000  0.4759040000000  0.4654120000000 1.0
C      1  0.4654110000000  0.5036770000000  0.4759050000000 1.0
C      1  0.4759050000000  0.4654110000000  0.5036790000000 1.0
C      1  0.4963250000000  0.5240920000000  0.4654080000000 1.0
C      1  0.4963210000000  0.4759090000000  0.5345910000000 1.0
C      1  0.5036770000000  0.5240960000000  0.5345890000000 1.0
C      1  0.5345910000000  0.4963200000000  0.4759080000000 1.0
C      1  0.5345890000000  0.5036770000000  0.5240950000000 1.0
C      1  0.4654090000000  0.4963260000000  0.5240930000000 1.0
C      1  0.5240950000000  0.5345890000000  0.5036760000000 1.0
C      1  0.5240920000000  0.4654090000000  0.4963260000000 1.0
C      1  0.4759080000000  0.5345910000000  0.4963200000000 1.0
C      1  0.4759080000000  0.5036760000000  0.4654090000000 1.0
C      1  0.5036770000000  0.4654080000000  0.4759090000000 1.0
C      1  0.4654090000000  0.4759080000000  0.5036780000000 1.0
C      1  0.5240950000000  0.4963190000000  0.4654110000000 1.0
C      1  0.4759050000000  0.4963260000000  0.5345890000000 1.0
C      1  0.5240930000000  0.5036790000000  0.5345910000000 1.0
C      1  0.4963250000000  0.5345880000000  0.4759040000000 1.0
C      1  0.5036780000000  0.5345910000000  0.5240920000000 1.0
C      1  0.4963200000000  0.4654120000000  0.5240960000000 1.0
C      1  0.5345910000000  0.5240920000000  0.5036770000000 1.0
C      1  0.4654110000000  0.5240950000000  0.4963200000000 1.0
C      1  0.5345890000000  0.4759050000000  0.4963260000000 1.0
C      1  0.4908000000000  0.5293350000000  0.5189520000000 1.0
C      1  0.5189520000000  0.4908010000000  0.5293350000000 1.0
C      1  0.5293340000000  0.5189520000000  0.4908000000000 1.0
C      1  0.5091980000000  0.4706680000000  0.5189560000000 1.0
C      1  0.5092020000000  0.5293320000000  0.4810450000000 1.0
C      1  0.4907990000000  0.4706660000000  0.4810480000000 1.0
C      1  0.4810460000000  0.5092030000000  0.5293320000000 1.0
C      1  0.4810470000000  0.4907990000000  0.4706670000000 1.0
C      1  0.5189550000000  0.5091970000000  0.4706670000000 1.0
C      1  0.4706660000000  0.4810470000000  0.4908000000000 1.0
C      1  0.4706670000000  0.5189560000000  0.5091980000000 1.0
C      1  0.5293320000000  0.4810460000000  0.5092030000000 1.0
C      1  0.5293320000000  0.4908000000000  0.5189550000000 1.0
C      1  0.4908000000000  0.5189560000000  0.5293320000000 1.0
C      1  0.5189560000000  0.5293320000000  0.4907980000000 1.0
C      1  0.4706670000000  0.5092030000000  0.5189520000000 1.0
C      1  0.5293340000000  0.5091980000000  0.4810470000000 1.0
C      1  0.4706670000000  0.4908000000000  0.4810460000000 1.0
C      1  0.5091980000000  0.4810480000000  0.5293350000000 1.0
C      1  0.4908000000000  0.4810450000000  0.4706680000000 1.0
C      1  0.5092020000000  0.5189510000000  0.4706660000000 1.0
C      1  0.4810450000000  0.4706670000000  0.4908010000000 1.0
C      1  0.5189520000000  0.4706670000000  0.5092030000000 1.0
C      1  0.4810470000000  0.5293350000000  0.5091980000000 1.0
C      1  0.4967640000000  0.4605020000000  0.4507370000000 1.0
C      1  0.4507350000000  0.4967640000000  0.4605040000000 1.0
C      1  0.4605030000000  0.4507360000000  0.4967660000000 1.0
C      1  0.5032390000000  0.5394910000000  0.4507320000000 1.0
C      1  0.5032320000000  0.4605080000000  0.5492690000000 1.0
C      1  0.4967640000000  0.5394980000000  0.5492630000000 1.0
C      1  0.5492680000000  0.5032310000000  0.4605070000000 1.0
C      1  0.5492640000000  0.4967650000000  0.5394970000000 1.0
C      1  0.4507330000000  0.5032400000000  0.5394930000000 1.0
C      1  0.5394970000000  0.5492640000000  0.4967620000000 1.0
C      1  0.5394920000000  0.4507330000000  0.5032400000000 1.0
C      1  0.4605070000000  0.5492680000000  0.5032310000000 1.0
C      1  0.4605070000000  0.4967630000000  0.4507330000000 1.0
C      1  0.4967640000000  0.4507320000000  0.4605090000000 1.0
C      1  0.4507320000000  0.4605070000000  0.4967650000000 1.0
C      1  0.5394970000000  0.5032310000000  0.4507350000000 1.0
C      1  0.4605040000000  0.5032410000000  0.5492640000000 1.0
C      1  0.5394930000000  0.4967660000000  0.5492680000000 1.0
C      1  0.5032390000000  0.5492630000000  0.4605020000000 1.0
C      1  0.4967650000000  0.5492690000000  0.5394910000000 1.0
C      1  0.5032320000000  0.4507370000000  0.5394980000000 1.0
C      1  0.5492680000000  0.5394920000000  0.4967630000000 1.0
C      1  0.4507360000000  0.5394970000000  0.5032310000000 1.0
C      1  0.5492640000000  0.4605030000000  0.5032400000000 1.0
END
