TITL C-112676-196-85 -0.504952364318887 1000000 -1791.65570182513 0 0 240 (Cs) n - 1
REM
REM in /home/chem/mssmkc/work/GAP20/Larger-Clusters/Only-C240-new-series
REM
REM
REM
REM
REM
REM ./C.cell (db83009d4c1eceb3c2f0bef44cf3317a)
REM
REM compiler GCC version 8.3.0
REM options -cpp -mtune=generic -march=x86-64 -g -O0
REM seed -1499556833 -143050998 288497554 2034144679 1537978750 298928462 2139177274 1400691916 -933860198 -1093931743 769585880 -1824635381 -296926742 1534387264 -1148682956 615154958 1996271142 984457422 -1201732307 -631127897 -843994048 1523171261 550792330 -1690199817 -1105678994 643946442 -314347709 1381434024 -1526166879 -96936420 -665194232 -1750369546 54040367
REM
CELL 1.54180  100.00000  100.00000  100.00000   90.00000   90.00000   90.00000
LATT -1
SFAC C  
C      1  0.5260820000000  0.5087800000000  0.4389990000000 1.0
C      1  0.4391690000000  0.5263330000000  0.5059380000000 1.0
C      1  0.5064580000000  0.4377300000000  0.5266960000000 1.0
C      1  0.4742180000000  0.4922250000000  0.4380170000000 1.0
C      1  0.4741480000000  0.5082000000000  0.5608080000000 1.0
C      1  0.5262550000000  0.4909720000000  0.5600170000000 1.0
C      1  0.5614730000000  0.4738130000000  0.5062940000000 1.0
C      1  0.5614030000000  0.5270600000000  0.4937040000000 1.0
C      1  0.4394410000000  0.4729880000000  0.4938240000000 1.0
C      1  0.4928760000000  0.5616550000000  0.5261920000000 1.0
C      1  0.4919190000000  0.4388960000000  0.4742610000000 1.0
C      1  0.5072290000000  0.5619350000000  0.4736640000000 1.0
C      1  0.5266840000000  0.5057550000000  0.5603120000000 1.0
C      1  0.4396970000000  0.5258790000000  0.4912870000000 1.0
C      1  0.5065140000000  0.4386910000000  0.4743380000000 1.0
C      1  0.4736090000000  0.4935690000000  0.5609380000000 1.0
C      1  0.4737770000000  0.5067290000000  0.4382720000000 1.0
C      1  0.5264050000000  0.4941260000000  0.4390390000000 1.0
C      1  0.5607030000000  0.4742100000000  0.4917260000000 1.0
C      1  0.5611470000000  0.5266570000000  0.5083460000000 1.0
C      1  0.4394960000000  0.4734540000000  0.5086010000000 1.0
C      1  0.4927150000000  0.5623170000000  0.4736160000000 1.0
C      1  0.4919750000000  0.4371220000000  0.5267960000000 1.0
C      1  0.5073810000000  0.5621390000000  0.5262340000000 1.0
C      1  0.5308580000000  0.4465850000000  0.5525480000000 1.0
C      1  0.5464620000000  0.5383710000000  0.4535350000000 1.0
C      1  0.4512250000000  0.5479340000000  0.5338170000000 1.0
C      1  0.4661810000000  0.5479350000000  0.5487720000000 1.0
C      1  0.4651240000000  0.4533620000000  0.4518640000000 1.0
C      1  0.5340500000000  0.5484950000000  0.4510420000000 1.0
C      1  0.4544510000000  0.4636780000000  0.4517840000000 1.0
C      1  0.4537640000000  0.5378290000000  0.5462340000000 1.0
C      1  0.5482190000000  0.4636840000000  0.5455510000000 1.0
C      1  0.5481400000000  0.4533680000000  0.5348780000000 1.0
C      1  0.5489540000000  0.5484960000000  0.4659460000000 1.0
C      1  0.4474550000000  0.4465800000000  0.4691460000000 1.0
C      1  0.5351460000000  0.4522410000000  0.4543570000000 1.0
C      1  0.5530210000000  0.5305570000000  0.5528650000000 1.0
C      1  0.4538220000000  0.5481150000000  0.4641230000000 1.0
C      1  0.4642770000000  0.5482890000000  0.4535920000000 1.0
C      1  0.4637340000000  0.4515210000000  0.5467740000000 1.0
C      1  0.5358750000000  0.5481200000000  0.5461750000000 1.0
C      1  0.4467720000000  0.4694060000000  0.5532300000000 1.0
C      1  0.4471320000000  0.5305500000000  0.4469780000000 1.0
C      1  0.5525090000000  0.4695120000000  0.4474930000000 1.0
C      1  0.5456460000000  0.4522420000000  0.4648560000000 1.0
C      1  0.5464050000000  0.5482940000000  0.5357190000000 1.0
C      1  0.4532300000000  0.4515200000000  0.5362700000000 1.0
C      1  0.4453240000000  0.5124760000000  0.4622690000000 1.0
C      1  0.4623800000000  0.4434860000000  0.5148570000000 1.0
C      1  0.5150130000000  0.4636170000000  0.4464970000000 1.0
C      1  0.5549620000000  0.4875670000000  0.4626220000000 1.0
C      1  0.5555540000000  0.5129250000000  0.5373410000000 1.0
C      1  0.4448080000000  0.4871000000000  0.5375870000000 1.0
C      1  0.5372530000000  0.5560670000000  0.5141790000000 1.0
C      1  0.5364220000000  0.4449850000000  0.4865550000000 1.0
C      1  0.4629700000000  0.5557890000000  0.4856940000000 1.0
C      1  0.4845790000000  0.5371940000000  0.4457770000000 1.0
C      1  0.4841580000000  0.4627910000000  0.5540560000000 1.0
C      1  0.5156470000000  0.5366540000000  0.5536210000000 1.0
C      1  0.4457410000000  0.5151150000000  0.5366450000000 1.0
C      1  0.4624340000000  0.4440710000000  0.4871460000000 1.0
C      1  0.5127820000000  0.4618910000000  0.5548750000000 1.0
C      1  0.5558010000000  0.4852610000000  0.5365690000000 1.0
C      1  0.5544410000000  0.5156530000000  0.4631390000000 1.0
C      1  0.4466550000000  0.4839110000000  0.4630970000000 1.0
C      1  0.5371850000000  0.5552400000000  0.4862510000000 1.0
C      1  0.5364190000000  0.4459680000000  0.5148080000000 1.0
C      1  0.4630160000000  0.5548100000000  0.5135940000000 1.0
C      1  0.4872920000000  0.5373340000000  0.5550130000000 1.0
C      1  0.4867760000000  0.4629250000000  0.4447220000000 1.0
C      1  0.5129870000000  0.5379700000000  0.4446100000000 1.0
C      1  0.4720120000000  0.5572230000000  0.4616330000000 1.0
C      1  0.4601080000000  0.4728560000000  0.5559340000000 1.0
C      1  0.5527720000000  0.4629010000000  0.4704680000000 1.0
C      1  0.5272410000000  0.4435920000000  0.4625020000000 1.0
C      1  0.5280790000000  0.5570720000000  0.5382090000000 1.0
C      1  0.4713580000000  0.4423410000000  0.5388900000000 1.0
C      1  0.5397590000000  0.5268340000000  0.5554560000000 1.0
C      1  0.5392930000000  0.4732360000000  0.4446520000000 1.0
C      1  0.4604250000000  0.5271610000000  0.4440940000000 1.0
C      1  0.4469790000000  0.5373080000000  0.4698380000000 1.0
C      1  0.4464130000000  0.4622580000000  0.5304090000000 1.0
C      1  0.5535070000000  0.5376920000000  0.5299640000000 1.0
C      1  0.4721870000000  0.5542640000000  0.5378820000000 1.0
C      1  0.4625270000000  0.4714810000000  0.4429570000000 1.0
C      1  0.5568740000000  0.4614750000000  0.5269940000000 1.0
C      1  0.5271570000000  0.4438910000000  0.5393050000000 1.0
C      1  0.5279720000000  0.5547400000000  0.4619510000000 1.0
C      1  0.4706550000000  0.4464270000000  0.4626600000000 1.0
C      1  0.5376610000000  0.5297520000000  0.4453520000000 1.0
C      1  0.5375770000000  0.4693860000000  0.5527020000000 1.0
C      1  0.4626000000000  0.5291970000000  0.5544080000000 1.0
C      1  0.4438990000000  0.5385140000000  0.5267280000000 1.0
C      1  0.4446620000000  0.4598170000000  0.4728570000000 1.0
C      1  0.5563540000000  0.5391060000000  0.4729830000000 1.0
C      1  0.4848650000000  0.4317750000000  0.5151400000000 1.0
C      1  0.5150780000000  0.4862310000000  0.4338290000000 1.0
C      1  0.4344910000000  0.5136780000000  0.4846670000000 1.0
C      1  0.5146810000000  0.5675490000000  0.5146030000000 1.0
C      1  0.5140340000000  0.4333630000000  0.4859710000000 1.0
C      1  0.4853920000000  0.5675470000000  0.4853150000000 1.0
C      1  0.4851440000000  0.5146280000000  0.4332410000000 1.0
C      1  0.4850080000000  0.4856090000000  0.5659230000000 1.0
C      1  0.5153330000000  0.5136830000000  0.5655080000000 1.0
C      1  0.5661710000000  0.4862350000000  0.4849220000000 1.0
C      1  0.5667590000000  0.5146330000000  0.5148540000000 1.0
C      1  0.4340780000000  0.4856060000000  0.5149940000000 1.0
C      1  0.4849620000000  0.4329160000000  0.4858980000000 1.0
C      1  0.5141640000000  0.4844510000000  0.5654620000000 1.0
C      1  0.4340070000000  0.5148530000000  0.5137540000000 1.0
C      1  0.5145760000000  0.5671930000000  0.4854200000000 1.0
C      1  0.5141070000000  0.4329180000000  0.5150430000000 1.0
C      1  0.4854990000000  0.5669730000000  0.5144970000000 1.0
C      1  0.4862460000000  0.5148570000000  0.5659920000000 1.0
C      1  0.4861410000000  0.4852510000000  0.4329610000000 1.0
C      1  0.5141580000000  0.5155360000000  0.4335740000000 1.0
C      1  0.5670400000000  0.4852570000000  0.5138590000000 1.0
C      1  0.5664250000000  0.5155400000000  0.4858390000000 1.0
C      1  0.4345380000000  0.4844450000000  0.4858380000000 1.0
C      1  0.4915010000000  0.4526970000000  0.5466640000000 1.0
C      1  0.5467690000000  0.4947470000000  0.4532300000000 1.0
C      1  0.4537830000000  0.5466530000000  0.4919400000000 1.0
C      1  0.5080570000000  0.5466570000000  0.5462140000000 1.0
C      1  0.5071890000000  0.4538990000000  0.4542180000000 1.0
C      1  0.4921180000000  0.5471140000000  0.4533980000000 1.0
C      1  0.4534790000000  0.5054510000000  0.4527970000000 1.0
C      1  0.4531480000000  0.4942820000000  0.5468530000000 1.0
C      1  0.5472030000000  0.5054570000000  0.5465200000000 1.0
C      1  0.5457850000000  0.4539020000000  0.4928130000000 1.0
C      1  0.5465990000000  0.5471170000000  0.5078780000000 1.0
C      1  0.4533400000000  0.4526940000000  0.5085030000000 1.0
C      1  0.4930230000000  0.4538270000000  0.4539420000000 1.0
C      1  0.5468280000000  0.4914230000000  0.5459340000000 1.0
C      1  0.4535160000000  0.5467480000000  0.5060500000000 1.0
C      1  0.5062430000000  0.5472800000000  0.4531850000000 1.0
C      1  0.5055630000000  0.4523760000000  0.5469290000000 1.0
C      1  0.4939480000000  0.5467510000000  0.5464810000000 1.0
C      1  0.4537680000000  0.5082230000000  0.5462320000000 1.0
C      1  0.4540660000000  0.4914170000000  0.4531730000000 1.0
C      1  0.5463620000000  0.5087220000000  0.4536370000000 1.0
C      1  0.5460610000000  0.4538310000000  0.5069790000000 1.0
C      1  0.5468110000000  0.5472820000000  0.4937530000000 1.0
C      1  0.4530740000000  0.4523730000000  0.4944410000000 1.0
C      1  0.4733080000000  0.4377270000000  0.4935460000000 1.0
C      1  0.4937070000000  0.4738090000000  0.4385290000000 1.0
C      1  0.4399830000000  0.4909670000000  0.4737470000000 1.0
C      1  0.5263320000000  0.5619360000000  0.4927660000000 1.0
C      1  0.5257430000000  0.4388980000000  0.5080850000000 1.0
C      1  0.4738040000000  0.5616540000000  0.5071200000000 1.0
C      1  0.5062930000000  0.5270570000000  0.4385950000000 1.0
C      1  0.5061790000000  0.4729930000000  0.5605610000000 1.0
C      1  0.4940610000000  0.5263370000000  0.5608290000000 1.0
C      1  0.5610000000000  0.5087830000000  0.4739170000000 1.0
C      1  0.5619840000000  0.4922310000000  0.5257810000000 1.0
C      1  0.4391920000000  0.5081970000000  0.5258530000000 1.0
C      1  0.4732080000000  0.4371210000000  0.5080300000000 1.0
C      1  0.4914020000000  0.4734570000000  0.5605060000000 1.0
C      1  0.4390630000000  0.4935660000000  0.5263920000000 1.0
C      1  0.5263800000000  0.5623190000000  0.5072800000000 1.0
C      1  0.5256660000000  0.4386930000000  0.4934900000000 1.0
C      1  0.4737610000000  0.5621370000000  0.4926150000000 1.0
C      1  0.5087120000000  0.5258840000000  0.5603010000000 1.0
C      1  0.5082750000000  0.4742070000000  0.4392990000000 1.0
C      1  0.4916520000000  0.5266520000000  0.4388510000000 1.0
C      1  0.5617280000000  0.5067350000000  0.5262210000000 1.0
C      1  0.5609610000000  0.4941280000000  0.4735950000000 1.0
C      1  0.4396870000000  0.5057490000000  0.4733160000000 1.0
C      1  0.5134480000000  0.4449840000000  0.4635820000000 1.0
C      1  0.4626580000000  0.5129190000000  0.4444460000000 1.0
C      1  0.4459470000000  0.4627880000000  0.5158460000000 1.0
C      1  0.4858170000000  0.5560630000000  0.4627440000000 1.0
C      1  0.4851470000000  0.4434870000000  0.5376240000000 1.0
C      1  0.5143030000000  0.5557920000000  0.5370260000000 1.0
C      1  0.5373780000000  0.4875660000000  0.4450380000000 1.0
C      1  0.5377310000000  0.5124820000000  0.5546740000000 1.0
C      1  0.4624140000000  0.4871010000000  0.5551940000000 1.0
C      1  0.5542210000000  0.5371980000000  0.5154170000000 1.0
C      1  0.5535050000000  0.4636190000000  0.4849890000000 1.0
C      1  0.4463760000000  0.5366490000000  0.4843520000000 1.0
C      1  0.5128580000000  0.4440740000000  0.5375690000000 1.0
C      1  0.4633550000000  0.5151160000000  0.5542590000000 1.0
C      1  0.4451280000000  0.4618860000000  0.4872210000000 1.0
C      1  0.4864030000000  0.5548110000000  0.5369800000000 1.0
C      1  0.4851950000000  0.4459640000000  0.4635850000000 1.0
C      1  0.5137450000000  0.5552390000000  0.4628110000000 1.0
C      1  0.5369040000000  0.4839170000000  0.5533450000000 1.0
C      1  0.5368590000000  0.5156520000000  0.4455580000000 1.0
C      1  0.4634310000000  0.4852550000000  0.4442000000000 1.0
C      1  0.5553880000000  0.5379730000000  0.4870100000000 1.0
C      1  0.5552800000000  0.4629300000000  0.5132260000000 1.0
C      1  0.4449850000000  0.5373310000000  0.5127060000000 1.0
C      1  0.5380450000000  0.5547400000000  0.4720240000000 1.0
C      1  0.4732700000000  0.5385160000000  0.5560990000000 1.0
C      1  0.5570460000000  0.4714880000000  0.5374740000000 1.0
C      1  0.4606990000000  0.4438870000000  0.4728470000000 1.0
C      1  0.4621150000000  0.5542630000000  0.5278100000000 1.0
C      1  0.5373440000000  0.4464320000000  0.5293480000000 1.0
C      1  0.5271470000000  0.4598230000000  0.5553410000000 1.0
C      1  0.5270130000000  0.5391040000000  0.4436430000000 1.0
C      1  0.4730070000000  0.4614700000000  0.4431290000000 1.0
C      1  0.4455900000000  0.5291960000000  0.5373990000000 1.0
C      1  0.4473000000000  0.4693800000000  0.4624260000000 1.0
C      1  0.5546450000000  0.5297530000000  0.4623360000000 1.0
C      1  0.5383640000000  0.5572280000000  0.5279830000000 1.0
C      1  0.4700330000000  0.5376860000000  0.4464910000000 1.0
C      1  0.5553490000000  0.4732370000000  0.4607080000000 1.0
C      1  0.4611140000000  0.4423410000000  0.5286460000000 1.0
C      1  0.4617870000000  0.5570680000000  0.4719180000000 1.0
C      1  0.5375010000000  0.4435920000000  0.4727620000000 1.0
C      1  0.5295330000000  0.4628990000000  0.4472300000000 1.0
C      1  0.5301610000000  0.5373140000000  0.5530180000000 1.0
C      1  0.4695940000000  0.4622600000000  0.5535900000000 1.0
C      1  0.4445420000000  0.5268280000000  0.4602400000000 1.0
C      1  0.4440680000000  0.4728540000000  0.5398950000000 1.0
C      1  0.5559040000000  0.5271680000000  0.5395720000000 1.0
C      1  0.5072480000000  0.5763820000000  0.4927470000000 1.0
C      1  0.4933850000000  0.5070430000000  0.5748610000000 1.0
C      1  0.5758230000000  0.4930620000000  0.5066150000000 1.0
C      1  0.4925020000000  0.4237100000000  0.4930020000000 1.0
C      1  0.4927580000000  0.5762720000000  0.5072370000000 1.0
C      1  0.5070030000000  0.4237110000000  0.5075030000000 1.0
C      1  0.5072900000000  0.4921980000000  0.5745790000000 1.0
C      1  0.5072700000000  0.5077860000000  0.4245010000000 1.0
C      1  0.4933850000000  0.4930570000000  0.4241770000000 1.0
C      1  0.4251380000000  0.5070390000000  0.5066150000000 1.0
C      1  0.4254210000000  0.4921930000000  0.4927120000000 1.0
C      1  0.5754990000000  0.5077910000000  0.4927280000000 1.0
C      1  0.5071630000000  0.5763980000000  0.5071530000000 1.0
C      1  0.4929060000000  0.5074990000000  0.4242420000000 1.0
C      1  0.5754760000000  0.4933530000000  0.4922860000000 1.0
C      1  0.4925780000000  0.4232730000000  0.5074270000000 1.0
C      1  0.4928420000000  0.5763970000000  0.4928320000000 1.0
C      1  0.5068720000000  0.4240400000000  0.4931330000000 1.0
C      1  0.5077130000000  0.4933490000000  0.4245240000000 1.0
C      1  0.5077550000000  0.5066010000000  0.5746230000000 1.0
C      1  0.4929010000000  0.4926460000000  0.5748190000000 1.0
C      1  0.4253770000000  0.5065960000000  0.4922460000000 1.0
C      1  0.4251810000000  0.4926410000000  0.5071010000000 1.0
C      1  0.5757580000000  0.5075050000000  0.5070930000000 1.0
END
