TITL C-112675-8135-5 -5.27170785317283 1000000 -1642.14858491276 0 0 240 (C1) n - 1
REM
REM in /home/chem/mssmkc/work/GAP20/Larger-Clusters/Only-C240-new-series
REM
REM
REM
REM
REM
REM ./C.cell (debb58b9013352640de1e2d0916776b0)
REM
REM compiler GCC version 8.3.0
REM options -cpp -mtune=generic -march=x86-64 -g -O0
REM seed 1268141457 1573933695 -1815722809 -1908105029 -856621362 1177827001 -2101465116 -1292294374 1296858123 -924938325 -1108663598 -227361162 905264951 1428895529 375204508 1762818369 -1496412672 208809002 -1672503525 166631648 -444066830 -279021208 -1722148431 -1495837089 1967954132 346426106 -957548370 1692135959 -811492589 -2096260753 830434667 2011861424 -1388063377
REM
CELL 1.54180  100.00000  100.00000  100.00000   90.00000   90.00000   90.00000
LATT -1
SFAC C  
C      1  0.4868680000000  0.4393040000000  0.4350260000000 1.0
C      1  0.4395310000000  0.4352750000000  0.4869500000000 1.0
C      1  0.4357420000000  0.4873940000000  0.4399200000000 1.0
C      1  0.5131500000000  0.4406180000000  0.5626540000000 1.0
C      1  0.5129430000000  0.5598200000000  0.4357160000000 1.0
C      1  0.4817880000000  0.5638810000000  0.5582150000000 1.0
C      1  0.5627170000000  0.4433150000000  0.5177290000000 1.0
C      1  0.5606590000000  0.5661300000000  0.4872610000000 1.0
C      1  0.4388990000000  0.5652710000000  0.5124000000000 1.0
C      1  0.5656120000000  0.4875540000000  0.5606390000000 1.0
C      1  0.5644750000000  0.5123960000000  0.4417520000000 1.0
C      1  0.4375430000000  0.5122260000000  0.5584700000000 1.0
C      1  0.4876180000000  0.5599040000000  0.4356020000000 1.0
C      1  0.4397940000000  0.5647440000000  0.4870970000000 1.0
C      1  0.4357380000000  0.5126610000000  0.4399030000000 1.0
C      1  0.5185590000000  0.5641590000000  0.5582510000000 1.0
C      1  0.5120280000000  0.4386980000000  0.4349910000000 1.0
C      1  0.4876000000000  0.4391140000000  0.5637780000000 1.0
C      1  0.5615280000000  0.5663950000000  0.5126130000000 1.0
C      1  0.5519720000000  0.4332350000000  0.4904410000000 1.0
C      1  0.4398180000000  0.4350920000000  0.5122560000000 1.0
C      1  0.5635330000000  0.5130060000000  0.5584110000000 1.0
C      1  0.5621080000000  0.4862700000000  0.4463630000000 1.0
C      1  0.4361590000000  0.4868370000000  0.5597520000000 1.0
C      1  0.4924120000000  0.4268500000000  0.4581240000000 1.0
C      1  0.4276550000000  0.4585480000000  0.4929670000000 1.0
C      1  0.4588070000000  0.4931720000000  0.4275160000000 1.0
C      1  0.5066350000000  0.4266930000000  0.5406450000000 1.0
C      1  0.5070390000000  0.5727310000000  0.4584850000000 1.0
C      1  0.4929560000000  0.5748670000000  0.5396500000000 1.0
C      1  0.5733580000000  0.4610840000000  0.5058820000000 1.0
C      1  0.5724210000000  0.5427510000000  0.4930610000000 1.0
C      1  0.4280930000000  0.5413860000000  0.5068620000000 1.0
C      1  0.5418780000000  0.4921590000000  0.5721170000000 1.0
C      1  0.5412150000000  0.5064890000000  0.4296550000000 1.0
C      1  0.4595420000000  0.5054850000000  0.5722800000000 1.0
C      1  0.4932770000000  0.5726900000000  0.4584740000000 1.0
C      1  0.4280550000000  0.5413540000000  0.4930890000000 1.0
C      1  0.4588130000000  0.5069380000000  0.4275140000000 1.0
C      1  0.5072500000000  0.5749870000000  0.5396600000000 1.0
C      1  0.5061980000000  0.4267100000000  0.4582520000000 1.0
C      1  0.4929020000000  0.4264290000000  0.5407930000000 1.0
C      1  0.5723890000000  0.5426330000000  0.5068280000000 1.0
C      1  0.5773580000000  0.4653360000000  0.4937560000000 1.0
C      1  0.4278230000000  0.4584550000000  0.5067260000000 1.0
C      1  0.5414420000000  0.5059210000000  0.5719780000000 1.0
C      1  0.5408960000000  0.4928060000000  0.4307030000000 1.0
C      1  0.4592190000000  0.4917370000000  0.5724590000000 1.0
C      1  0.4369530000000  0.4674140000000  0.4580510000000 1.0
C      1  0.4675250000000  0.4581040000000  0.4365020000000 1.0
C      1  0.4575790000000  0.4366070000000  0.4668560000000 1.0
C      1  0.5674250000000  0.4681630000000  0.5427630000000 1.0
C      1  0.5630030000000  0.5341290000000  0.4581370000000 1.0
C      1  0.4392950000000  0.5331450000000  0.5414490000000 1.0
C      1  0.5345350000000  0.4572490000000  0.5612910000000 1.0
C      1  0.5332010000000  0.5420360000000  0.4369770000000 1.0
C      1  0.4701210000000  0.5403480000000  0.5645730000000 1.0
C      1  0.5413310000000  0.4343210000000  0.5300170000000 1.0
C      1  0.5421970000000  0.5645680000000  0.4674780000000 1.0
C      1  0.4573310000000  0.5662160000000  0.5314450000000 1.0
C      1  0.4373350000000  0.5325560000000  0.4581600000000 1.0
C      1  0.4675750000000  0.5418380000000  0.4369890000000 1.0
C      1  0.4583260000000  0.5635030000000  0.4674050000000 1.0
C      1  0.5615760000000  0.5339990000000  0.5414230000000 1.0
C      1  0.5605230000000  0.4634560000000  0.4610590000000 1.0
C      1  0.4372890000000  0.4667450000000  0.5417150000000 1.0
C      1  0.5305930000000  0.5407500000000  0.5644500000000 1.0
C      1  0.5313780000000  0.4573550000000  0.4364880000000 1.0
C      1  0.4670960000000  0.4567320000000  0.5627530000000 1.0
C      1  0.5430420000000  0.5669450000000  0.5315740000000 1.0
C      1  0.5405120000000  0.4373890000000  0.4675740000000 1.0
C      1  0.4579270000000  0.4357430000000  0.5323520000000 1.0
C      1  0.4929220000000  0.5704380000000  0.5537140000000 1.0
C      1  0.5686390000000  0.5549400000000  0.4866870000000 1.0
C      1  0.5542600000000  0.4863010000000  0.5683200000000 1.0
C      1  0.5134540000000  0.5681550000000  0.4466180000000 1.0
C      1  0.5132640000000  0.4318560000000  0.5521370000000 1.0
C      1  0.4861210000000  0.4311830000000  0.4460810000000 1.0
C      1  0.4315630000000  0.5536590000000  0.5131560000000 1.0
C      1  0.4315250000000  0.4464490000000  0.4864760000000 1.0
C      1  0.5667020000000  0.4483850000000  0.5054760000000 1.0
C      1  0.4467940000000  0.4867980000000  0.4317790000000 1.0
C      1  0.4481210000000  0.5122600000000  0.5671750000000 1.0
C      1  0.5534410000000  0.5127300000000  0.4335120000000 1.0
C      1  0.4867200000000  0.4306540000000  0.5529440000000 1.0
C      1  0.5615620000000  0.4433780000000  0.4935210000000 1.0
C      1  0.5528350000000  0.5128340000000  0.5669790000000 1.0
C      1  0.5126330000000  0.4307130000000  0.4461760000000 1.0
C      1  0.5073370000000  0.5705490000000  0.5537230000000 1.0
C      1  0.4869360000000  0.5682390000000  0.4465120000000 1.0
C      1  0.4318840000000  0.4462920000000  0.5129640000000 1.0
C      1  0.4320010000000  0.5534370000000  0.4866210000000 1.0
C      1  0.5689710000000  0.5548410000000  0.5132610000000 1.0
C      1  0.4467410000000  0.5132990000000  0.4316760000000 1.0
C      1  0.4469570000000  0.4857490000000  0.5682430000000 1.0
C      1  0.5520130000000  0.4864550000000  0.4369600000000 1.0
C      1  0.5269520000000  0.4466790000000  0.5587270000000 1.0
C      1  0.4460940000000  0.5626620000000  0.5255810000000 1.0
C      1  0.5610340000000  0.5265210000000  0.4475400000000 1.0
C      1  0.4737350000000  0.4466800000000  0.4387040000000 1.0
C      1  0.4730140000000  0.5519350000000  0.5597380000000 1.0
C      1  0.5264310000000  0.5531090000000  0.4393690000000 1.0
C      1  0.5535050000000  0.5625320000000  0.4739400000000 1.0
C      1  0.5529200000000  0.4392090000000  0.5273770000000 1.0
C      1  0.4464580000000  0.4388940000000  0.4735510000000 1.0
C      1  0.4417450000000  0.5257890000000  0.5521830000000 1.0
C      1  0.4393450000000  0.4740280000000  0.4468960000000 1.0
C      1  0.5635670000000  0.4740990000000  0.5538530000000 1.0
C      1  0.5275100000000  0.5523260000000  0.5597150000000 1.0
C      1  0.4468580000000  0.4384080000000  0.5256910000000 1.0
C      1  0.5586360000000  0.4720080000000  0.4510360000000 1.0
C      1  0.4742140000000  0.5530030000000  0.4392550000000 1.0
C      1  0.4739370000000  0.4456970000000  0.5604180000000 1.0
C      1  0.5252010000000  0.4459280000000  0.4385700000000 1.0
C      1  0.5493930000000  0.4389380000000  0.4771290000000 1.0
C      1  0.5543740000000  0.5635950000000  0.5257700000000 1.0
C      1  0.4470950000000  0.5610990000000  0.4738940000000 1.0
C      1  0.4394250000000  0.4732820000000  0.5529560000000 1.0
C      1  0.4394090000000  0.5260060000000  0.4469140000000 1.0
C      1  0.5592110000000  0.5265150000000  0.5520930000000 1.0
C      1  0.5312300000000  0.5171010000000  0.4289720000000 1.0
C      1  0.5167040000000  0.4262130000000  0.5302080000000 1.0
C      1  0.4293570000000  0.5311430000000  0.5172060000000 1.0
C      1  0.4701110000000  0.5154680000000  0.5728170000000 1.0
C      1  0.4691080000000  0.4828530000000  0.4278240000000 1.0
C      1  0.5320110000000  0.4814090000000  0.5712920000000 1.0
C      1  0.4820310000000  0.4273980000000  0.4683840000000 1.0
C      1  0.4819960000000  0.5736570000000  0.5308940000000 1.0
C      1  0.5173430000000  0.5727720000000  0.4687860000000 1.0
C      1  0.5716100000000  0.5324640000000  0.4827760000000 1.0
C      1  0.5727140000000  0.4694470000000  0.5177560000000 1.0
C      1  0.4281620000000  0.4689270000000  0.4827350000000 1.0
C      1  0.5307160000000  0.4825010000000  0.4293880000000 1.0
C      1  0.5182440000000  0.5739760000000  0.5309190000000 1.0
C      1  0.4285020000000  0.4686830000000  0.5170990000000 1.0
C      1  0.4692740000000  0.4811320000000  0.5720830000000 1.0
C      1  0.4691310000000  0.5172440000000  0.4279720000000 1.0
C      1  0.5308180000000  0.5158400000000  0.5725100000000 1.0
C      1  0.4829630000000  0.5724590000000  0.4687850000000 1.0
C      1  0.4824640000000  0.4266500000000  0.5305950000000 1.0
C      1  0.5165110000000  0.4272920000000  0.4686200000000 1.0
C      1  0.5716620000000  0.4702050000000  0.4825440000000 1.0
C      1  0.5711080000000  0.5322280000000  0.5170240000000 1.0
C      1  0.4286660000000  0.5310170000000  0.4828400000000 1.0
C      1  0.4253940000000  0.4820000000000  0.4846630000000 1.0
C      1  0.4821230000000  0.4846780000000  0.4247300000000 1.0
C      1  0.4838140000000  0.4243530000000  0.4814240000000 1.0
C      1  0.5740530000000  0.4830700000000  0.5155310000000 1.0
C      1  0.5737570000000  0.5192760000000  0.4845970000000 1.0
C      1  0.4267860000000  0.5179880000000  0.5155570000000 1.0
C      1  0.5188680000000  0.4825630000000  0.5742110000000 1.0
C      1  0.5182290000000  0.5153970000000  0.4257080000000 1.0
C      1  0.4827350000000  0.5129500000000  0.5768800000000 1.0
C      1  0.5145700000000  0.4225060000000  0.5173990000000 1.0
C      1  0.5154620000000  0.5760560000000  0.4817440000000 1.0
C      1  0.4844650000000  0.5764460000000  0.5176330000000 1.0
C      1  0.4258240000000  0.5179500000000  0.4846780000000 1.0
C      1  0.4821940000000  0.5154910000000  0.4250550000000 1.0
C      1  0.4847970000000  0.5757010000000  0.4817570000000 1.0
C      1  0.5733800000000  0.5190420000000  0.5151370000000 1.0
C      1  0.5716380000000  0.4841350000000  0.4829390000000 1.0
C      1  0.4258880000000  0.4818390000000  0.5154730000000 1.0
C      1  0.5182190000000  0.5132350000000  0.5765810000000 1.0
C      1  0.5180410000000  0.4844890000000  0.4251900000000 1.0
C      1  0.4824330000000  0.4823610000000  0.5749510000000 1.0
C      1  0.5157630000000  0.5767350000000  0.5176530000000 1.0
C      1  0.5152250000000  0.4243360000000  0.4817570000000 1.0
C      1  0.4840930000000  0.4236470000000  0.5175080000000 1.0
C      1  0.4494260000000  0.4736510000000  0.4364470000000 1.0
C      1  0.4730820000000  0.4361710000000  0.4486940000000 1.0
C      1  0.4361450000000  0.4490990000000  0.4733170000000 1.0
C      1  0.5524880000000  0.4731110000000  0.5634750000000 1.0
C      1  0.5510930000000  0.5262530000000  0.4370680000000 1.0
C      1  0.4514280000000  0.5254380000000  0.5629850000000 1.0
C      1  0.5265250000000  0.4359220000000  0.5490380000000 1.0
C      1  0.5266590000000  0.5636950000000  0.4493300000000 1.0
C      1  0.4707920000000  0.5627260000000  0.5499760000000 1.0
C      1  0.5640780000000  0.4497710000000  0.5295260000000 1.0
C      1  0.5638780000000  0.5524130000000  0.4735360000000 1.0
C      1  0.4366510000000  0.5514700000000  0.5262030000000 1.0
C      1  0.4493790000000  0.5264310000000  0.4363840000000 1.0
C      1  0.4737960000000  0.5635800000000  0.4491980000000 1.0
C      1  0.4368740000000  0.5508030000000  0.4735470000000 1.0
C      1  0.5494330000000  0.5259950000000  0.5628020000000 1.0
C      1  0.5491860000000  0.4729220000000  0.4400760000000 1.0
C      1  0.4492350000000  0.4725330000000  0.5636160000000 1.0
C      1  0.5295840000000  0.5632020000000  0.5500230000000 1.0
C      1  0.5256600000000  0.4356780000000  0.4488180000000 1.0
C      1  0.4734840000000  0.4351340000000  0.5504770000000 1.0
C      1  0.5639430000000  0.5524910000000  0.5263150000000 1.0
C      1  0.5599920000000  0.4489330000000  0.4802960000000 1.0
C      1  0.4366530000000  0.4487130000000  0.5261110000000 1.0
C      1  0.4249770000000  0.5074180000000  0.5076670000000 1.0
C      1  0.5076570000000  0.5075150000000  0.4239410000000 1.0
C      1  0.5067110000000  0.4216320000000  0.5067520000000 1.0
C      1  0.5742450000000  0.5085530000000  0.4924250000000 1.0
C      1  0.5742820000000  0.4934200000000  0.5072860000000 1.0
C      1  0.4242850000000  0.4925580000000  0.4926760000000 1.0
C      1  0.4931680000000  0.5048560000000  0.5780190000000 1.0
C      1  0.4927230000000  0.4925990000000  0.4234300000000 1.0
C      1  0.5081260000000  0.4900680000000  0.5765350000000 1.0
C      1  0.4918390000000  0.4225660000000  0.4918710000000 1.0
C      1  0.4924890000000  0.5775430000000  0.5072390000000 1.0
C      1  0.5075650000000  0.5774920000000  0.4923630000000 1.0
C      1  0.4246350000000  0.4925120000000  0.5076310000000 1.0
C      1  0.5075900000000  0.4925580000000  0.4236580000000 1.0
C      1  0.5077400000000  0.5776930000000  0.5072440000000 1.0
C      1  0.5735330000000  0.4937860000000  0.4918550000000 1.0
C      1  0.5744300000000  0.5083260000000  0.5072560000000 1.0
C      1  0.4245290000000  0.5074280000000  0.4927010000000 1.0
C      1  0.4931760000000  0.4899810000000  0.5768080000000 1.0
C      1  0.4927680000000  0.5075590000000  0.4236620000000 1.0
C      1  0.5079540000000  0.5049510000000  0.5778370000000 1.0
C      1  0.4926690000000  0.5773290000000  0.4923650000000 1.0
C      1  0.4918220000000  0.4221240000000  0.5067720000000 1.0
C      1  0.5068590000000  0.4222980000000  0.4919430000000 1.0
C      1  0.5306710000000  0.5684060000000  0.5369870000000 1.0
C      1  0.5652340000000  0.5389000000000  0.5292620000000 1.0
C      1  0.5361100000000  0.5284570000000  0.5666380000000 1.0
C      1  0.4706770000000  0.5664040000000  0.4625400000000 1.0
C      1  0.4702580000000  0.4325740000000  0.5370930000000 1.0
C      1  0.5285900000000  0.4336010000000  0.4622730000000 1.0
C      1  0.4344460000000  0.5373780000000  0.4705160000000 1.0
C      1  0.4342800000000  0.4621080000000  0.5293150000000 1.0
C      1  0.5644170000000  0.4605800000000  0.4739300000000 1.0
C      1  0.4627800000000  0.5295080000000  0.4338970000000 1.0
C      1  0.4625660000000  0.4691030000000  0.5660710000000 1.0
C      1  0.5364460000000  0.4698800000000  0.4351580000000 1.0
C      1  0.5291660000000  0.4320370000000  0.5357560000000 1.0
C      1  0.5687420000000  0.4630640000000  0.5302510000000 1.0
C      1  0.5390780000000  0.4695360000000  0.5650740000000 1.0
C      1  0.4698940000000  0.4335310000000  0.4620410000000 1.0
C      1  0.4696480000000  0.5678870000000  0.5369250000000 1.0
C      1  0.5297550000000  0.5669350000000  0.4625880000000 1.0
C      1  0.4338730000000  0.4625720000000  0.4703630000000 1.0
C      1  0.4354350000000  0.5379120000000  0.5292910000000 1.0
C      1  0.5660840000000  0.5389830000000  0.4704410000000 1.0
C      1  0.4627830000000  0.4705280000000  0.4337160000000 1.0
C      1  0.4647240000000  0.5280150000000  0.5668530000000 1.0
C      1  0.5377770000000  0.5295220000000  0.4342870000000 1.0
END
