TITL C-112675-8135-90 -0.00491859271111711 1000000 -1697.0753133822 0 0 240 (Th) n - 1
REM
REM in /home/chem/mssmkc/work/GAP20/Larger-Clusters/Only-C240-new-series
REM
REM
REM
REM
REM
REM ./C.cell (92f43df4b06298221612a7c33f48e63b)
REM
REM compiler GCC version 8.3.0
REM options -cpp -mtune=generic -march=x86-64 -g -O0
REM seed 869013882 1985460728 -636677260 -1643452613 -882782844 1785438710 756510996 -24699324 -1850914441 -1264596661 -1391455709 622646311 430593491 2141670759 1161101882 -2065910340 1384589772 1409012378 -397305412 1104927638 2064253208 -1735812438 884422387 652473843 702990513 -1005393864 80875068 -1217529256 -1475213859 624569904 -664494357 2001791768 -1612735592
REM
CELL 1.54180  100.00000  100.00000  100.00000   90.00000   90.00000   90.00000
LATT -1
SFAC C  
C      1  0.5163090000000  0.4764090000000  0.4296540000000 1.0
C      1  0.4296530000000  0.5163140000000  0.4764140000000 1.0
C      1  0.4764110000000  0.4296550000000  0.5163170000000 1.0
C      1  0.4837000000000  0.4763780000000  0.5703380000000 1.0
C      1  0.5163370000000  0.5235980000000  0.5703370000000 1.0
C      1  0.4836550000000  0.5236160000000  0.4296710000000 1.0
C      1  0.5703410000000  0.5163320000000  0.5235910000000 1.0
C      1  0.4296720000000  0.4836600000000  0.5236220000000 1.0
C      1  0.5703350000000  0.4836940000000  0.4763720000000 1.0
C      1  0.5236160000000  0.4296700000000  0.4836590000000 1.0
C      1  0.4763760000000  0.5703360000000  0.4836950000000 1.0
C      1  0.5235980000000  0.5703390000000  0.5163290000000 1.0
C      1  0.5163000000000  0.5236220000000  0.4296620000000 1.0
C      1  0.4296590000000  0.4836680000000  0.4764090000000 1.0
C      1  0.4763840000000  0.5703300000000  0.5163410000000 1.0
C      1  0.4836910000000  0.5235910000000  0.5703460000000 1.0
C      1  0.5163450000000  0.4763840000000  0.5703290000000 1.0
C      1  0.4836630000000  0.4764020000000  0.4296630000000 1.0
C      1  0.5703470000000  0.4836860000000  0.5235860000000 1.0
C      1  0.4296650000000  0.5163060000000  0.5236280000000 1.0
C      1  0.5703280000000  0.5163400000000  0.4763780000000 1.0
C      1  0.5235890000000  0.5703450000000  0.4836830000000 1.0
C      1  0.4764020000000  0.4296610000000  0.4836710000000 1.0
C      1  0.5236240000000  0.4296640000000  0.5163050000000 1.0
C      1  0.4717710000000  0.4929340000000  0.4189230000000 1.0
C      1  0.4189210000000  0.4717770000000  0.4929420000000 1.0
C      1  0.4929340000000  0.4189210000000  0.4717780000000 1.0
C      1  0.5282320000000  0.4929170000000  0.5810740000000 1.0
C      1  0.4718100000000  0.5070550000000  0.5810910000000 1.0
C      1  0.5281870000000  0.5070940000000  0.4189110000000 1.0
C      1  0.5810900000000  0.4718040000000  0.5070490000000 1.0
C      1  0.4189140000000  0.5281930000000  0.5071000000000 1.0
C      1  0.5810760000000  0.5282260000000  0.4929100000000 1.0
C      1  0.5070970000000  0.4189140000000  0.5281940000000 1.0
C      1  0.4929180000000  0.5810770000000  0.5282250000000 1.0
C      1  0.5070520000000  0.5810890000000  0.4718030000000 1.0
C      1  0.4717680000000  0.5070830000000  0.4189260000000 1.0
C      1  0.4189100000000  0.5281960000000  0.4929510000000 1.0
C      1  0.4929030000000  0.5810860000000  0.4718060000000 1.0
C      1  0.5282290000000  0.5070660000000  0.5810770000000 1.0
C      1  0.4718130000000  0.4929060000000  0.5810890000000 1.0
C      1  0.5281900000000  0.4929450000000  0.4189090000000 1.0
C      1  0.5810790000000  0.5282230000000  0.5070580000000 1.0
C      1  0.4189240000000  0.4717740000000  0.5070900000000 1.0
C      1  0.5810860000000  0.4718070000000  0.4929000000000 1.0
C      1  0.5070660000000  0.5810790000000  0.5282220000000 1.0
C      1  0.4929480000000  0.4189110000000  0.5281970000000 1.0
C      1  0.5070820000000  0.4189230000000  0.4717750000000 1.0
C      1  0.4825860000000  0.5580440000000  0.5354760000000 1.0
C      1  0.5354790000000  0.4825840000000  0.5580410000000 1.0
C      1  0.5580420000000  0.5354750000000  0.4825790000000 1.0
C      1  0.5173920000000  0.5580630000000  0.4645440000000 1.0
C      1  0.4825890000000  0.4419490000000  0.4645330000000 1.0
C      1  0.5174320000000  0.4419440000000  0.5354470000000 1.0
C      1  0.4645270000000  0.4825910000000  0.4419530000000 1.0
C      1  0.5354430000000  0.5174290000000  0.4419400000000 1.0
C      1  0.4645510000000  0.5173960000000  0.5580660000000 1.0
C      1  0.4419440000000  0.5354470000000  0.5174340000000 1.0
C      1  0.5580650000000  0.4645470000000  0.5173910000000 1.0
C      1  0.4419490000000  0.4645310000000  0.4825960000000 1.0
C      1  0.4826080000000  0.4419370000000  0.5354560000000 1.0
C      1  0.5354730000000  0.5174090000000  0.5580470000000 1.0
C      1  0.5580560000000  0.4645530000000  0.4825660000000 1.0
C      1  0.5174140000000  0.4419560000000  0.4645240000000 1.0
C      1  0.4825680000000  0.5580560000000  0.4645530000000 1.0
C      1  0.5174110000000  0.5580510000000  0.5354670000000 1.0
C      1  0.4645210000000  0.5174160000000  0.4419590000000 1.0
C      1  0.5354490000000  0.4826040000000  0.4419340000000 1.0
C      1  0.4645570000000  0.4825710000000  0.5580600000000 1.0
C      1  0.4419580000000  0.4645250000000  0.5174210000000 1.0
C      1  0.5580510000000  0.5354690000000  0.5174040000000 1.0
C      1  0.4419350000000  0.5354530000000  0.4826090000000 1.0
C      1  0.4562230000000  0.4925420000000  0.5522200000000 1.0
C      1  0.5522160000000  0.4562190000000  0.4925380000000 1.0
C      1  0.4925380000000  0.5522160000000  0.4562190000000 1.0
C      1  0.5437800000000  0.4925760000000  0.4477780000000 1.0
C      1  0.4561940000000  0.5074420000000  0.4478030000000 1.0
C      1  0.5438040000000  0.5074400000000  0.5522000000000 1.0
C      1  0.4478000000000  0.4561970000000  0.5074470000000 1.0
C      1  0.5522040000000  0.5438000000000  0.5074350000000 1.0
C      1  0.4477800000000  0.5437830000000  0.4925800000000 1.0
C      1  0.5074420000000  0.5522040000000  0.5437990000000 1.0
C      1  0.4925800000000  0.4477810000000  0.5437850000000 1.0
C      1  0.5074390000000  0.4477990000000  0.4561970000000 1.0
C      1  0.4562200000000  0.5074240000000  0.5522220000000 1.0
C      1  0.5522000000000  0.5438030000000  0.4925530000000 1.0
C      1  0.4925580000000  0.4477960000000  0.4562010000000 1.0
C      1  0.5437770000000  0.5074580000000  0.4477800000000 1.0
C      1  0.4561960000000  0.4925600000000  0.4478000000000 1.0
C      1  0.5438060000000  0.4925580000000  0.5521970000000 1.0
C      1  0.4477840000000  0.5437810000000  0.5074620000000 1.0
C      1  0.5522200000000  0.4562170000000  0.5074200000000 1.0
C      1  0.4477960000000  0.4562000000000  0.4925650000000 1.0
C      1  0.5074620000000  0.4477840000000  0.5437810000000 1.0
C      1  0.4925610000000  0.5522010000000  0.5438030000000 1.0
C      1  0.5074200000000  0.5522190000000  0.4562150000000 1.0
C      1  0.4717610000000  0.5517480000000  0.4710320000000 1.0
C      1  0.4710340000000  0.4717640000000  0.5517510000000 1.0
C      1  0.5517460000000  0.4710300000000  0.4717600000000 1.0
C      1  0.5282190000000  0.5517480000000  0.5289860000000 1.0
C      1  0.4717960000000  0.4482420000000  0.5289830000000 1.0
C      1  0.5282240000000  0.4482620000000  0.4710000000000 1.0
C      1  0.5289760000000  0.4717930000000  0.4482400000000 1.0
C      1  0.4709970000000  0.5282250000000  0.4482640000000 1.0
C      1  0.5289920000000  0.5282180000000  0.5517450000000 1.0
C      1  0.4482650000000  0.4710010000000  0.5282300000000 1.0
C      1  0.5517500000000  0.5289890000000  0.5282130000000 1.0
C      1  0.4482390000000  0.5289790000000  0.4717970000000 1.0
C      1  0.4717810000000  0.4482520000000  0.4710140000000 1.0
C      1  0.4710240000000  0.5282070000000  0.5517600000000 1.0
C      1  0.5517350000000  0.5289990000000  0.4717700000000 1.0
C      1  0.5282390000000  0.4482520000000  0.5289680000000 1.0
C      1  0.4717760000000  0.5517380000000  0.5290000000000 1.0
C      1  0.5282040000000  0.5517580000000  0.4710170000000 1.0
C      1  0.5289660000000  0.5282360000000  0.4482490000000 1.0
C      1  0.4710080000000  0.4717820000000  0.4482550000000 1.0
C      1  0.5290030000000  0.4717750000000  0.5517360000000 1.0
C      1  0.4482540000000  0.5289700000000  0.5282400000000 1.0
C      1  0.5517610000000  0.4710210000000  0.5282030000000 1.0
C      1  0.4482500000000  0.4710110000000  0.4717870000000 1.0
C      1  0.5409730000000  0.4467380000000  0.4926400000000 1.0
C      1  0.4926380000000  0.5409720000000  0.4467380000000 1.0
C      1  0.4467410000000  0.4926430000000  0.5409770000000 1.0
C      1  0.4590470000000  0.4467200000000  0.5073420000000 1.0
C      1  0.5409570000000  0.5532780000000  0.5073390000000 1.0
C      1  0.4590240000000  0.5532650000000  0.4926790000000 1.0
C      1  0.5073460000000  0.5409570000000  0.5532760000000 1.0
C      1  0.4926810000000  0.4590250000000  0.5532660000000 1.0
C      1  0.5073340000000  0.4590460000000  0.4467200000000 1.0
C      1  0.5532620000000  0.4926770000000  0.4590200000000 1.0
C      1  0.4467170000000  0.5073370000000  0.4590500000000 1.0
C      1  0.5532800000000  0.5073430000000  0.5409520000000 1.0
C      1  0.5409530000000  0.5532800000000  0.4926580000000 1.0
C      1  0.4926540000000  0.4590430000000  0.4467240000000 1.0
C      1  0.4467380000000  0.5073230000000  0.5409800000000 1.0
C      1  0.4590270000000  0.5532620000000  0.5073600000000 1.0
C      1  0.5409760000000  0.4467350000000  0.5073210000000 1.0
C      1  0.4590430000000  0.4467220000000  0.4926610000000 1.0
C      1  0.5073620000000  0.4590280000000  0.5532620000000 1.0
C      1  0.4926660000000  0.5409540000000  0.5532800000000 1.0
C      1  0.5073190000000  0.5409750000000  0.4467340000000 1.0
C      1  0.5532590000000  0.5073570000000  0.4590230000000 1.0
C      1  0.4467200000000  0.4926570000000  0.4590480000000 1.0
C      1  0.5532830000000  0.4926630000000  0.5409500000000 1.0
C      1  0.4927160000000  0.5864320000000  0.4855150000000 1.0
C      1  0.4855220000000  0.4927190000000  0.5864330000000 1.0
C      1  0.5864310000000  0.4855160000000  0.4927110000000 1.0
C      1  0.5072510000000  0.5864290000000  0.5145150000000 1.0
C      1  0.4927560000000  0.4135660000000  0.5144890000000 1.0
C      1  0.5072760000000  0.4135730000000  0.4854810000000 1.0
C      1  0.5144810000000  0.4927540000000  0.4135650000000 1.0
C      1  0.4854750000000  0.5072760000000  0.4135750000000 1.0
C      1  0.5145230000000  0.5072520000000  0.5864280000000 1.0
C      1  0.4135740000000  0.4854810000000  0.5072840000000 1.0
C      1  0.5864300000000  0.5145170000000  0.5072440000000 1.0
C      1  0.4135650000000  0.5144870000000  0.4927610000000 1.0
C      1  0.4927490000000  0.4135710000000  0.4854850000000 1.0
C      1  0.4855190000000  0.5072460000000  0.5864350000000 1.0
C      1  0.5864260000000  0.5145190000000  0.4927160000000 1.0
C      1  0.5072840000000  0.4135680000000  0.5144850000000 1.0
C      1  0.4927240000000  0.5864270000000  0.5145190000000 1.0
C      1  0.5072440000000  0.5864340000000  0.4855110000000 1.0
C      1  0.5144780000000  0.5072810000000  0.4135670000000 1.0
C      1  0.4854770000000  0.4927480000000  0.4135720000000 1.0
C      1  0.5145250000000  0.4927240000000  0.5864250000000 1.0
C      1  0.4135690000000  0.5144840000000  0.5072890000000 1.0
C      1  0.5864350000000  0.4855130000000  0.5072390000000 1.0
C      1  0.4135700000000  0.4854830000000  0.4927560000000 1.0
C      1  0.5321190000000  0.4415840000000  0.5170610000000 1.0
C      1  0.5170590000000  0.5321160000000  0.4415820000000 1.0
C      1  0.4415860000000  0.5170630000000  0.5321210000000 1.0
C      1  0.4679030000000  0.4415780000000  0.4829190000000 1.0
C      1  0.5320880000000  0.5584280000000  0.4829220000000 1.0
C      1  0.4678900000000  0.5584100000000  0.5170980000000 1.0
C      1  0.4829290000000  0.5320900000000  0.5584290000000 1.0
C      1  0.5171010000000  0.4678900000000  0.5584090000000 1.0
C      1  0.4829110000000  0.4679040000000  0.4415800000000 1.0
C      1  0.5584070000000  0.5170960000000  0.4678850000000 1.0
C      1  0.4415760000000  0.4829150000000  0.4679090000000 1.0
C      1  0.5584300000000  0.4829260000000  0.5320850000000 1.0
C      1  0.5320970000000  0.5584220000000  0.5170810000000 1.0
C      1  0.5170710000000  0.4679100000000  0.4415710000000 1.0
C      1  0.4415930000000  0.4829040000000  0.5321150000000 1.0
C      1  0.4678810000000  0.5584160000000  0.4829390000000 1.0
C      1  0.5321100000000  0.4415900000000  0.4829020000000 1.0
C      1  0.4679120000000  0.4415720000000  0.5170780000000 1.0
C      1  0.4829410000000  0.4678840000000  0.5584180000000 1.0
C      1  0.5170890000000  0.5320960000000  0.5584200000000 1.0
C      1  0.4828990000000  0.5321100000000  0.4415910000000 1.0
C      1  0.5584140000000  0.4829370000000  0.4678790000000 1.0
C      1  0.4415700000000  0.5170740000000  0.4679150000000 1.0
C      1  0.5584240000000  0.5170850000000  0.5320910000000 1.0
C      1  0.4715130000000  0.5163450000000  0.5707560000000 1.0
C      1  0.5707550000000  0.4715080000000  0.5163400000000 1.0
C      1  0.5163420000000  0.5707530000000  0.4715060000000 1.0
C      1  0.5284810000000  0.5163800000000  0.4292500000000 1.0
C      1  0.4714820000000  0.4836440000000  0.4292590000000 1.0
C      1  0.5285240000000  0.4836300000000  0.5707350000000 1.0
C      1  0.4292560000000  0.4714870000000  0.4836510000000 1.0
C      1  0.5707360000000  0.5285180000000  0.4836240000000 1.0
C      1  0.4292530000000  0.5284860000000  0.5163860000000 1.0
C      1  0.4836310000000  0.5707380000000  0.5285190000000 1.0
C      1  0.5163830000000  0.4292530000000  0.5284860000000 1.0
C      1  0.4836430000000  0.4292560000000  0.4714900000000 1.0
C      1  0.4715190000000  0.4836200000000  0.5707500000000 1.0
C      1  0.5707440000000  0.5285130000000  0.5163490000000 1.0
C      1  0.5163690000000  0.4292620000000  0.4714810000000 1.0
C      1  0.5284870000000  0.4836550000000  0.4292440000000 1.0
C      1  0.4714760000000  0.5163700000000  0.4292650000000 1.0
C      1  0.5285180000000  0.5163560000000  0.5707410000000 1.0
C      1  0.4292450000000  0.5284920000000  0.4836600000000 1.0
C      1  0.5707470000000  0.4715140000000  0.4836140000000 1.0
C      1  0.4292640000000  0.4714820000000  0.5163760000000 1.0
C      1  0.4836580000000  0.4292470000000  0.5284940000000 1.0
C      1  0.5163570000000  0.5707440000000  0.5285100000000 1.0
C      1  0.4836170000000  0.5707470000000  0.4715140000000 1.0
C      1  0.4205280000000  0.5070040000000  0.5176190000000 1.0
C      1  0.5176140000000  0.4205270000000  0.5070030000000 1.0
C      1  0.5069980000000  0.5176120000000  0.4205260000000 1.0
C      1  0.5794690000000  0.5070390000000  0.4823840000000 1.0
C      1  0.4205220000000  0.4929670000000  0.4824220000000 1.0
C      1  0.5794810000000  0.4929900000000  0.5175750000000 1.0
C      1  0.4824160000000  0.4205230000000  0.4929690000000 1.0
C      1  0.5175800000000  0.5794800000000  0.4929880000000 1.0
C      1  0.4823900000000  0.5794710000000  0.5070400000000 1.0
C      1  0.4929960000000  0.5175820000000  0.5794800000000 1.0
C      1  0.5070450000000  0.4823910000000  0.5794700000000 1.0
C      1  0.4929610000000  0.4824150000000  0.4205240000000 1.0
C      1  0.4205310000000  0.4929610000000  0.5176160000000 1.0
C      1  0.5175840000000  0.5794770000000  0.5070310000000 1.0
C      1  0.5070040000000  0.4824180000000  0.4205200000000 1.0
C      1  0.5794720000000  0.4929960000000  0.4823810000000 1.0
C      1  0.4205190000000  0.5070100000000  0.4824250000000 1.0
C      1  0.5794780000000  0.5070330000000  0.5175780000000 1.0
C      1  0.4823860000000  0.5794730000000  0.4929970000000 1.0
C      1  0.5176100000000  0.4205290000000  0.4929600000000 1.0
C      1  0.4824200000000  0.4205200000000  0.5070120000000 1.0
C      1  0.4930020000000  0.4823880000000  0.5794740000000 1.0
C      1  0.5070390000000  0.5175850000000  0.5794760000000 1.0
C      1  0.4929550000000  0.5176090000000  0.4205300000000 1.0
END
