TITL C-112675-8135-195 16.3698854215376 1000000 -1602.54550152126 0 0 240 (C1) n - 1
REM
REM in /home/chem/mssmkc/work/GAP20/Larger-Clusters/Only-C240-new-series
REM
REM
REM
REM
REM
REM ./C.cell (c58642faaf353743302a0f2d8ff18644)
REM
REM compiler GCC version 8.3.0
REM options -cpp -mtune=generic -march=x86-64 -g -O0
REM seed -527097992 348921474 1183399507 -88617230 796738180 -1822410970 860319475 701966926 563954424 -1089531838 430884888 159252052 1904011284 2059638911 27032347 -1727088648 -2102180814 -902912991 857978243 -1074409650 757841813 -1125145570 -802101613 -2047766223 1972462424 1743272553 569867420 2106593554 -252996474 1198306491 -1115365407 192254724 217128516
REM
CELL 1.54180  100.00000  100.00000  100.00000   90.00000   90.00000   90.00000
LATT -1
SFAC C  
C      1  0.5633360000000  0.5024420000000  0.4759390000000 1.0
C      1  0.4762820000000  0.5627620000000  0.5029180000000 1.0
C      1  0.5026060000000  0.4762820000000  0.5631120000000 1.0
C      1  0.4344780000000  0.5034550000000  0.5234460000000 1.0
C      1  0.5663260000000  0.4967520000000  0.5234850000000 1.0
C      1  0.4374220000000  0.4973010000000  0.4760450000000 1.0
C      1  0.5237580000000  0.5662110000000  0.4969960000000 1.0
C      1  0.4755060000000  0.4338250000000  0.4975210000000 1.0
C      1  0.5230180000000  0.4372850000000  0.5035070000000 1.0
C      1  0.4966990000000  0.4762040000000  0.4343710000000 1.0
C      1  0.5031190000000  0.5235940000000  0.4370510000000 1.0
C      1  0.4971240000000  0.5239100000000  0.5659210000000 1.0
C      1  0.4762260000000  0.5033200000000  0.5657530000000 1.0
C      1  0.5030040000000  0.5663310000000  0.4762580000000 1.0
C      1  0.5664420000000  0.4758990000000  0.5028410000000 1.0
C      1  0.5237250000000  0.5026000000000  0.4369930000000 1.0
C      1  0.5235940000000  0.4968920000000  0.5628020000000 1.0
C      1  0.4761130000000  0.4971010000000  0.4339510000000 1.0
C      1  0.4970910000000  0.5626350000000  0.5237030000000 1.0
C      1  0.4962890000000  0.4344850000000  0.4768220000000 1.0
C      1  0.5022250000000  0.4366950000000  0.5243140000000 1.0
C      1  0.4375660000000  0.4766010000000  0.4969410000000 1.0
C      1  0.4340550000000  0.5241400000000  0.5026500000000 1.0
C      1  0.5630160000000  0.5233420000000  0.4966410000000 1.0
C      1  0.5481250000000  0.5582210000000  0.5381710000000 1.0
C      1  0.5387640000000  0.5477160000000  0.5582770000000 1.0
C      1  0.5586260000000  0.5381430000000  0.5475420000000 1.0
C      1  0.4517300000000  0.5585480000000  0.4615230000000 1.0
C      1  0.5475450000000  0.4415170000000  0.4622490000000 1.0
C      1  0.4511540000000  0.4417270000000  0.5388960000000 1.0
C      1  0.4620700000000  0.5486820000000  0.4415230000000 1.0
C      1  0.5376050000000  0.4514600000000  0.4420990000000 1.0
C      1  0.4609340000000  0.4521710000000  0.5588460000000 1.0
C      1  0.4418740000000  0.5385430000000  0.4512060000000 1.0
C      1  0.5582010000000  0.4608780000000  0.4516490000000 1.0
C      1  0.4414980000000  0.4624040000000  0.5479880000000 1.0
C      1  0.5384690000000  0.5580390000000  0.5482140000000 1.0
C      1  0.5583970000000  0.5481190000000  0.5378160000000 1.0
C      1  0.5486570000000  0.5379090000000  0.5579450000000 1.0
C      1  0.4617730000000  0.5587100000000  0.4518720000000 1.0
C      1  0.4608050000000  0.4417010000000  0.5489380000000 1.0
C      1  0.5374980000000  0.4415910000000  0.4526100000000 1.0
C      1  0.4416140000000  0.5482750000000  0.4611690000000 1.0
C      1  0.4413570000000  0.4522940000000  0.5384210000000 1.0
C      1  0.5581050000000  0.4513080000000  0.4617740000000 1.0
C      1  0.4522750000000  0.5387810000000  0.4412200000000 1.0
C      1  0.4514420000000  0.4623570000000  0.5584290000000 1.0
C      1  0.5478070000000  0.4609450000000  0.4416610000000 1.0
C      1  0.5046350000000  0.4331840000000  0.4431300000000 1.0
C      1  0.4426500000000  0.5059860000000  0.4316900000000 1.0
C      1  0.4328650000000  0.4417940000000  0.5056580000000 1.0
C      1  0.4935470000000  0.4322190000000  0.5592100000000 1.0
C      1  0.5058020000000  0.5666420000000  0.5586700000000 1.0
C      1  0.4947020000000  0.5680510000000  0.4426260000000 1.0
C      1  0.5587500000000  0.5051230000000  0.5663650000000 1.0
C      1  0.4423930000000  0.4954550000000  0.5666150000000 1.0
C      1  0.5583720000000  0.4934850000000  0.4319470000000 1.0
C      1  0.5675200000000  0.4421650000000  0.4946930000000 1.0
C      1  0.4319620000000  0.5576820000000  0.4940050000000 1.0
C      1  0.5666760000000  0.5584330000000  0.5050490000000 1.0
C      1  0.4418730000000  0.4322210000000  0.5059510000000 1.0
C      1  0.4333700000000  0.5057340000000  0.4410060000000 1.0
C      1  0.5046430000000  0.4423660000000  0.4336870000000 1.0
C      1  0.5579700000000  0.4331220000000  0.4949810000000 1.0
C      1  0.5574070000000  0.5677660000000  0.5053530000000 1.0
C      1  0.4413140000000  0.5669230000000  0.4943100000000 1.0
C      1  0.5680470000000  0.5053670000000  0.5570580000000 1.0
C      1  0.5677790000000  0.4934780000000  0.4411220000000 1.0
C      1  0.4331890000000  0.4954330000000  0.5571930000000 1.0
C      1  0.4935830000000  0.4416540000000  0.5683560000000 1.0
C      1  0.4949750000000  0.5587440000000  0.4333300000000 1.0
C      1  0.5060790000000  0.5573890000000  0.5680110000000 1.0
C      1  0.4944680000000  0.4843940000000  0.4229600000000 1.0
C      1  0.4253910000000  0.4926450000000  0.4821270000000 1.0
C      1  0.4839440000000  0.4227030000000  0.4949580000000 1.0
C      1  0.5073310000000  0.4823670000000  0.5750690000000 1.0
C      1  0.4946140000000  0.5156280000000  0.5771640000000 1.0
C      1  0.5076110000000  0.5174380000000  0.4249730000000 1.0
C      1  0.5776120000000  0.4943940000000  0.5151940000000 1.0
C      1  0.4231070000000  0.5056550000000  0.5151970000000 1.0
C      1  0.5753090000000  0.5072020000000  0.4819930000000 1.0
C      1  0.5170730000000  0.4250900000000  0.5079140000000 1.0
C      1  0.4822590000000  0.5747970000000  0.5076710000000 1.0
C      1  0.5153760000000  0.5774600000000  0.4947660000000 1.0
C      1  0.4254790000000  0.4825340000000  0.4922960000000 1.0
C      1  0.4844590000000  0.4945190000000  0.4227720000000 1.0
C      1  0.4940260000000  0.4230160000000  0.4849100000000 1.0
C      1  0.5776710000000  0.4842870000000  0.5051660000000 1.0
C      1  0.5751630000000  0.5173630000000  0.4921160000000 1.0
C      1  0.4229140000000  0.5157010000000  0.5051100000000 1.0
C      1  0.5175190000000  0.4924650000000  0.5749450000000 1.0
C      1  0.5177070000000  0.5072490000000  0.4249710000000 1.0
C      1  0.4844890000000  0.5056160000000  0.5770970000000 1.0
C      1  0.5069440000000  0.4247950000000  0.5180680000000 1.0
C      1  0.5053050000000  0.5775180000000  0.4847030000000 1.0
C      1  0.4924030000000  0.5747360000000  0.5178070000000 1.0
C      1  0.5551110000000  0.5204770000000  0.5294120000000 1.0
C      1  0.5298360000000  0.5548940000000  0.5206330000000 1.0
C      1  0.5209300000000  0.5297020000000  0.5548850000000 1.0
C      1  0.4461040000000  0.5206160000000  0.4688570000000 1.0
C      1  0.5544610000000  0.4791960000000  0.4689470000000 1.0
C      1  0.4455880000000  0.4796710000000  0.5296010000000 1.0
C      1  0.4692070000000  0.5541230000000  0.4795620000000 1.0
C      1  0.5302260000000  0.4463950000000  0.4803220000000 1.0
C      1  0.4695540000000  0.4445810000000  0.5213950000000 1.0
C      1  0.4798570000000  0.5309130000000  0.4458500000000 1.0
C      1  0.5204870000000  0.4701670000000  0.4454930000000 1.0
C      1  0.4793520000000  0.4691510000000  0.5543250000000 1.0
C      1  0.5308510000000  0.5200970000000  0.5537960000000 1.0
C      1  0.5203960000000  0.5537890000000  0.5307110000000 1.0
C      1  0.5540540000000  0.5304860000000  0.5198880000000 1.0
C      1  0.4702610000000  0.5209780000000  0.4447960000000 1.0
C      1  0.4701080000000  0.4794580000000  0.5548400000000 1.0
C      1  0.5307960000000  0.4794080000000  0.4459900000000 1.0
C      1  0.4792910000000  0.5552030000000  0.4701250000000 1.0
C      1  0.4789740000000  0.4454170000000  0.5314900000000 1.0
C      1  0.5200860000000  0.4456860000000  0.4708770000000 1.0
C      1  0.4449990000000  0.5301340000000  0.4788540000000 1.0
C      1  0.4463330000000  0.4694560000000  0.5202460000000 1.0
C      1  0.5553100000000  0.4698610000000  0.4791270000000 1.0
C      1  0.4440050000000  0.5244080000000  0.4544220000000 1.0
C      1  0.4548800000000  0.4432080000000  0.5248310000000 1.0
C      1  0.5236780000000  0.4554470000000  0.4444490000000 1.0
C      1  0.5567540000000  0.5240770000000  0.5440330000000 1.0
C      1  0.4440760000000  0.4763480000000  0.5442680000000 1.0
C      1  0.5567840000000  0.4751210000000  0.4546040000000 1.0
C      1  0.5445820000000  0.4439750000000  0.4763800000000 1.0
C      1  0.4548100000000  0.5563290000000  0.4756720000000 1.0
C      1  0.5444890000000  0.5564480000000  0.5241180000000 1.0
C      1  0.4751790000000  0.4549260000000  0.5571670000000 1.0
C      1  0.5246530000000  0.5442870000000  0.5566130000000 1.0
C      1  0.4761640000000  0.5453770000000  0.4438260000000 1.0
C      1  0.4556830000000  0.5246820000000  0.4429770000000 1.0
C      1  0.5235340000000  0.4441890000000  0.4562310000000 1.0
C      1  0.4437160000000  0.4551510000000  0.5242580000000 1.0
C      1  0.5453260000000  0.5238080000000  0.5557210000000 1.0
C      1  0.5450340000000  0.4752020000000  0.4432480000000 1.0
C      1  0.4553940000000  0.4762790000000  0.5560050000000 1.0
C      1  0.4750270000000  0.4431120000000  0.5458640000000 1.0
C      1  0.4758170000000  0.5568520000000  0.4554810000000 1.0
C      1  0.5243110000000  0.5559020000000  0.5451160000000 1.0
C      1  0.5565120000000  0.4551500000000  0.4758030000000 1.0
C      1  0.5560820000000  0.5449250000000  0.5237010000000 1.0
C      1  0.4432710000000  0.5447460000000  0.4752570000000 1.0
C      1  0.5569290000000  0.4858520000000  0.5225250000000 1.0
C      1  0.5228040000000  0.5568900000000  0.4860240000000 1.0
C      1  0.4863520000000  0.5229950000000  0.5563820000000 1.0
C      1  0.4489050000000  0.4917180000000  0.4823090000000 1.0
C      1  0.5517630000000  0.5080490000000  0.4820140000000 1.0
C      1  0.4437540000000  0.5144600000000  0.5223520000000 1.0
C      1  0.4825760000000  0.5512700000000  0.5084500000000 1.0
C      1  0.5166740000000  0.4485620000000  0.5094010000000 1.0
C      1  0.4764270000000  0.4435110000000  0.4868680000000 1.0
C      1  0.5088290000000  0.5172980000000  0.4484510000000 1.0
C      1  0.4857630000000  0.4774280000000  0.4437160000000 1.0
C      1  0.5082950000000  0.4822460000000  0.5515240000000 1.0
C      1  0.5172260000000  0.4911150000000  0.5514750000000 1.0
C      1  0.4914820000000  0.5512160000000  0.5173450000000 1.0
C      1  0.5516780000000  0.5169480000000  0.4909140000000 1.0
C      1  0.4769700000000  0.4863900000000  0.4435660000000 1.0
C      1  0.4773890000000  0.5142010000000  0.5563360000000 1.0
C      1  0.5176960000000  0.5083660000000  0.4485090000000 1.0
C      1  0.5139220000000  0.5569400000000  0.4771480000000 1.0
C      1  0.5078110000000  0.4483290000000  0.5183370000000 1.0
C      1  0.4853060000000  0.4437710000000  0.4779940000000 1.0
C      1  0.4435970000000  0.5232970000000  0.5134320000000 1.0
C      1  0.4489990000000  0.4828500000000  0.4912430000000 1.0
C      1  0.5569810000000  0.4769280000000  0.5136930000000 1.0
C      1  0.5121950000000  0.5454050000000  0.5657170000000 1.0
C      1  0.5657960000000  0.5115680000000  0.5451180000000 1.0
C      1  0.5455060000000  0.5655410000000  0.5116360000000 1.0
C      1  0.4892640000000  0.5464910000000  0.4355010000000 1.0
C      1  0.5109420000000  0.4542750000000  0.4357080000000 1.0
C      1  0.4880480000000  0.4539680000000  0.5658410000000 1.0
C      1  0.4355920000000  0.5113590000000  0.4532930000000 1.0
C      1  0.5655550000000  0.4879330000000  0.4534780000000 1.0
C      1  0.4353980000000  0.4891280000000  0.5453170000000 1.0
C      1  0.4536270000000  0.5646860000000  0.4887400000000 1.0
C      1  0.5456940000000  0.4355980000000  0.4894220000000 1.0
C      1  0.4537920000000  0.4341830000000  0.5122970000000 1.0
C      1  0.5644520000000  0.5461360000000  0.5106490000000 1.0
C      1  0.5464780000000  0.5107770000000  0.5641520000000 1.0
C      1  0.5113140000000  0.5643630000000  0.5463390000000 1.0
C      1  0.4342030000000  0.5457570000000  0.4877570000000 1.0
C      1  0.4353600000000  0.4540800000000  0.5111960000000 1.0
C      1  0.5655620000000  0.4540600000000  0.4883150000000 1.0
C      1  0.4546110000000  0.5121560000000  0.4339580000000 1.0
C      1  0.4542750000000  0.4890890000000  0.5646410000000 1.0
C      1  0.5460400000000  0.4880010000000  0.4344780000000 1.0
C      1  0.4883680000000  0.5658570000000  0.4545060000000 1.0
C      1  0.4878880000000  0.4343860000000  0.5468980000000 1.0
C      1  0.5107970000000  0.4354680000000  0.4550690000000 1.0
C      1  0.5021220000000  0.4907930000000  0.4121800000000 1.0
C      1  0.4135340000000  0.4990250000000  0.4877760000000 1.0
C      1  0.4906280000000  0.4119240000000  0.5023420000000 1.0
C      1  0.5009020000000  0.4881520000000  0.5868200000000 1.0
C      1  0.5020930000000  0.5090260000000  0.5879170000000 1.0
C      1  0.5011010000000  0.5117520000000  0.4131980000000 1.0
C      1  0.5882850000000  0.5020070000000  0.5085990000000 1.0
C      1  0.4124190000000  0.4979510000000  0.5087100000000 1.0
C      1  0.5871320000000  0.5008430000000  0.4877120000000 1.0
C      1  0.5115250000000  0.4133400000000  0.5012540000000 1.0
C      1  0.4878320000000  0.5867200000000  0.5013550000000 1.0
C      1  0.5087330000000  0.5880420000000  0.5024750000000 1.0
C      1  0.4136360000000  0.4881070000000  0.4987560000000 1.0
C      1  0.4911210000000  0.5019290000000  0.4120090000000 1.0
C      1  0.5016960000000  0.4122350000000  0.4912750000000 1.0
C      1  0.5883520000000  0.4909020000000  0.4975670000000 1.0
C      1  0.5870010000000  0.5118230000000  0.4986270000000 1.0
C      1  0.4122400000000  0.5089860000000  0.4976090000000 1.0
C      1  0.5119090000000  0.4990390000000  0.5867200000000 1.0
C      1  0.5119880000000  0.5007440000000  0.4132300000000 1.0
C      1  0.4909570000000  0.4980240000000  0.5878790000000 1.0
C      1  0.5005830000000  0.4130410000000  0.5122000000000 1.0
C      1  0.4976620000000  0.5881060000000  0.4914100000000 1.0
C      1  0.4987850000000  0.5866550000000  0.5123020000000 1.0
C      1  0.4377400000000  0.4919500000000  0.5315170000000 1.0
C      1  0.5323020000000  0.4394070000000  0.4929700000000 1.0
C      1  0.4926160000000  0.5329710000000  0.4390510000000 1.0
C      1  0.5615430000000  0.4917680000000  0.4667600000000 1.0
C      1  0.4392930000000  0.5078700000000  0.4667390000000 1.0
C      1  0.5631760000000  0.5083650000000  0.5314340000000 1.0
C      1  0.4675240000000  0.4366920000000  0.5091810000000 1.0
C      1  0.5317810000000  0.5630070000000  0.5085460000000 1.0
C      1  0.4670350000000  0.5609140000000  0.4923050000000 1.0
C      1  0.5088160000000  0.5317910000000  0.5629260000000 1.0
C      1  0.4919260000000  0.4671100000000  0.5614340000000 1.0
C      1  0.5081910000000  0.4681400000000  0.4377000000000 1.0
C      1  0.5328850000000  0.4919280000000  0.4387950000000 1.0
C      1  0.4915950000000  0.4383960000000  0.5335760000000 1.0
C      1  0.4369820000000  0.5321060000000  0.4909970000000 1.0
C      1  0.4681370000000  0.4918100000000  0.5625510000000 1.0
C      1  0.4682190000000  0.5088120000000  0.4368260000000 1.0
C      1  0.5329530000000  0.5073840000000  0.5606800000000 1.0
C      1  0.5078360000000  0.4378110000000  0.4688370000000 1.0
C      1  0.5077010000000  0.5606670000000  0.5329280000000 1.0
C      1  0.4914310000000  0.5632440000000  0.4682240000000 1.0
C      1  0.5609180000000  0.5326440000000  0.5071790000000 1.0
C      1  0.5632950000000  0.4678600000000  0.4912850000000 1.0
C      1  0.4394300000000  0.4673770000000  0.5075550000000 1.0
END
