TITL C-112676-196-25 20.5870323099782 1000000 -1654.04225718211 0 0 240 (C1) n - 1
REM
REM in /home/chem/mssmkc/work/GAP20/Larger-Clusters/Only-C240-new-series
REM
REM
REM
REM
REM
REM ./C.cell (2f3fc68bb9f120311d5b08947c2f1929)
REM
REM compiler GCC version 8.3.0
REM options -cpp -mtune=generic -march=x86-64 -g -O0
REM seed -294610305 -192341809 -365847574 -1835677744 -701960845 1537698819 -22064142 53421607 -214669428 602248581 1422668544 764639844 1841733371 823344030 -1035056226 968263646 -191503668 1904555897 2096312576 933004844 -963314101 -441848529 -1346402858 700329440 -347857335 -396214194 774363653 580085654 1058282485 -1732644406 414541045 -1664385878 613342746
REM
CELL 1.54180  100.00000  100.00000  100.00000   90.00000   90.00000   90.00000
LATT -1
SFAC C  
C      1  0.4566730000000  0.5299480000000  0.4629030000000 1.0
C      1  0.5248600000000  0.4592510000000  0.4488720000000 1.0
C      1  0.4594380000000  0.4482930000000  0.5295520000000 1.0
C      1  0.5490060000000  0.5248640000000  0.5400330000000 1.0
C      1  0.5433010000000  0.4695880000000  0.4620590000000 1.0
C      1  0.4584670000000  0.4694870000000  0.5409120000000 1.0
C      1  0.4697920000000  0.4619880000000  0.5471570000000 1.0
C      1  0.4750170000000  0.5404070000000  0.4498100000000 1.0
C      1  0.5273730000000  0.5369710000000  0.5407050000000 1.0
C      1  0.5375450000000  0.4580870000000  0.4695840000000 1.0
C      1  0.5353000000000  0.5429540000000  0.5295770000000 1.0
C      1  0.4621170000000  0.5416270000000  0.4705300000000 1.0
C      1  0.4594520000000  0.4709320000000  0.4610400000000 1.0
C      1  0.5294900000000  0.5356090000000  0.4562800000000 1.0
C      1  0.4579820000000  0.5503070000000  0.5275760000000 1.0
C      1  0.5441180000000  0.4697140000000  0.5372490000000 1.0
C      1  0.5403740000000  0.5274380000000  0.4624240000000 1.0
C      1  0.4575520000000  0.5293110000000  0.5394840000000 1.0
C      1  0.4691820000000  0.5370300000000  0.5448080000000 1.0
C      1  0.4701510000000  0.4629840000000  0.4542810000000 1.0
C      1  0.5253660000000  0.4598820000000  0.5506980000000 1.0
C      1  0.5397550000000  0.5488460000000  0.4747580000000 1.0
C      1  0.5380920000000  0.4583200000000  0.5298040000000 1.0
C      1  0.4592430000000  0.4489820000000  0.4712810000000 1.0
C      1  0.4898080000000  0.4514950000000  0.4353130000000 1.0
C      1  0.4558290000000  0.4354790000000  0.4930150000000 1.0
C      1  0.4408800000000  0.4940370000000  0.4538330000000 1.0
C      1  0.5057180000000  0.4527220000000  0.5641380000000 1.0
C      1  0.5104500000000  0.5479410000000  0.4375580000000 1.0
C      1  0.4909300000000  0.5478470000000  0.5613180000000 1.0
C      1  0.5456060000000  0.4386560000000  0.5069880000000 1.0
C      1  0.5463310000000  0.5612740000000  0.4952720000000 1.0
C      1  0.4517780000000  0.5626660000000  0.5061980000000 1.0
C      1  0.5621960000000  0.4901670000000  0.5480760000000 1.0
C      1  0.5595610000000  0.5051090000000  0.4536220000000 1.0
C      1  0.4386020000000  0.5065370000000  0.5481960000000 1.0
C      1  0.4957500000000  0.5467580000000  0.4374970000000 1.0
C      1  0.4523990000000  0.5617890000000  0.4915940000000 1.0
C      1  0.4398070000000  0.5084490000000  0.4522760000000 1.0
C      1  0.5053010000000  0.5459860000000  0.5600420000000 1.0
C      1  0.5045650000000  0.4526300000000  0.4356730000000 1.0
C      1  0.4910160000000  0.4515060000000  0.5650380000000 1.0
C      1  0.5473170000000  0.5613890000000  0.5099890000000 1.0
C      1  0.5455040000000  0.4386190000000  0.4923680000000 1.0
C      1  0.4558960000000  0.4353590000000  0.5077130000000 1.0
C      1  0.5617880000000  0.5048560000000  0.5469770000000 1.0
C      1  0.5605750000000  0.4907240000000  0.4515990000000 1.0
C      1  0.4388490000000  0.4919660000000  0.5485180000000 1.0
C      1  0.5040470000000  0.4476100000000  0.5185260000000 1.0
C      1  0.4297300000000  0.5294490000000  0.5061840000000 1.0
C      1  0.5305120000000  0.5060350000000  0.4252340000000 1.0
C      1  0.4914450000000  0.4465980000000  0.4819040000000 1.0
C      1  0.4931370000000  0.5723030000000  0.5305060000000 1.0
C      1  0.5065290000000  0.5741160000000  0.4689310000000 1.0
C      1  0.5709700000000  0.5306400000000  0.4942170000000 1.0
C      1  0.5721000000000  0.4693000000000  0.5057530000000 1.0
C      1  0.4314560000000  0.4678900000000  0.4942820000000 1.0
C      1  0.4700500000000  0.5065050000000  0.5737090000000 1.0
C      1  0.4697100000000  0.4939840000000  0.4249440000000 1.0
C      1  0.5311450000000  0.4938610000000  0.5757570000000 1.0
C      1  0.5056240000000  0.5738230000000  0.5302570000000 1.0
C      1  0.4315640000000  0.4680650000000  0.5069240000000 1.0
C      1  0.5309630000000  0.4934960000000  0.4259320000000 1.0
C      1  0.4942900000000  0.5712440000000  0.4689230000000 1.0
C      1  0.4915360000000  0.4465440000000  0.5183110000000 1.0
C      1  0.5039600000000  0.4475410000000  0.4815100000000 1.0
C      1  0.5716250000000  0.4694100000000  0.4931180000000 1.0
C      1  0.5745390000000  0.5302990000000  0.5062700000000 1.0
C      1  0.4273290000000  0.5290130000000  0.4937470000000 1.0
C      1  0.4700670000000  0.4938880000000  0.5744970000000 1.0
C      1  0.4692320000000  0.5064740000000  0.4262350000000 1.0
C      1  0.5313110000000  0.5058080000000  0.5718160000000 1.0
C      1  0.4622760000000  0.5667780000000  0.4846320000000 1.0
C      1  0.5686010000000  0.4842700000000  0.4597460000000 1.0
C      1  0.4848040000000  0.4604810000000  0.5722840000000 1.0
C      1  0.5389320000000  0.5688960000000  0.5166410000000 1.0
C      1  0.5363510000000  0.4329590000000  0.4847330000000 1.0
C      1  0.4624750000000  0.4275430000000  0.5162050000000 1.0
C      1  0.4342010000000  0.4847350000000  0.5386110000000 1.0
C      1  0.4316750000000  0.5147700000000  0.4604210000000 1.0
C      1  0.5681230000000  0.5116950000000  0.5376600000000 1.0
C      1  0.5113980000000  0.4621210000000  0.4296200000000 1.0
C      1  0.5123380000000  0.5362490000000  0.5653090000000 1.0
C      1  0.4890320000000  0.5375510000000  0.4308810000000 1.0
C      1  0.4622950000000  0.4277300000000  0.4843920000000 1.0
C      1  0.5647620000000  0.5119770000000  0.4635140000000 1.0
C      1  0.4846750000000  0.5398220000000  0.5696180000000 1.0
C      1  0.5364740000000  0.4331610000000  0.5147750000000 1.0
C      1  0.5373520000000  0.5679340000000  0.4883170000000 1.0
C      1  0.4609220000000  0.5693200000000  0.5129350000000 1.0
C      1  0.4335220000000  0.5130620000000  0.5380200000000 1.0
C      1  0.4358370000000  0.4868170000000  0.4635530000000 1.0
C      1  0.5695810000000  0.4840690000000  0.5391630000000 1.0
C      1  0.5171460000000  0.5395660000000  0.4300830000000 1.0
C      1  0.5127460000000  0.4622150000000  0.5699770000000 1.0
C      1  0.4831290000000  0.4603280000000  0.4283000000000 1.0
C      1  0.4727030000000  0.5509850000000  0.4693270000000 1.0
C      1  0.5539980000000  0.4707450000000  0.4718050000000 1.0
C      1  0.4709300000000  0.4720190000000  0.5575650000000 1.0
C      1  0.5256570000000  0.5538570000000  0.5284590000000 1.0
C      1  0.5268900000000  0.4491200000000  0.4684090000000 1.0
C      1  0.4707010000000  0.4425730000000  0.5334200000000 1.0
C      1  0.4496810000000  0.4679990000000  0.5298800000000 1.0
C      1  0.4458100000000  0.5286500000000  0.4725070000000 1.0
C      1  0.5550230000000  0.5290930000000  0.5290760000000 1.0
C      1  0.5290240000000  0.4703060000000  0.4429520000000 1.0
C      1  0.5290830000000  0.5266630000000  0.5503240000000 1.0
C      1  0.4710540000000  0.5293580000000  0.4437970000000 1.0
C      1  0.4703090000000  0.4429810000000  0.4672650000000 1.0
C      1  0.5497900000000  0.5288350000000  0.4729580000000 1.0
C      1  0.4707230000000  0.5274780000000  0.5556250000000 1.0
C      1  0.5273070000000  0.4494980000000  0.5311320000000 1.0
C      1  0.5290100000000  0.5551440000000  0.4703920000000 1.0
C      1  0.4695190000000  0.5560530000000  0.5304450000000 1.0
C      1  0.4481670000000  0.5303780000000  0.5289550000000 1.0
C      1  0.4502890000000  0.4690010000000  0.4717710000000 1.0
C      1  0.5548530000000  0.4705700000000  0.5274240000000 1.0
C      1  0.5284590000000  0.5260650000000  0.4452740000000 1.0
C      1  0.5298570000000  0.4708570000000  0.5565340000000 1.0
C      1  0.4715190000000  0.4731760000000  0.4440470000000 1.0
C      1  0.4527920000000  0.5072690000000  0.5528390000000 1.0
C      1  0.5102470000000  0.5504310000000  0.4522050000000 1.0
C      1  0.5503840000000  0.4527980000000  0.5072880000000 1.0
C      1  0.5451740000000  0.5048660000000  0.4498080000000 1.0
C      1  0.5475850000000  0.4898870000000  0.5507770000000 1.0
C      1  0.4552210000000  0.4944290000000  0.4498630000000 1.0
C      1  0.4895760000000  0.5508700000000  0.5469860000000 1.0
C      1  0.4896260000000  0.4485750000000  0.4497870000000 1.0
C      1  0.5052630000000  0.4494100000000  0.5497760000000 1.0
C      1  0.4518080000000  0.4498380000000  0.4930290000000 1.0
C      1  0.4475700000000  0.5484630000000  0.5072830000000 1.0
C      1  0.5494970000000  0.5468270000000  0.4950420000000 1.0
C      1  0.4530270000000  0.4919550000000  0.5532530000000 1.0
C      1  0.5045740000000  0.4492180000000  0.4500650000000 1.0
C      1  0.5496650000000  0.5467330000000  0.5099990000000 1.0
C      1  0.5462860000000  0.4897320000000  0.4482610000000 1.0
C      1  0.5474210000000  0.5048710000000  0.5504710000000 1.0
C      1  0.4540640000000  0.5096670000000  0.4489630000000 1.0
C      1  0.4902940000000  0.4486320000000  0.5505550000000 1.0
C      1  0.4952810000000  0.5502430000000  0.4518680000000 1.0
C      1  0.5047160000000  0.5494440000000  0.5455670000000 1.0
C      1  0.4486490000000  0.5472310000000  0.4922430000000 1.0
C      1  0.4517960000000  0.4496750000000  0.5079790000000 1.0
C      1  0.5502180000000  0.4527830000000  0.4919320000000 1.0
C      1  0.5669050000000  0.5205570000000  0.5272290000000 1.0
C      1  0.5205220000000  0.5259280000000  0.5619710000000 1.0
C      1  0.5264200000000  0.5661760000000  0.5217710000000 1.0
C      1  0.4343120000000  0.5206560000000  0.4725850000000 1.0
C      1  0.4386940000000  0.4772730000000  0.5282300000000 1.0
C      1  0.5656660000000  0.4784150000000  0.4718770000000 1.0
C      1  0.4800190000000  0.5272790000000  0.4324600000000 1.0
C      1  0.4787220000000  0.4724330000000  0.5692200000000 1.0
C      1  0.5202680000000  0.4724710000000  0.4314780000000 1.0
C      1  0.4733080000000  0.5625750000000  0.4779230000000 1.0
C      1  0.4735250000000  0.4322480000000  0.5235570000000 1.0
C      1  0.5256230000000  0.4385470000000  0.4782230000000 1.0
C      1  0.5667050000000  0.4780630000000  0.5271500000000 1.0
C      1  0.5214800000000  0.4727390000000  0.5685340000000 1.0
C      1  0.5258710000000  0.4388510000000  0.5213890000000 1.0
C      1  0.4392410000000  0.4781370000000  0.4734600000000 1.0
C      1  0.4375730000000  0.5206120000000  0.5275400000000 1.0
C      1  0.5613260000000  0.5201460000000  0.4738270000000 1.0
C      1  0.4781050000000  0.4727440000000  0.4316690000000 1.0
C      1  0.4787500000000  0.5276510000000  0.5670550000000 1.0
C      1  0.5220540000000  0.5269640000000  0.4328310000000 1.0
C      1  0.4732120000000  0.4324900000000  0.4769240000000 1.0
C      1  0.4717330000000  0.5668710000000  0.5209950000000 1.0
C      1  0.5271400000000  0.5667980000000  0.4791820000000 1.0
C      1  0.5074930000000  0.4268740000000  0.5074970000000 1.0
C      1  0.4288190000000  0.5061170000000  0.5079490000000 1.0
C      1  0.5075030000000  0.5074440000000  0.4229030000000 1.0
C      1  0.4928740000000  0.4252400000000  0.4925660000000 1.0
C      1  0.4919680000000  0.5743430000000  0.5069610000000 1.0
C      1  0.5068130000000  0.5750380000000  0.4922610000000 1.0
C      1  0.5735570000000  0.5074520000000  0.4924200000000 1.0
C      1  0.5751910000000  0.4923730000000  0.5068920000000 1.0
C      1  0.4291400000000  0.4910350000000  0.4933430000000 1.0
C      1  0.4933010000000  0.5076610000000  0.5756470000000 1.0
C      1  0.4927170000000  0.4926310000000  0.4226040000000 1.0
C      1  0.5080670000000  0.4929030000000  0.5767130000000 1.0
C      1  0.5067030000000  0.5751950000000  0.5070780000000 1.0
C      1  0.4295730000000  0.4911860000000  0.5081280000000 1.0
C      1  0.5075570000000  0.4927240000000  0.4226510000000 1.0
C      1  0.4921350000000  0.5737220000000  0.4920560000000 1.0
C      1  0.4929810000000  0.4252400000000  0.5076050000000 1.0
C      1  0.5073930000000  0.4268100000000  0.4924870000000 1.0
C      1  0.5741720000000  0.4926020000000  0.4921510000000 1.0
C      1  0.5751950000000  0.5072250000000  0.5070520000000 1.0
C      1  0.4278800000000  0.5058370000000  0.4931940000000 1.0
C      1  0.4932070000000  0.4929350000000  0.5769710000000 1.0
C      1  0.4926710000000  0.5073470000000  0.4229750000000 1.0
C      1  0.5081450000000  0.5074890000000  0.5747660000000 1.0
C      1  0.5403850000000  0.4775000000000  0.5487670000000 1.0
C      1  0.4768370000000  0.5485420000000  0.5407270000000 1.0
C      1  0.5472050000000  0.5405700000000  0.4820430000000 1.0
C      1  0.4618340000000  0.4821800000000  0.4511110000000 1.0
C      1  0.4598380000000  0.5188250000000  0.5502120000000 1.0
C      1  0.5382850000000  0.5168500000000  0.4517470000000 1.0
C      1  0.5222930000000  0.5476380000000  0.4596990000000 1.0
C      1  0.5180000000000  0.4520570000000  0.5427980000000 1.0
C      1  0.4771500000000  0.4508890000000  0.4569530000000 1.0
C      1  0.4502430000000  0.5423460000000  0.5201070000000 1.0
C      1  0.4526670000000  0.4565850000000  0.4801360000000 1.0
C      1  0.5486940000000  0.4599820000000  0.5189360000000 1.0
C      1  0.5409250000000  0.5177100000000  0.5478240000000 1.0
C      1  0.4775020000000  0.4504590000000  0.5438030000000 1.0
C      1  0.5481870000000  0.4599740000000  0.4803440000000 1.0
C      1  0.4605620000000  0.5222990000000  0.4512990000000 1.0
C      1  0.4602870000000  0.4804060000000  0.5513040000000 1.0
C      1  0.5395520000000  0.4772220000000  0.4504830000000 1.0
C      1  0.5174270000000  0.4515920000000  0.4568500000000 1.0
C      1  0.5166200000000  0.5474880000000  0.5385380000000 1.0
C      1  0.4821860000000  0.5481260000000  0.4579680000000 1.0
C      1  0.4525500000000  0.4560570000000  0.5210610000000 1.0
C      1  0.4513140000000  0.5396560000000  0.4809350000000 1.0
C      1  0.5472160000000  0.5394750000000  0.5222540000000 1.0
C      1  0.4806330000000  0.4854300000000  0.4250470000000 1.0
C      1  0.4858660000000  0.4331500000000  0.4830620000000 1.0
C      1  0.4322850000000  0.4791810000000  0.4860740000000 1.0
C      1  0.5200380000000  0.4853360000000  0.5752840000000 1.0
C      1  0.5195890000000  0.5145770000000  0.4256430000000 1.0
C      1  0.4811980000000  0.5148280000000  0.5733870000000 1.0
C      1  0.5128490000000  0.4365360000000  0.5167160000000 1.0
C      1  0.5145730000000  0.5735140000000  0.4804220000000 1.0
C      1  0.4848350000000  0.5721870000000  0.5190980000000 1.0
C      1  0.5728160000000  0.4803110000000  0.5141920000000 1.0
C      1  0.5692240000000  0.5193710000000  0.4859080000000 1.0
C      1  0.4313320000000  0.5184510000000  0.5146840000000 1.0
C      1  0.4808370000000  0.5146200000000  0.4260210000000 1.0
C      1  0.4856690000000  0.5698070000000  0.4798760000000 1.0
C      1  0.4283170000000  0.5178790000000  0.4855600000000 1.0
C      1  0.5199490000000  0.5139920000000  0.5701020000000 1.0
C      1  0.5193930000000  0.4853200000000  0.4253930000000 1.0
C      1  0.4811340000000  0.4855190000000  0.5750370000000 1.0
C      1  0.5139860000000  0.5732090000000  0.5192090000000 1.0
C      1  0.5126680000000  0.4363580000000  0.4831340000000 1.0
C      1  0.4860540000000  0.4330490000000  0.5172170000000 1.0
C      1  0.5737810000000  0.5191430000000  0.5146980000000 1.0
C      1  0.5717950000000  0.4806000000000  0.4848510000000 1.0
C      1  0.4324800000000  0.4791810000000  0.5152880000000 1.0
END
