TITL C-112676-196-74 0.598560935506692 1000000 -1597.58949004209 0 0 240 (C1) n - 1
REM
REM in /home/chem/mssmkc/work/GAP20/Larger-Clusters/Only-C240-new-series
REM
REM
REM
REM
REM
REM ./C.cell (92f43df4b06298221612a7c33f48e63b)
REM
REM compiler GCC version 8.3.0
REM options -cpp -mtune=generic -march=x86-64 -g -O0
REM seed 1911174596 -902897196 -1548298140 1408801806 -1642837470 1090982368 -1041669237 -561683921 893930735 -1415393910 -1437028707 -523810564 387384358 1810410126 -1387191859 959244011 -47237596 -296443091 1657145015 1195316168 -1060030524 -1975011945 2125800891 -6716241 -1642586067 68776884 -853387132 1392802067 -1080554555 -2094802185 -939793721 2127568798 -822115284
REM
CELL 1.54180  100.00000  100.00000  100.00000   90.00000   90.00000   90.00000
LATT -1
SFAC C  
C      1  0.4369780000000  0.5295980000000  0.5405030000000 1.0
C      1  0.5409040000000  0.4369300000000  0.5297480000000 1.0
C      1  0.5295900000000  0.5407380000000  0.4371930000000 1.0
C      1  0.5641140000000  0.4705630000000  0.5416440000000 1.0
C      1  0.5634180000000  0.5298330000000  0.4599780000000 1.0
C      1  0.4371140000000  0.4705100000000  0.4594730000000 1.0
C      1  0.4595060000000  0.5633260000000  0.5291840000000 1.0
C      1  0.4596920000000  0.4367590000000  0.4707780000000 1.0
C      1  0.5409390000000  0.5640430000000  0.4706870000000 1.0
C      1  0.4710010000000  0.4593490000000  0.4370380000000 1.0
C      1  0.4707660000000  0.5408340000000  0.5629990000000 1.0
C      1  0.5296070000000  0.4591700000000  0.5637550000000 1.0
C      1  0.5296450000000  0.4368380000000  0.5409130000000 1.0
C      1  0.4369350000000  0.5407810000000  0.5292960000000 1.0
C      1  0.5407890000000  0.5295560000000  0.4373590000000 1.0
C      1  0.4708020000000  0.5632060000000  0.5402620000000 1.0
C      1  0.5296290000000  0.5636150000000  0.4595790000000 1.0
C      1  0.4709390000000  0.4367710000000  0.4596370000000 1.0
C      1  0.5637130000000  0.4596200000000  0.5300210000000 1.0
C      1  0.4370940000000  0.4593210000000  0.4706750000000 1.0
C      1  0.5634880000000  0.5413820000000  0.4707390000000 1.0
C      1  0.4597890000000  0.4705290000000  0.4369790000000 1.0
C      1  0.5408400000000  0.4703790000000  0.5640600000000 1.0
C      1  0.4595760000000  0.5296340000000  0.5630700000000 1.0
C      1  0.4390740000000  0.5190530000000  0.4601660000000 1.0
C      1  0.4604300000000  0.4389990000000  0.5193000000000 1.0
C      1  0.5195170000000  0.4603050000000  0.4395220000000 1.0
C      1  0.5614070000000  0.4812280000000  0.4610750000000 1.0
C      1  0.5562040000000  0.5149280000000  0.5350940000000 1.0
C      1  0.4391700000000  0.4810600000000  0.5398020000000 1.0
C      1  0.5412040000000  0.5634180000000  0.5194030000000 1.0
C      1  0.5401830000000  0.4390430000000  0.4812980000000 1.0
C      1  0.4602130000000  0.5612350000000  0.4806810000000 1.0
C      1  0.4811080000000  0.5398570000000  0.4391240000000 1.0
C      1  0.4811050000000  0.4603730000000  0.5611940000000 1.0
C      1  0.5192170000000  0.5395200000000  0.5607240000000 1.0
C      1  0.5194720000000  0.4389450000000  0.4606170000000 1.0
C      1  0.4391690000000  0.4602900000000  0.5192040000000 1.0
C      1  0.4604460000000  0.5190720000000  0.4390280000000 1.0
C      1  0.4810550000000  0.5613360000000  0.4601450000000 1.0
C      1  0.5194050000000  0.5616760000000  0.5399350000000 1.0
C      1  0.4811130000000  0.4390130000000  0.5400180000000 1.0
C      1  0.5603490000000  0.5394910000000  0.5185210000000 1.0
C      1  0.4389920000000  0.5398480000000  0.4807550000000 1.0
C      1  0.5617860000000  0.4598570000000  0.4811940000000 1.0
C      1  0.5400880000000  0.4810960000000  0.4399040000000 1.0
C      1  0.4604770000000  0.4811100000000  0.5610380000000 1.0
C      1  0.5394540000000  0.5188220000000  0.5613630000000 1.0
C      1  0.5163930000000  0.5408530000000  0.4378140000000 1.0
C      1  0.4376790000000  0.5163940000000  0.5406550000000 1.0
C      1  0.5411310000000  0.4376900000000  0.5165620000000 1.0
C      1  0.4842020000000  0.4592440000000  0.4377670000000 1.0
C      1  0.4839610000000  0.5409860000000  0.5622560000000 1.0
C      1  0.5164030000000  0.4590990000000  0.5629780000000 1.0
C      1  0.5644860000000  0.4836860000000  0.5421900000000 1.0
C      1  0.5627610000000  0.5166130000000  0.4602430000000 1.0
C      1  0.4377530000000  0.4837160000000  0.4593370000000 1.0
C      1  0.4592690000000  0.5626900000000  0.5159870000000 1.0
C      1  0.4595140000000  0.4374410000000  0.4839810000000 1.0
C      1  0.5412040000000  0.5638700000000  0.4839230000000 1.0
C      1  0.5409700000000  0.5163790000000  0.4382980000000 1.0
C      1  0.5164430000000  0.4375170000000  0.5409820000000 1.0
C      1  0.4375600000000  0.5408920000000  0.5160880000000 1.0
C      1  0.4596340000000  0.4837340000000  0.4376260000000 1.0
C      1  0.5407840000000  0.4835940000000  0.5637320000000 1.0
C      1  0.4594690000000  0.5164270000000  0.5624390000000 1.0
C      1  0.4839970000000  0.5623760000000  0.5402780000000 1.0
C      1  0.5164280000000  0.5628190000000  0.4595100000000 1.0
C      1  0.4841430000000  0.4374600000000  0.4595810000000 1.0
C      1  0.5632770000000  0.4594690000000  0.5167770000000 1.0
C      1  0.4377320000000  0.4592110000000  0.4838810000000 1.0
C      1  0.5626430000000  0.5422820000000  0.4838480000000 1.0
C      1  0.4944510000000  0.5698770000000  0.4713620000000 1.0
C      1  0.4715920000000  0.4945920000000  0.5695760000000 1.0
C      1  0.5709960000000  0.4703220000000  0.4945290000000 1.0
C      1  0.5059790000000  0.4304880000000  0.4717910000000 1.0
C      1  0.5059220000000  0.5694220000000  0.5282380000000 1.0
C      1  0.4945850000000  0.4304490000000  0.5289110000000 1.0
C      1  0.5284260000000  0.5055440000000  0.5703230000000 1.0
C      1  0.5289800000000  0.4944980000000  0.4312360000000 1.0
C      1  0.4716760000000  0.5056250000000  0.4305840000000 1.0
C      1  0.4305090000000  0.5287380000000  0.4942740000000 1.0
C      1  0.4306460000000  0.4713700000000  0.5056860000000 1.0
C      1  0.5642730000000  0.5291420000000  0.5058770000000 1.0
C      1  0.5701730000000  0.4945460000000  0.4721870000000 1.0
C      1  0.4945830000000  0.4714700000000  0.5697620000000 1.0
C      1  0.4712500000000  0.5698630000000  0.4941630000000 1.0
C      1  0.4306040000000  0.5055900000000  0.4713570000000 1.0
C      1  0.5609340000000  0.5053080000000  0.5176390000000 1.0
C      1  0.4306460000000  0.4944960000000  0.5286220000000 1.0
C      1  0.5056280000000  0.5288360000000  0.5695370000000 1.0
C      1  0.4946120000000  0.5287180000000  0.4306560000000 1.0
C      1  0.5060780000000  0.4713990000000  0.4308890000000 1.0
C      1  0.5290170000000  0.4305800000000  0.4947700000000 1.0
C      1  0.4715730000000  0.4304240000000  0.5058660000000 1.0
C      1  0.5294760000000  0.5707800000000  0.5058590000000 1.0
C      1  0.4439460000000  0.4533010000000  0.5076860000000 1.0
C      1  0.5079220000000  0.4437100000000  0.4536650000000 1.0
C      1  0.4535200000000  0.5075040000000  0.4437800000000 1.0
C      1  0.5581060000000  0.5493710000000  0.5078840000000 1.0
C      1  0.5570350000000  0.4529740000000  0.4928430000000 1.0
C      1  0.4437380000000  0.5468650000000  0.4922680000000 1.0
C      1  0.4926490000000  0.5565070000000  0.4533220000000 1.0
C      1  0.4926590000000  0.4437820000000  0.5469690000000 1.0
C      1  0.5078420000000  0.5563720000000  0.5464900000000 1.0
C      1  0.5468960000000  0.4927020000000  0.4447450000000 1.0
C      1  0.5462520000000  0.5071960000000  0.5569230000000 1.0
C      1  0.4535440000000  0.4926490000000  0.5562280000000 1.0
C      1  0.4535020000000  0.4437410000000  0.5077300000000 1.0
C      1  0.4439170000000  0.5074940000000  0.4532880000000 1.0
C      1  0.5079490000000  0.4532920000000  0.4441450000000 1.0
C      1  0.5485300000000  0.5589990000000  0.5079640000000 1.0
C      1  0.4532560000000  0.5564680000000  0.4922230000000 1.0
C      1  0.5471950000000  0.4437250000000  0.4928420000000 1.0
C      1  0.5564410000000  0.4927980000000  0.4543230000000 1.0
C      1  0.4439610000000  0.4926310000000  0.5466960000000 1.0
C      1  0.5542970000000  0.5060820000000  0.5460530000000 1.0
C      1  0.4926400000000  0.5468390000000  0.4438830000000 1.0
C      1  0.5077990000000  0.5466510000000  0.5559080000000 1.0
C      1  0.4926480000000  0.4533630000000  0.5565030000000 1.0
C      1  0.5158980000000  0.4409530000000  0.4750160000000 1.0
C      1  0.4748580000000  0.5155540000000  0.4410410000000 1.0
C      1  0.4411000000000  0.4746850000000  0.5155610000000 1.0
C      1  0.4845500000000  0.5594010000000  0.4745700000000 1.0
C      1  0.4847050000000  0.4409100000000  0.5256080000000 1.0
C      1  0.5167080000000  0.5595450000000  0.5254410000000 1.0
C      1  0.5256350000000  0.4845980000000  0.4416450000000 1.0
C      1  0.5251060000000  0.5151360000000  0.5595150000000 1.0
C      1  0.4749060000000  0.4846570000000  0.5591730000000 1.0
C      1  0.5526870000000  0.5280400000000  0.5150060000000 1.0
C      1  0.5602620000000  0.4742710000000  0.4851320000000 1.0
C      1  0.4409790000000  0.5254610000000  0.4844020000000 1.0
C      1  0.4410160000000  0.5155470000000  0.4745910000000 1.0
C      1  0.5158260000000  0.4746840000000  0.4414750000000 1.0
C      1  0.4748480000000  0.4409000000000  0.5157360000000 1.0
C      1  0.5599150000000  0.4844560000000  0.4756180000000 1.0
C      1  0.4411010000000  0.4845890000000  0.5253820000000 1.0
C      1  0.5513330000000  0.5160750000000  0.5218640000000 1.0
C      1  0.4846920000000  0.5254500000000  0.4410780000000 1.0
C      1  0.5153790000000  0.5251410000000  0.5591620000000 1.0
C      1  0.4847450000000  0.4747660000000  0.5592520000000 1.0
C      1  0.5269580000000  0.5602800000000  0.5159180000000 1.0
C      1  0.4746120000000  0.5593820000000  0.4843500000000 1.0
C      1  0.5257770000000  0.4410080000000  0.4848710000000 1.0
C      1  0.5386570000000  0.4967070000000  0.5641150000000 1.0
C      1  0.5629540000000  0.5410050000000  0.4970510000000 1.0
C      1  0.4971700000000  0.5627400000000  0.5382610000000 1.0
C      1  0.4614520000000  0.5032870000000  0.5629480000000 1.0
C      1  0.4615270000000  0.4968870000000  0.4371240000000 1.0
C      1  0.5390120000000  0.5032470000000  0.4379120000000 1.0
C      1  0.4372280000000  0.4611900000000  0.4970200000000 1.0
C      1  0.4370540000000  0.5389400000000  0.5029420000000 1.0
C      1  0.5640920000000  0.4607050000000  0.5035160000000 1.0
C      1  0.5032940000000  0.4370340000000  0.5390560000000 1.0
C      1  0.5032590000000  0.5632590000000  0.4613130000000 1.0
C      1  0.4972800000000  0.4370130000000  0.4615940000000 1.0
C      1  0.4970830000000  0.5389720000000  0.5627650000000 1.0
C      1  0.5399480000000  0.5648170000000  0.4971970000000 1.0
C      1  0.5644430000000  0.4969770000000  0.5410150000000 1.0
C      1  0.5032760000000  0.4612260000000  0.5632910000000 1.0
C      1  0.4973460000000  0.4612020000000  0.4373590000000 1.0
C      1  0.5032680000000  0.5388880000000  0.4372400000000 1.0
C      1  0.4614400000000  0.4369830000000  0.4971290000000 1.0
C      1  0.5391990000000  0.4371270000000  0.5034410000000 1.0
C      1  0.4611430000000  0.5632460000000  0.5028450000000 1.0
C      1  0.4372250000000  0.5032420000000  0.5387410000000 1.0
C      1  0.5632770000000  0.5034210000000  0.4622150000000 1.0
C      1  0.4372260000000  0.4968650000000  0.4612470000000 1.0
C      1  0.4658670000000  0.5855460000000  0.4747700000000 1.0
C      1  0.4751680000000  0.4661050000000  0.5854860000000 1.0
C      1  0.5856910000000  0.4751840000000  0.4660660000000 1.0
C      1  0.5344450000000  0.4147100000000  0.4755220000000 1.0
C      1  0.5333780000000  0.5870980000000  0.5251800000000 1.0
C      1  0.4660610000000  0.4146820000000  0.5252140000000 1.0
C      1  0.5249680000000  0.5344990000000  0.5852310000000 1.0
C      1  0.5256030000000  0.4660280000000  0.4152830000000 1.0
C      1  0.4753520000000  0.5341220000000  0.4147840000000 1.0
C      1  0.4147230000000  0.5248100000000  0.4657870000000 1.0
C      1  0.4148430000000  0.4752070000000  0.5341760000000 1.0
C      1  0.5743520000000  0.5104770000000  0.5180660000000 1.0
C      1  0.5859910000000  0.4654880000000  0.4746780000000 1.0
C      1  0.4660070000000  0.4753290000000  0.5854090000000 1.0
C      1  0.4751560000000  0.5856510000000  0.4656800000000 1.0
C      1  0.4146990000000  0.5340510000000  0.4749280000000 1.0
C      1  0.5757900000000  0.5240910000000  0.5134830000000 1.0
C      1  0.4148480000000  0.4659770000000  0.5250230000000 1.0
C      1  0.5340850000000  0.5252120000000  0.5856360000000 1.0
C      1  0.4661950000000  0.5248940000000  0.4147200000000 1.0
C      1  0.5347640000000  0.4752520000000  0.4154900000000 1.0
C      1  0.5252520000000  0.4146070000000  0.4663280000000 1.0
C      1  0.4752490000000  0.4146840000000  0.5344090000000 1.0
C      1  0.5240390000000  0.5863660000000  0.5341740000000 1.0
C      1  0.4602140000000  0.5505030000000  0.5599880000000 1.0
C      1  0.5604380000000  0.4598260000000  0.5509310000000 1.0
C      1  0.5505370000000  0.5607860000000  0.4600030000000 1.0
C      1  0.5401890000000  0.4495470000000  0.5606260000000 1.0
C      1  0.5401370000000  0.5504670000000  0.4400680000000 1.0
C      1  0.4604310000000  0.4496510000000  0.4400020000000 1.0
C      1  0.4399860000000  0.5401870000000  0.5501680000000 1.0
C      1  0.4401690000000  0.4599340000000  0.4498070000000 1.0
C      1  0.5603930000000  0.5402480000000  0.4499780000000 1.0
C      1  0.4500520000000  0.4397460000000  0.4601640000000 1.0
C      1  0.4498810000000  0.5603740000000  0.5398100000000 1.0
C      1  0.5505240000000  0.4398730000000  0.5403550000000 1.0
C      1  0.5505140000000  0.4597940000000  0.5608430000000 1.0
C      1  0.4602560000000  0.5603510000000  0.5500500000000 1.0
C      1  0.5603740000000  0.5507820000000  0.4600360000000 1.0
C      1  0.4498880000000  0.5402060000000  0.5600580000000 1.0
C      1  0.5504550000000  0.5401680000000  0.4401530000000 1.0
C      1  0.4501080000000  0.4599410000000  0.4399510000000 1.0
C      1  0.5402150000000  0.4397560000000  0.5506390000000 1.0
C      1  0.4604050000000  0.4397560000000  0.4499020000000 1.0
C      1  0.5401240000000  0.5604800000000  0.4498470000000 1.0
C      1  0.4401430000000  0.4496340000000  0.4601210000000 1.0
C      1  0.5603690000000  0.4497960000000  0.5404390000000 1.0
C      1  0.4399640000000  0.5504830000000  0.5398500000000 1.0
C      1  0.4631740000000  0.4840860000000  0.5752400000000 1.0
C      1  0.5761110000000  0.4621990000000  0.4836480000000 1.0
C      1  0.4839900000000  0.5755280000000  0.4628900000000 1.0
C      1  0.5367940000000  0.5162460000000  0.5756740000000 1.0
C      1  0.5374920000000  0.4840270000000  0.4256640000000 1.0
C      1  0.4632880000000  0.5161140000000  0.4248530000000 1.0
C      1  0.4248110000000  0.5370470000000  0.4837010000000 1.0
C      1  0.4249760000000  0.4630340000000  0.5162520000000 1.0
C      1  0.5738520000000  0.5352080000000  0.5215100000000 1.0
C      1  0.5164970000000  0.4247650000000  0.4634320000000 1.0
C      1  0.5157990000000  0.5757300000000  0.5369170000000 1.0
C      1  0.4840420000000  0.4248100000000  0.5372940000000 1.0
C      1  0.4839850000000  0.4631520000000  0.5754000000000 1.0
C      1  0.4629000000000  0.5754500000000  0.4835660000000 1.0
C      1  0.5756610000000  0.4841680000000  0.4635120000000 1.0
C      1  0.5162870000000  0.5372220000000  0.5749930000000 1.0
C      1  0.4840870000000  0.5370710000000  0.4249400000000 1.0
C      1  0.5167140000000  0.4630880000000  0.4253110000000 1.0
C      1  0.5373840000000  0.4248570000000  0.4842600000000 1.0
C      1  0.4631760000000  0.4247930000000  0.5164040000000 1.0
C      1  0.5372290000000  0.5771790000000  0.5164570000000 1.0
C      1  0.4248920000000  0.5160560000000  0.4629280000000 1.0
C      1  0.5679470000000  0.5069440000000  0.5305960000000 1.0
C      1  0.4249750000000  0.4839990000000  0.5370410000000 1.0
END
