TITL C-112675-8135-175 27.1939609395298 1000000 -1642.28496677701 0 0 240 (C1) n - 1
REM
REM in /home/chem/mssmkc/work/GAP20/Larger-Clusters/Only-C240-new-series
REM
REM
REM
REM
REM
REM ./C.cell (c58642faaf353743302a0f2d8ff18644)
REM
REM compiler GCC version 8.3.0
REM options -cpp -mtune=generic -march=x86-64 -g -O0
REM seed 1914337229 -1141825644 1493745492 1132508834 -1599674980 -1292596439 1069291855 1193590723 771243037 -418821283 303248760 1621725903 -153548513 -654975143 -850939001 1644511263 -1023272730 15517118 203970596 1887701307 -2046272007 -1301620182 884447419 -334578920 1029404425 -902423857 1218317283 -467493422 632223059 -189940833 397204272 -194672861 850461365
REM
CELL 1.54180  100.00000  100.00000  100.00000   90.00000   90.00000   90.00000
LATT -1
SFAC C  
C      1  0.4928660000000  0.4924090000000  0.5728460000000 1.0
C      1  0.4942100000000  0.5713840000000  0.4896080000000 1.0
C      1  0.5714250000000  0.4973010000000  0.4913790000000 1.0
C      1  0.5068480000000  0.5078730000000  0.5713490000000 1.0
C      1  0.4927130000000  0.5067390000000  0.4277180000000 1.0
C      1  0.5077420000000  0.4922010000000  0.4281990000000 1.0
C      1  0.5071060000000  0.4306930000000  0.4932820000000 1.0
C      1  0.4923150000000  0.4311120000000  0.5081500000000 1.0
C      1  0.5088610000000  0.5725040000000  0.5045870000000 1.0
C      1  0.4285080000000  0.5071670000000  0.4909550000000 1.0
C      1  0.5677910000000  0.5125720000000  0.5051660000000 1.0
C      1  0.4300210000000  0.4928120000000  0.5061300000000 1.0
C      1  0.4928850000000  0.4920410000000  0.4278920000000 1.0
C      1  0.4939830000000  0.5725130000000  0.5044320000000 1.0
C      1  0.5706110000000  0.4980140000000  0.5061370000000 1.0
C      1  0.5075710000000  0.5069120000000  0.4279110000000 1.0
C      1  0.4918880000000  0.5071690000000  0.5714880000000 1.0
C      1  0.5075770000000  0.4932020000000  0.5719730000000 1.0
C      1  0.5071540000000  0.4308540000000  0.5081640000000 1.0
C      1  0.4922310000000  0.4310440000000  0.4933840000000 1.0
C      1  0.5089600000000  0.5713990000000  0.4897840000000 1.0
C      1  0.4295510000000  0.5076940000000  0.5056070000000 1.0
C      1  0.5692420000000  0.5121080000000  0.4905660000000 1.0
C      1  0.4291550000000  0.4923090000000  0.4914080000000 1.0
C      1  0.5277990000000  0.5475310000000  0.5074960000000 1.0
C      1  0.5444610000000  0.5071520000000  0.5261500000000 1.0
C      1  0.5060370000000  0.5291370000000  0.5486900000000 1.0
C      1  0.4712290000000  0.4534610000000  0.5076850000000 1.0
C      1  0.5287850000000  0.4517360000000  0.4935360000000 1.0
C      1  0.4722060000000  0.5481590000000  0.4932220000000 1.0
C      1  0.4531530000000  0.4939170000000  0.5276770000000 1.0
C      1  0.5477980000000  0.4923150000000  0.4708990000000 1.0
C      1  0.4515720000000  0.5072680000000  0.4699050000000 1.0
C      1  0.4932450000000  0.4728790000000  0.5484750000000 1.0
C      1  0.5067720000000  0.4732920000000  0.4538630000000 1.0
C      1  0.4929030000000  0.5257060000000  0.4530960000000 1.0
C      1  0.5286460000000  0.5471010000000  0.4935470000000 1.0
C      1  0.5472110000000  0.5062570000000  0.4696960000000 1.0
C      1  0.5064240000000  0.5262930000000  0.4529920000000 1.0
C      1  0.4705480000000  0.4532960000000  0.4938460000000 1.0
C      1  0.5284890000000  0.4519490000000  0.5072660000000 1.0
C      1  0.4726820000000  0.5486680000000  0.5072180000000 1.0
C      1  0.4516680000000  0.4932600000000  0.4698690000000 1.0
C      1  0.5467850000000  0.4936100000000  0.5270780000000 1.0
C      1  0.4538460000000  0.5073160000000  0.5251070000000 1.0
C      1  0.4932100000000  0.4735910000000  0.4536970000000 1.0
C      1  0.5068280000000  0.4738110000000  0.5470550000000 1.0
C      1  0.4923640000000  0.5287040000000  0.5485580000000 1.0
C      1  0.5173530000000  0.4331090000000  0.5171160000000 1.0
C      1  0.4329550000000  0.5159440000000  0.5154250000000 1.0
C      1  0.5150770000000  0.5171650000000  0.4317610000000 1.0
C      1  0.4836360000000  0.5701580000000  0.5123870000000 1.0
C      1  0.5197700000000  0.5674040000000  0.4822880000000 1.0
C      1  0.4819310000000  0.4335200000000  0.4846640000000 1.0
C      1  0.5686970000000  0.4905700000000  0.5168700000000 1.0
C      1  0.4315830000000  0.4845350000000  0.4808670000000 1.0
C      1  0.5659820000000  0.5188830000000  0.4790300000000 1.0
C      1  0.4852350000000  0.4819910000000  0.4319350000000 1.0
C      1  0.5157580000000  0.4835080000000  0.5679590000000 1.0
C      1  0.4827000000000  0.5165610000000  0.5673370000000 1.0
C      1  0.5172980000000  0.4326030000000  0.4842890000000 1.0
C      1  0.4306340000000  0.5146050000000  0.4801900000000 1.0
C      1  0.5156650000000  0.5176710000000  0.5677320000000 1.0
C      1  0.4834580000000  0.5675080000000  0.4819590000000 1.0
C      1  0.5190340000000  0.5699760000000  0.5127580000000 1.0
C      1  0.4822190000000  0.4337590000000  0.5169300000000 1.0
C      1  0.5696370000000  0.4884650000000  0.4816460000000 1.0
C      1  0.4331000000000  0.4854810000000  0.5167520000000 1.0
C      1  0.5629340000000  0.5200450000000  0.5151200000000 1.0
C      1  0.4858860000000  0.4813930000000  0.5700700000000 1.0
C      1  0.5153980000000  0.4822990000000  0.4326010000000 1.0
C      1  0.4848230000000  0.5167110000000  0.4315720000000 1.0
C      1  0.5215560000000  0.4361490000000  0.4707650000000 1.0
C      1  0.4366650000000  0.4635620000000  0.5368850000000 1.0
C      1  0.4628310000000  0.5371780000000  0.4401820000000 1.0
C      1  0.4787090000000  0.5633150000000  0.4689350000000 1.0
C      1  0.5331650000000  0.5606990000000  0.5359280000000 1.0
C      1  0.4775250000000  0.4367030000000  0.5304740000000 1.0
C      1  0.5579080000000  0.5378750000000  0.5399600000000 1.0
C      1  0.4380540000000  0.5365020000000  0.4666480000000 1.0
C      1  0.5623040000000  0.4635630000000  0.4686780000000 1.0
C      1  0.5377040000000  0.4626990000000  0.4414400000000 1.0
C      1  0.4648480000000  0.4649330000000  0.5587550000000 1.0
C      1  0.5289700000000  0.5209580000000  0.5628660000000 1.0
C      1  0.5215710000000  0.4372030000000  0.5304880000000 1.0
C      1  0.4372830000000  0.4639410000000  0.4667010000000 1.0
C      1  0.4694100000000  0.5203830000000  0.5626290000000 1.0
C      1  0.4688100000000  0.5621050000000  0.5361730000000 1.0
C      1  0.5242480000000  0.5627300000000  0.4693410000000 1.0
C      1  0.4778180000000  0.4369400000000  0.4710880000000 1.0
C      1  0.5631590000000  0.5309250000000  0.4713040000000 1.0
C      1  0.4413080000000  0.5383090000000  0.5351980000000 1.0
C      1  0.5618860000000  0.4657080000000  0.5305170000000 1.0
C      1  0.5383850000000  0.4643690000000  0.5587450000000 1.0
C      1  0.4631110000000  0.4621720000000  0.4406350000000 1.0
C      1  0.5365950000000  0.5379400000000  0.4405650000000 1.0
C      1  0.5253930000000  0.5354390000000  0.5610380000000 1.0
C      1  0.5395390000000  0.5616500000000  0.5238750000000 1.0
C      1  0.5549600000000  0.5241890000000  0.5391510000000 1.0
C      1  0.4773410000000  0.4600330000000  0.5598510000000 1.0
C      1  0.5241550000000  0.4608590000000  0.4431500000000 1.0
C      1  0.4763960000000  0.5385180000000  0.4418210000000 1.0
C      1  0.4636680000000  0.4388660000000  0.5260910000000 1.0
C      1  0.5356780000000  0.4381770000000  0.4746960000000 1.0
C      1  0.4647320000000  0.5611340000000  0.4736590000000 1.0
C      1  0.4399010000000  0.4768210000000  0.5390180000000 1.0
C      1  0.5628710000000  0.4753720000000  0.4618130000000 1.0
C      1  0.4375460000000  0.5247440000000  0.4596270000000 1.0
C      1  0.5230350000000  0.5390340000000  0.4418110000000 1.0
C      1  0.5379480000000  0.5594320000000  0.4743090000000 1.0
C      1  0.5621440000000  0.5234290000000  0.4585750000000 1.0
C      1  0.4766410000000  0.4605570000000  0.4426060000000 1.0
C      1  0.5248140000000  0.4621990000000  0.5574300000000 1.0
C      1  0.4728610000000  0.5347250000000  0.5613270000000 1.0
C      1  0.4636880000000  0.4393800000000  0.4749970000000 1.0
C      1  0.5357040000000  0.4392530000000  0.5264910000000 1.0
C      1  0.4628100000000  0.5632320000000  0.5239590000000 1.0
C      1  0.4377420000000  0.4756600000000  0.4594950000000 1.0
C      1  0.5620460000000  0.4777910000000  0.5369360000000 1.0
C      1  0.4428250000000  0.5247120000000  0.5373270000000 1.0
C      1  0.5278410000000  0.5466850000000  0.5549640000000 1.0
C      1  0.5524140000000  0.5563810000000  0.5236920000000 1.0
C      1  0.5476920000000  0.5157170000000  0.5475700000000 1.0
C      1  0.4819550000000  0.4508260000000  0.5509300000000 1.0
C      1  0.5185010000000  0.4518990000000  0.4516410000000 1.0
C      1  0.4821520000000  0.5473070000000  0.4503680000000 1.0
C      1  0.4529770000000  0.4448060000000  0.5307750000000 1.0
C      1  0.5466310000000  0.4445650000000  0.4717740000000 1.0
C      1  0.4536430000000  0.5549450000000  0.4708810000000 1.0
C      1  0.4464940000000  0.4791030000000  0.5507250000000 1.0
C      1  0.5586820000000  0.4752020000000  0.4486540000000 1.0
C      1  0.4417020000000  0.5245160000000  0.4465840000000 1.0
C      1  0.5176630000000  0.5477420000000  0.4506220000000 1.0
C      1  0.5483900000000  0.5518390000000  0.4723800000000 1.0
C      1  0.5584930000000  0.5261170000000  0.4462020000000 1.0
C      1  0.4820340000000  0.4520540000000  0.4516780000000 1.0
C      1  0.5186010000000  0.4530850000000  0.5494060000000 1.0
C      1  0.4704800000000  0.5456470000000  0.5547030000000 1.0
C      1  0.4528630000000  0.4457430000000  0.4715370000000 1.0
C      1  0.5466710000000  0.4459270000000  0.5287780000000 1.0
C      1  0.4496260000000  0.5591830000000  0.5232050000000 1.0
C      1  0.4422730000000  0.4756570000000  0.4466180000000 1.0
C      1  0.5580070000000  0.4781290000000  0.5500760000000 1.0
C      1  0.4509310000000  0.5187060000000  0.5464900000000 1.0
C      1  0.4681010000000  0.5256610000000  0.5164340000000 1.0
C      1  0.5243470000000  0.5170430000000  0.4668140000000 1.0
C      1  0.5168320000000  0.4616210000000  0.5275800000000 1.0
C      1  0.5388020000000  0.4692770000000  0.5210310000000 1.0
C      1  0.4596650000000  0.4696110000000  0.4784570000000 1.0
C      1  0.5390150000000  0.5299510000000  0.4784480000000 1.0
C      1  0.4745330000000  0.4824830000000  0.4669150000000 1.0
C      1  0.5245770000000  0.4830590000000  0.5328600000000 1.0
C      1  0.4726970000000  0.5174920000000  0.5378200000000 1.0
C      1  0.4792580000000  0.5396390000000  0.5311180000000 1.0
C      1  0.5175990000000  0.5385820000000  0.4723260000000 1.0
C      1  0.4821150000000  0.4616080000000  0.4731250000000 1.0
C      1  0.4602160000000  0.5312010000000  0.4785490000000 1.0
C      1  0.5256630000000  0.5173240000000  0.5384450000000 1.0
C      1  0.5172890000000  0.4607040000000  0.4732130000000 1.0
C      1  0.5396690000000  0.4683280000000  0.4791050000000 1.0
C      1  0.4678710000000  0.4764470000000  0.5176670000000 1.0
C      1  0.5292870000000  0.5236130000000  0.5157690000000 1.0
C      1  0.4700770000000  0.4796840000000  0.5403400000000 1.0
C      1  0.5251530000000  0.4816440000000  0.4676740000000 1.0
C      1  0.4744660000000  0.5176520000000  0.4670370000000 1.0
C      1  0.4825710000000  0.5386010000000  0.4722940000000 1.0
C      1  0.5204830000000  0.5393000000000  0.5312070000000 1.0
C      1  0.4808840000000  0.4616610000000  0.5300870000000 1.0
C      1  0.5485100000000  0.4716800000000  0.5560770000000 1.0
C      1  0.4731200000000  0.5501570000000  0.5415280000000 1.0
C      1  0.5509990000000  0.5382320000000  0.4742330000000 1.0
C      1  0.4636230000000  0.5158580000000  0.5500850000000 1.0
C      1  0.5474840000000  0.5317540000000  0.4419390000000 1.0
C      1  0.4526540000000  0.4692320000000  0.4421710000000 1.0
C      1  0.5163860000000  0.4492520000000  0.5366660000000 1.0
C      1  0.4832700000000  0.4488260000000  0.4646910000000 1.0
C      1  0.5175360000000  0.5511510000000  0.4635760000000 1.0
C      1  0.4488730000000  0.4592550000000  0.4723190000000 1.0
C      1  0.5501920000000  0.4595440000000  0.5264250000000 1.0
C      1  0.4438060000000  0.5489400000000  0.5286700000000 1.0
C      1  0.5483940000000  0.4693120000000  0.4434080000000 1.0
C      1  0.4837180000000  0.5509960000000  0.4631550000000 1.0
C      1  0.5576700000000  0.5476660000000  0.5317020000000 1.0
C      1  0.4522560000000  0.5303970000000  0.4418910000000 1.0
C      1  0.5344080000000  0.5152740000000  0.5506180000000 1.0
C      1  0.4599720000000  0.4752130000000  0.5510570000000 1.0
C      1  0.5164670000000  0.4481580000000  0.4644210000000 1.0
C      1  0.4823550000000  0.4484780000000  0.5375240000000 1.0
C      1  0.5266370000000  0.5499750000000  0.5411420000000 1.0
C      1  0.4453660000000  0.4544150000000  0.5344110000000 1.0
C      1  0.5506170000000  0.4580830000000  0.4735400000000 1.0
C      1  0.4494800000000  0.5414930000000  0.4722910000000 1.0
C      1  0.5157150000000  0.5276790000000  0.5382620000000 1.0
C      1  0.5254710000000  0.5369490000000  0.5173220000000 1.0
C      1  0.5320370000000  0.5147870000000  0.5258850000000 1.0
C      1  0.4827770000000  0.4730350000000  0.5386350000000 1.0
C      1  0.5152580000000  0.4728090000000  0.4657030000000 1.0
C      1  0.4844430000000  0.5263770000000  0.4649010000000 1.0
C      1  0.4736680000000  0.4639610000000  0.5174680000000 1.0
C      1  0.5275880000000  0.4616170000000  0.4834550000000 1.0
C      1  0.4725290000000  0.5378730000000  0.4829530000000 1.0
C      1  0.4644360000000  0.4847120000000  0.5278960000000 1.0
C      1  0.5377110000000  0.4819460000000  0.4729800000000 1.0
C      1  0.4618940000000  0.5175250000000  0.4722370000000 1.0
C      1  0.5150560000000  0.5265610000000  0.4647200000000 1.0
C      1  0.5272530000000  0.5371330000000  0.4830940000000 1.0
C      1  0.5368040000000  0.5165250000000  0.4720940000000 1.0
C      1  0.4843820000000  0.4734760000000  0.4652950000000 1.0
C      1  0.5148830000000  0.4738340000000  0.5349920000000 1.0
C      1  0.4830690000000  0.5274320000000  0.5378690000000 1.0
C      1  0.4716350000000  0.4629470000000  0.4833210000000 1.0
C      1  0.5268410000000  0.4621350000000  0.5170560000000 1.0
C      1  0.4738090000000  0.5381310000000  0.5172120000000 1.0
C      1  0.4619250000000  0.4829830000000  0.4720820000000 1.0
C      1  0.5367940000000  0.4830100000000  0.5266520000000 1.0
C      1  0.4657270000000  0.5157390000000  0.5253170000000 1.0
C      1  0.5607180000000  0.5116880000000  0.4671370000000 1.0
C      1  0.5153600000000  0.4732150000000  0.5592850000000 1.0
C      1  0.4722360000000  0.5626290000000  0.5127470000000 1.0
C      1  0.4382000000000  0.4865550000000  0.4689120000000 1.0
C      1  0.5609570000000  0.4892310000000  0.5279730000000 1.0
C      1  0.4414080000000  0.5155870000000  0.5259670000000 1.0
C      1  0.4869510000000  0.5295890000000  0.5622480000000 1.0
C      1  0.5142390000000  0.5274840000000  0.4404060000000 1.0
C      1  0.4856820000000  0.4719670000000  0.4409740000000 1.0
C      1  0.5301560000000  0.4382840000000  0.5125710000000 1.0
C      1  0.4692920000000  0.4393660000000  0.4889490000000 1.0
C      1  0.5314870000000  0.5605210000000  0.4877620000000 1.0
C      1  0.5558520000000  0.5170920000000  0.5263490000000 1.0
C      1  0.5148600000000  0.4720910000000  0.4414670000000 1.0
C      1  0.4711160000000  0.5617430000000  0.4873070000000 1.0
C      1  0.4402780000000  0.4865080000000  0.5283120000000 1.0
C      1  0.5619500000000  0.4869900000000  0.4704730000000 1.0
C      1  0.4378410000000  0.5134070000000  0.4686200000000 1.0
C      1  0.4852000000000  0.5268880000000  0.4404350000000 1.0
C      1  0.5113760000000  0.5304080000000  0.5622560000000 1.0
C      1  0.4870670000000  0.4706840000000  0.5620160000000 1.0
C      1  0.5301270000000  0.4378640000000  0.4886540000000 1.0
C      1  0.4695290000000  0.4398390000000  0.5127570000000 1.0
C      1  0.5298420000000  0.5615210000000  0.5129620000000 1.0
END
