TITL C-112675-8135-92 4.20645718064072 1000000 -1660.52708259879 0 0 240 (C3) n - 1
REM
REM in /home/chem/mssmkc/work/GAP20/Larger-Clusters/Only-C240-new-series
REM
REM
REM
REM
REM
REM ./C.cell (92f43df4b06298221612a7c33f48e63b)
REM
REM compiler GCC version 8.3.0
REM options -cpp -mtune=generic -march=x86-64 -g -O0
REM seed -524165922 -1535629692 -1618711589 -934214848 -675125587 -500375016 -1095860424 -1485220308 -489262664 737624746 283187453 1683455089 588507031 -1302385488 -865078994 -227807534 -379912466 -812609559 178561644 2015761073 -1167950124 -1183006112 -1372859907 120004120 315448899 -1650376520 2014577703 1767035635 -530038033 1805263619 -1741301379 -1192094613 2146027649
REM
CELL 1.54180  100.00000  100.00000  100.00000   90.00000   90.00000   90.00000
LATT -1
SFAC C  
C      1  0.4398020000000  0.4937650000000  0.4621830000000 1.0
C      1  0.4645830000000  0.4363140000000  0.4931100000000 1.0
C      1  0.4926570000000  0.4637430000000  0.4399730000000 1.0
C      1  0.5602030000000  0.5071420000000  0.4639960000000 1.0
C      1  0.5636600000000  0.4929550000000  0.5354340000000 1.0
C      1  0.4359330000000  0.5067220000000  0.5375930000000 1.0
C      1  0.5378640000000  0.5601560000000  0.4936400000000 1.0
C      1  0.5359520000000  0.4398250000000  0.5076230000000 1.0
C      1  0.4623930000000  0.5641100000000  0.5062130000000 1.0
C      1  0.5072080000000  0.5350900000000  0.4361680000000 1.0
C      1  0.5060580000000  0.4624420000000  0.5603790000000 1.0
C      1  0.4934890000000  0.5379360000000  0.5638860000000 1.0
C      1  0.4931470000000  0.4393760000000  0.4631800000000 1.0
C      1  0.4413220000000  0.4673830000000  0.4931980000000 1.0
C      1  0.4626960000000  0.4927460000000  0.4392340000000 1.0
C      1  0.5069760000000  0.5585090000000  0.4671170000000 1.0
C      1  0.4916420000000  0.5600290000000  0.5316800000000 1.0
C      1  0.5069540000000  0.4393790000000  0.5375950000000 1.0
C      1  0.5608110000000  0.5372500000000  0.4928490000000 1.0
C      1  0.4401370000000  0.5320270000000  0.5082200000000 1.0
C      1  0.5604370000000  0.4629040000000  0.5070150000000 1.0
C      1  0.5371140000000  0.5065330000000  0.4395200000000 1.0
C      1  0.4680330000000  0.5086730000000  0.5598320000000 1.0
C      1  0.5325990000000  0.4933140000000  0.5587020000000 1.0
C      1  0.5323430000000  0.4433500000000  0.4943380000000 1.0
C      1  0.4943960000000  0.5316070000000  0.4411740000000 1.0
C      1  0.4427350000000  0.4946570000000  0.5353720000000 1.0
C      1  0.4646710000000  0.5572460000000  0.4941930000000 1.0
C      1  0.4680950000000  0.4413640000000  0.5058970000000 1.0
C      1  0.5341480000000  0.5564200000000  0.5065030000000 1.0
C      1  0.5059260000000  0.4673660000000  0.4435440000000 1.0
C      1  0.5055400000000  0.5356200000000  0.5570920000000 1.0
C      1  0.4932150000000  0.4661420000000  0.5565620000000 1.0
C      1  0.5586750000000  0.5057510000000  0.5318610000000 1.0
C      1  0.5566110000000  0.4938930000000  0.4676700000000 1.0
C      1  0.4436040000000  0.5066260000000  0.4658360000000 1.0
C      1  0.4429920000000  0.5311760000000  0.4940800000000 1.0
C      1  0.5330540000000  0.4936030000000  0.4434330000000 1.0
C      1  0.4936640000000  0.4427720000000  0.5338410000000 1.0
C      1  0.5565870000000  0.4668990000000  0.4940460000000 1.0
C      1  0.4459370000000  0.4683460000000  0.5063950000000 1.0
C      1  0.5574020000000  0.5335780000000  0.5061580000000 1.0
C      1  0.4664370000000  0.5060520000000  0.4425770000000 1.0
C      1  0.5317020000000  0.5064940000000  0.5540240000000 1.0
C      1  0.4688100000000  0.4945140000000  0.5570440000000 1.0
C      1  0.5057860000000  0.5571650000000  0.5309120000000 1.0
C      1  0.4937740000000  0.5539020000000  0.4680390000000 1.0
C      1  0.5060980000000  0.4432420000000  0.4672170000000 1.0
C      1  0.5157910000000  0.5549730000000  0.5412220000000 1.0
C      1  0.5438800000000  0.5149710000000  0.5523130000000 1.0
C      1  0.5537160000000  0.5427540000000  0.5173780000000 1.0
C      1  0.4824010000000  0.4465080000000  0.5429440000000 1.0
C      1  0.4852840000000  0.5521760000000  0.4558720000000 1.0
C      1  0.5168080000000  0.4474880000000  0.4578350000000 1.0
C      1  0.4585090000000  0.4845010000000  0.5548540000000 1.0
C      1  0.4573200000000  0.5173370000000  0.4462120000000 1.0
C      1  0.5424130000000  0.4829130000000  0.4477790000000 1.0
C      1  0.4476030000000  0.4562110000000  0.5149420000000 1.0
C      1  0.4452340000000  0.5414250000000  0.4840250000000 1.0
C      1  0.5522910000000  0.4574860000000  0.4833820000000 1.0
C      1  0.5543490000000  0.5158220000000  0.5417190000000 1.0
C      1  0.5143130000000  0.5471190000000  0.5537350000000 1.0
C      1  0.5433320000000  0.5528860000000  0.5175010000000 1.0
C      1  0.4460340000000  0.4859420000000  0.5469320000000 1.0
C      1  0.5526670000000  0.4830230000000  0.4581040000000 1.0
C      1  0.4471920000000  0.5175610000000  0.4565980000000 1.0
C      1  0.4822320000000  0.4569440000000  0.5530220000000 1.0
C      1  0.5167470000000  0.4577640000000  0.4475320000000 1.0
C      1  0.4843760000000  0.5415360000000  0.4454550000000 1.0
C      1  0.4581900000000  0.4457440000000  0.5158980000000 1.0
C      1  0.5419620000000  0.4472360000000  0.4834950000000 1.0
C      1  0.4531520000000  0.5539060000000  0.4854400000000 1.0
C      1  0.4758020000000  0.5512270000000  0.5649770000000 1.0
C      1  0.5634260000000  0.4769250000000  0.5514310000000 1.0
C      1  0.5520870000000  0.5626650000000  0.4744240000000 1.0
C      1  0.5252580000000  0.4482270000000  0.5630540000000 1.0
C      1  0.5233190000000  0.5510050000000  0.4363200000000 1.0
C      1  0.4749770000000  0.4473690000000  0.4370300000000 1.0
C      1  0.4347840000000  0.5244770000000  0.5507890000000 1.0
C      1  0.4371900000000  0.4744940000000  0.4480540000000 1.0
C      1  0.5632300000000  0.5247370000000  0.4475460000000 1.0
C      1  0.4486630000000  0.4364700000000  0.4770020000000 1.0
C      1  0.4491120000000  0.5653540000000  0.5238980000000 1.0
C      1  0.5523160000000  0.4368830000000  0.5253130000000 1.0
C      1  0.5521280000000  0.4763730000000  0.5599310000000 1.0
C      1  0.4746590000000  0.5593920000000  0.5536050000000 1.0
C      1  0.5627310000000  0.5528640000000  0.4742710000000 1.0
C      1  0.4461160000000  0.5256590000000  0.5590020000000 1.0
C      1  0.5531950000000  0.5245300000000  0.4370080000000 1.0
C      1  0.4469880000000  0.4742390000000  0.4374080000000 1.0
C      1  0.5254560000000  0.4375340000000  0.5533070000000 1.0
C      1  0.4751330000000  0.4368780000000  0.4471160000000 1.0
C      1  0.5239180000000  0.5595570000000  0.4475770000000 1.0
C      1  0.4401690000000  0.4477680000000  0.4763510000000 1.0
C      1  0.5628570000000  0.4469150000000  0.5251050000000 1.0
C      1  0.4408900000000  0.5540300000000  0.5250980000000 1.0
C      1  0.5396180000000  0.4412360000000  0.4707030000000 1.0
C      1  0.4709610000000  0.5401150000000  0.4409170000000 1.0
C      1  0.4367280000000  0.4759850000000  0.5468340000000 1.0
C      1  0.4533000000000  0.5631600000000  0.4754360000000 1.0
C      1  0.4595920000000  0.4412640000000  0.5293340000000 1.0
C      1  0.5401650000000  0.5593620000000  0.5297980000000 1.0
C      1  0.5295690000000  0.4600740000000  0.4415810000000 1.0
C      1  0.5242720000000  0.5470160000000  0.5630390000000 1.0
C      1  0.4699040000000  0.4601470000000  0.5594220000000 1.0
C      1  0.5588960000000  0.5292280000000  0.5402510000000 1.0
C      1  0.5586020000000  0.4702120000000  0.4605090000000 1.0
C      1  0.4407800000000  0.5299070000000  0.4597070000000 1.0
C      1  0.4404730000000  0.5396820000000  0.4706880000000 1.0
C      1  0.5399460000000  0.4702420000000  0.4416690000000 1.0
C      1  0.4695540000000  0.4407480000000  0.5401120000000 1.0
C      1  0.5584630000000  0.4598870000000  0.4707290000000 1.0
C      1  0.4383770000000  0.4569130000000  0.5249510000000 1.0
C      1  0.5594650000000  0.5399550000000  0.5302370000000 1.0
C      1  0.4601830000000  0.5301530000000  0.4404010000000 1.0
C      1  0.5432320000000  0.5250270000000  0.5614900000000 1.0
C      1  0.4601860000000  0.4711790000000  0.5596780000000 1.0
C      1  0.5291370000000  0.5597220000000  0.5395180000000 1.0
C      1  0.4752750000000  0.5614080000000  0.4564780000000 1.0
C      1  0.5294480000000  0.4413250000000  0.4603290000000 1.0
C      1  0.4488800000000  0.4421450000000  0.5390720000000 1.0
C      1  0.5398010000000  0.4495200000000  0.4400660000000 1.0
C      1  0.4404200000000  0.5409810000000  0.4499510000000 1.0
C      1  0.5498680000000  0.5597760000000  0.5409170000000 1.0
C      1  0.5501620000000  0.4396180000000  0.4604760000000 1.0
C      1  0.4512510000000  0.5602230000000  0.4623060000000 1.0
C      1  0.4612220000000  0.5508330000000  0.4416960000000 1.0
C      1  0.4587810000000  0.4504490000000  0.5598320000000 1.0
C      1  0.5374170000000  0.5490470000000  0.5601550000000 1.0
C      1  0.5601650000000  0.4599260000000  0.4500140000000 1.0
C      1  0.5580690000000  0.5390220000000  0.5509150000000 1.0
C      1  0.4395990000000  0.4628500000000  0.5489460000000 1.0
C      1  0.4398320000000  0.4530500000000  0.5379430000000 1.0
C      1  0.4502610000000  0.5411800000000  0.4402940000000 1.0
C      1  0.5397410000000  0.4397240000000  0.4499040000000 1.0
C      1  0.5595210000000  0.5499340000000  0.5412130000000 1.0
C      1  0.4408600000000  0.5505380000000  0.4609900000000 1.0
C      1  0.5600080000000  0.4494050000000  0.4604860000000 1.0
C      1  0.5503750000000  0.4599380000000  0.4401700000000 1.0
C      1  0.4492800000000  0.4615350000000  0.5593410000000 1.0
C      1  0.5471610000000  0.5379930000000  0.5599720000000 1.0
C      1  0.4623010000000  0.5599370000000  0.4525600000000 1.0
C      1  0.5387830000000  0.5593880000000  0.5504220000000 1.0
C      1  0.4585290000000  0.4407460000000  0.5500380000000 1.0
C      1  0.5205190000000  0.5568010000000  0.5099900000000 1.0
C      1  0.5119110000000  0.5232630000000  0.5550820000000 1.0
C      1  0.5588080000000  0.5109720000000  0.5186890000000 1.0
C      1  0.4812420000000  0.4412540000000  0.5111820000000 1.0
C      1  0.4770150000000  0.5551420000000  0.4878300000000 1.0
C      1  0.5191560000000  0.4423150000000  0.4893780000000 1.0
C      1  0.4897300000000  0.4797750000000  0.5568560000000 1.0
C      1  0.4891070000000  0.5184610000000  0.4411060000000 1.0
C      1  0.5108950000000  0.4805460000000  0.4424650000000 1.0
C      1  0.4448030000000  0.4882230000000  0.5230570000000 1.0
C      1  0.4432450000000  0.5101810000000  0.4794480000000 1.0
C      1  0.5576250000000  0.4889910000000  0.4808800000000 1.0
C      1  0.5582910000000  0.5201350000000  0.5105120000000 1.0
C      1  0.5201320000000  0.5142060000000  0.5542390000000 1.0
C      1  0.5109520000000  0.5571920000000  0.5176800000000 1.0
C      1  0.4456870000000  0.4799550000000  0.5140470000000 1.0
C      1  0.5576970000000  0.4802510000000  0.4895080000000 1.0
C      1  0.4428960000000  0.5179200000000  0.4889780000000 1.0
C      1  0.4820410000000  0.4893450000000  0.5571620000000 1.0
C      1  0.5196790000000  0.4891290000000  0.4423490000000 1.0
C      1  0.4799030000000  0.5103330000000  0.4416640000000 1.0
C      1  0.4893740000000  0.4418150000000  0.5203820000000 1.0
C      1  0.5105700000000  0.4422000000000  0.4805970000000 1.0
C      1  0.4860660000000  0.5542130000000  0.4796100000000 1.0
C      1  0.4598350000000  0.4697590000000  0.4352220000000 1.0
C      1  0.4380370000000  0.4613570000000  0.4724150000000 1.0
C      1  0.4703050000000  0.4348530000000  0.4598830000000 1.0
C      1  0.5404400000000  0.5293510000000  0.4348970000000 1.0
C      1  0.5385190000000  0.4725170000000  0.5620860000000 1.0
C      1  0.4580630000000  0.5315080000000  0.5633160000000 1.0
C      1  0.5649350000000  0.5399930000000  0.4698670000000 1.0
C      1  0.5649490000000  0.4596940000000  0.5298710000000 1.0
C      1  0.4365440000000  0.5421140000000  0.5309880000000 1.0
C      1  0.5277890000000  0.5617570000000  0.4611750000000 1.0
C      1  0.5299210000000  0.4352630000000  0.5404690000000 1.0
C      1  0.4688280000000  0.5636780000000  0.5416390000000 1.0
C      1  0.4698970000000  0.4600000000000  0.4352430000000 1.0
C      1  0.4609530000000  0.4347010000000  0.4702570000000 1.0
C      1  0.4361490000000  0.4704350000000  0.4616260000000 1.0
C      1  0.5300690000000  0.5387050000000  0.4346460000000 1.0
C      1  0.4702610000000  0.5377250000000  0.5655400000000 1.0
C      1  0.5293870000000  0.4617830000000  0.5640280000000 1.0
C      1  0.5385350000000  0.5636880000000  0.4702950000000 1.0
C      1  0.4626190000000  0.5658750000000  0.5294320000000 1.0
C      1  0.5396770000000  0.4351860000000  0.5304050000000 1.0
C      1  0.5649570000000  0.5298810000000  0.4601590000000 1.0
C      1  0.4342880000000  0.5299480000000  0.5372550000000 1.0
C      1  0.5651570000000  0.4701120000000  0.5391740000000 1.0
C      1  0.5608310000000  0.5103790000000  0.4498590000000 1.0
C      1  0.4495220000000  0.5690460000000  0.5102720000000 1.0
C      1  0.5106220000000  0.4488880000000  0.5615120000000 1.0
C      1  0.4387330000000  0.4891320000000  0.4486470000000 1.0
C      1  0.4310220000000  0.5108680000000  0.5504460000000 1.0
C      1  0.5675220000000  0.4903070000000  0.5492970000000 1.0
C      1  0.5500730000000  0.4392090000000  0.5109320000000 1.0
C      1  0.5514220000000  0.5611970000000  0.4890670000000 1.0
C      1  0.4507310000000  0.4324420000000  0.4904140000000 1.0
C      1  0.4894090000000  0.5508330000000  0.5687360000000 1.0
C      1  0.4893470000000  0.4496200000000  0.4394140000000 1.0
C      1  0.5099260000000  0.5489200000000  0.4322380000000 1.0
C      1  0.5138520000000  0.5637650000000  0.4555880000000 1.0
C      1  0.5603910000000  0.4489160000000  0.5107150000000 1.0
C      1  0.4568010000000  0.5172770000000  0.5616550000000 1.0
C      1  0.4895150000000  0.4393510000000  0.4491740000000 1.0
C      1  0.5107680000000  0.4387660000000  0.5516320000000 1.0
C      1  0.4830510000000  0.5619510000000  0.5429050000000 1.0
C      1  0.4382740000000  0.5433030000000  0.5167580000000 1.0
C      1  0.5614940000000  0.5512650000000  0.4889670000000 1.0
C      1  0.4360050000000  0.4558480000000  0.4863790000000 1.0
C      1  0.5441000000000  0.4864620000000  0.5640490000000 1.0
C      1  0.4486620000000  0.4889330000000  0.4385740000000 1.0
C      1  0.5511210000000  0.5101620000000  0.4395440000000 1.0
C      1  0.5187650000000  0.5592450000000  0.4743090000000 1.0
C      1  0.4799430000000  0.5158860000000  0.5618830000000 1.0
C      1  0.5636650000000  0.4698510000000  0.5188480000000 1.0
C      1  0.4812800000000  0.4361860000000  0.4700860000000 1.0
C      1  0.4844360000000  0.5620590000000  0.5197620000000 1.0
C      1  0.5190550000000  0.4371330000000  0.5303930000000 1.0
C      1  0.5254000000000  0.4815310000000  0.5594640000000 1.0
C      1  0.5302270000000  0.5183860000000  0.4362360000000 1.0
C      1  0.4699060000000  0.4806310000000  0.4370850000000 1.0
C      1  0.4380470000000  0.5201540000000  0.5154850000000 1.0
C      1  0.4406190000000  0.4745220000000  0.4813740000000 1.0
C      1  0.5630160000000  0.5299780000000  0.4807820000000 1.0
C      1  0.5628970000000  0.5194130000000  0.4707640000000 1.0
C      1  0.5177480000000  0.4702700000000  0.5619700000000 1.0
C      1  0.4712050000000  0.5645030000000  0.5179040000000 1.0
C      1  0.4381690000000  0.4821160000000  0.4700620000000 1.0
C      1  0.5643170000000  0.4803530000000  0.5286630000000 1.0
C      1  0.4355980000000  0.5183720000000  0.5287250000000 1.0
C      1  0.4817930000000  0.5291290000000  0.5642680000000 1.0
C      1  0.5197750000000  0.5282510000000  0.4355400000000 1.0
C      1  0.4804200000000  0.4705600000000  0.4372490000000 1.0
C      1  0.5291240000000  0.4371950000000  0.5198750000000 1.0
C      1  0.4714140000000  0.4355910000000  0.4805440000000 1.0
C      1  0.5300420000000  0.5617310000000  0.4819450000000 1.0
END
