TITL C-112676-196-110 0.0368360939138863 1000000 -1806.55788247069 0 0 240 (Td) n - 1
REM
REM in /home/chem/mssmkc/work/GAP20/Larger-Clusters/Only-C240-new-series
REM
REM
REM
REM
REM
REM ./C.cell (db83009d4c1eceb3c2f0bef44cf3317a)
REM
REM compiler GCC version 8.3.0
REM options -cpp -mtune=generic -march=x86-64 -g -O0
REM seed 111941891 1294267041 -940681860 1050895426 -2112333305 -1326858212 -841319435 1530269528 1828764943 1607805380 810614120 920523166 -198057180 -698795602 1403606631 -1951321198 -1269865428 214252713 481596275 -1281623467 641428800 -760355944 -1530999944 -620977730 -868055473 -1782473918 -707190659 102937217 931578998 -1698180088 -1144504711 1380300985 1988909133
REM
CELL 1.54180  100.00000  100.00000  100.00000   90.00000   90.00000   90.00000
LATT -1
SFAC C  
C      1  0.5354480000000  0.4947000000000  0.5150710000000 1.0
C      1  0.5150750000000  0.5354470000000  0.4947040000000 1.0
C      1  0.4947060000000  0.5150720000000  0.5354490000000 1.0
C      1  0.4645500000000  0.4947100000000  0.4849300000000 1.0
C      1  0.5354510000000  0.5052890000000  0.4849310000000 1.0
C      1  0.4645510000000  0.5053010000000  0.5150690000000 1.0
C      1  0.4849360000000  0.5354520000000  0.5052940000000 1.0
C      1  0.5150640000000  0.4645480000000  0.5052970000000 1.0
C      1  0.4849250000000  0.4645530000000  0.4947060000000 1.0
C      1  0.5052980000000  0.5150680000000  0.4645500000000 1.0
C      1  0.4947030000000  0.4849300000000  0.4645510000000 1.0
C      1  0.5052920000000  0.4849310000000  0.5354500000000 1.0
C      1  0.5150680000000  0.4947040000000  0.5354500000000 1.0
C      1  0.4947100000000  0.5354510000000  0.5150680000000 1.0
C      1  0.5354520000000  0.5150640000000  0.4947050000000 1.0
C      1  0.4849300000000  0.4947060000000  0.4645500000000 1.0
C      1  0.4849300000000  0.5052990000000  0.5354490000000 1.0
C      1  0.5150710000000  0.5052920000000  0.4645510000000 1.0
C      1  0.5053010000000  0.5354480000000  0.4849290000000 1.0
C      1  0.5052900000000  0.4645500000000  0.5150710000000 1.0
C      1  0.4947000000000  0.4645510000000  0.4849310000000 1.0
C      1  0.4645530000000  0.5150750000000  0.5052940000000 1.0
C      1  0.4645480000000  0.4849360000000  0.4947040000000 1.0
C      1  0.5354470000000  0.4849250000000  0.5052970000000 1.0
C      1  0.5151370000000  0.5052480000000  0.5249410000000 1.0
C      1  0.5249430000000  0.5151330000000  0.5052490000000 1.0
C      1  0.5052520000000  0.5249400000000  0.5151360000000 1.0
C      1  0.4848640000000  0.5052510000000  0.4750590000000 1.0
C      1  0.5151370000000  0.4947480000000  0.4750600000000 1.0
C      1  0.4848620000000  0.4947540000000  0.5249400000000 1.0
C      1  0.4750620000000  0.5151410000000  0.4947500000000 1.0
C      1  0.5249380000000  0.4848590000000  0.4947520000000 1.0
C      1  0.4750570000000  0.4848670000000  0.5052490000000 1.0
C      1  0.4947550000000  0.5249410000000  0.4848620000000 1.0
C      1  0.5052460000000  0.4750580000000  0.4848640000000 1.0
C      1  0.4947470000000  0.4750610000000  0.5151380000000 1.0
C      1  0.5249410000000  0.5052460000000  0.5151380000000 1.0
C      1  0.5052510000000  0.5151370000000  0.5249400000000 1.0
C      1  0.5151410000000  0.5249380000000  0.5052490000000 1.0
C      1  0.4750610000000  0.5052520000000  0.4848620000000 1.0
C      1  0.4750580000000  0.4947550000000  0.5151370000000 1.0
C      1  0.5249400000000  0.4947470000000  0.4848640000000 1.0
C      1  0.4947540000000  0.5151370000000  0.4750590000000 1.0
C      1  0.4947480000000  0.4848650000000  0.5249410000000 1.0
C      1  0.5052470000000  0.4848610000000  0.4750600000000 1.0
C      1  0.4848670000000  0.5249430000000  0.4947500000000 1.0
C      1  0.4848590000000  0.4750620000000  0.5052500000000 1.0
C      1  0.5151330000000  0.4750570000000  0.4947520000000 1.0
C      1  0.4945190000000  0.5458920000000  0.5245500000000 1.0
C      1  0.5245500000000  0.4945110000000  0.5458910000000 1.0
C      1  0.5458940000000  0.5245450000000  0.4945130000000 1.0
C      1  0.5054950000000  0.5458890000000  0.4754470000000 1.0
C      1  0.4945060000000  0.4541100000000  0.4754500000000 1.0
C      1  0.5054800000000  0.4541100000000  0.5245540000000 1.0
C      1  0.4754490000000  0.4945150000000  0.4541090000000 1.0
C      1  0.5245540000000  0.5054820000000  0.4541100000000 1.0
C      1  0.4754480000000  0.5054930000000  0.5458900000000 1.0
C      1  0.4541130000000  0.5245590000000  0.5054850000000 1.0
C      1  0.5458870000000  0.4754420000000  0.5054890000000 1.0
C      1  0.4541060000000  0.4754550000000  0.4945120000000 1.0
C      1  0.5245590000000  0.5458870000000  0.4945120000000 1.0
C      1  0.5458890000000  0.4945070000000  0.5245530000000 1.0
C      1  0.4945150000000  0.5245540000000  0.5458890000000 1.0
C      1  0.4754550000000  0.5458940000000  0.5054850000000 1.0
C      1  0.4754410000000  0.4541130000000  0.4945140000000 1.0
C      1  0.5245450000000  0.4541060000000  0.5054900000000 1.0
C      1  0.4541090000000  0.4945190000000  0.4754470000000 1.0
C      1  0.4541100000000  0.5054950000000  0.5245500000000 1.0
C      1  0.5458920000000  0.5054800000000  0.4754490000000 1.0
C      1  0.5054920000000  0.5245490000000  0.4541090000000 1.0
C      1  0.5054820000000  0.4754490000000  0.5458910000000 1.0
C      1  0.4945100000000  0.4754470000000  0.4541100000000 1.0
C      1  0.4313250000000  0.4993500000000  0.5200710000000 1.0
C      1  0.5200620000000  0.4313230000000  0.4993420000000 1.0
C      1  0.4993440000000  0.5200700000000  0.4313250000000 1.0
C      1  0.5686750000000  0.4993280000000  0.4799290000000 1.0
C      1  0.4313260000000  0.5006710000000  0.4799260000000 1.0
C      1  0.5686740000000  0.5006520000000  0.5200740000000 1.0
C      1  0.4799170000000  0.4313290000000  0.5006630000000 1.0
C      1  0.5200830000000  0.5686710000000  0.5006590000000 1.0
C      1  0.4799380000000  0.5686770000000  0.4993360000000 1.0
C      1  0.5006630000000  0.5200750000000  0.5686740000000 1.0
C      1  0.4993340000000  0.4799300000000  0.5686750000000 1.0
C      1  0.5006600000000  0.4799250000000  0.4313260000000 1.0
C      1  0.5200740000000  0.4993330000000  0.4313260000000 1.0
C      1  0.4993280000000  0.4313270000000  0.5200750000000 1.0
C      1  0.4313290000000  0.5200830000000  0.4993360000000 1.0
C      1  0.4799260000000  0.4993440000000  0.5686740000000 1.0
C      1  0.4799290000000  0.5006620000000  0.4313250000000 1.0
C      1  0.5200710000000  0.5006610000000  0.5686750000000 1.0
C      1  0.5006510000000  0.4313250000000  0.4799300000000 1.0
C      1  0.5006710000000  0.5686750000000  0.5200700000000 1.0
C      1  0.4993500000000  0.5686740000000  0.4799250000000 1.0
C      1  0.5686770000000  0.5200620000000  0.5006620000000 1.0
C      1  0.5686710000000  0.4799170000000  0.4993410000000 1.0
C      1  0.4313230000000  0.4799380000000  0.5006600000000 1.0
C      1  0.4759760000000  0.5640970000000  0.4859800000000 1.0
C      1  0.4859770000000  0.4759700000000  0.5640950000000 1.0
C      1  0.5640930000000  0.4859720000000  0.4759680000000 1.0
C      1  0.5240440000000  0.5640910000000  0.5140160000000 1.0
C      1  0.4759560000000  0.4359100000000  0.5140190000000 1.0
C      1  0.5240250000000  0.4359020000000  0.4859850000000 1.0
C      1  0.5140160000000  0.4759610000000  0.4359070000000 1.0
C      1  0.4859880000000  0.5240340000000  0.4359050000000 1.0
C      1  0.5140190000000  0.5240350000000  0.5640940000000 1.0
C      1  0.4359030000000  0.4859930000000  0.5240330000000 1.0
C      1  0.5640960000000  0.5140090000000  0.5240360000000 1.0
C      1  0.4359090000000  0.5140260000000  0.4759630000000 1.0
C      1  0.4859930000000  0.5640950000000  0.4759630000000 1.0
C      1  0.5640910000000  0.4759550000000  0.4859850000000 1.0
C      1  0.4759620000000  0.4859880000000  0.5640940000000 1.0
C      1  0.5140270000000  0.5640930000000  0.5240330000000 1.0
C      1  0.5140090000000  0.4359030000000  0.4759680000000 1.0
C      1  0.4859720000000  0.4359090000000  0.5240360000000 1.0
C      1  0.4359020000000  0.4759760000000  0.5140170000000 1.0
C      1  0.4359100000000  0.5240440000000  0.4859800000000 1.0
C      1  0.5640970000000  0.5240250000000  0.5140180000000 1.0
C      1  0.5240340000000  0.4859770000000  0.4359070000000 1.0
C      1  0.5240350000000  0.5140160000000  0.5640940000000 1.0
C      1  0.4759690000000  0.5140190000000  0.4359050000000 1.0
C      1  0.4213040000000  0.5000540000000  0.5102990000000 1.0
C      1  0.5102890000000  0.4213020000000  0.5000450000000 1.0
C      1  0.5000450000000  0.5102990000000  0.4213040000000 1.0
C      1  0.5786960000000  0.5000300000000  0.4897010000000 1.0
C      1  0.4213040000000  0.4999700000000  0.4896970000000 1.0
C      1  0.5786960000000  0.4999470000000  0.5103030000000 1.0
C      1  0.4896870000000  0.4213050000000  0.4999610000000 1.0
C      1  0.5103130000000  0.5786940000000  0.4999560000000 1.0
C      1  0.4897110000000  0.5786980000000  0.5000390000000 1.0
C      1  0.4999580000000  0.5103040000000  0.5786960000000 1.0
C      1  0.5000380000000  0.4897010000000  0.5786960000000 1.0
C      1  0.4999590000000  0.4896960000000  0.4213040000000 1.0
C      1  0.5103030000000  0.5000370000000  0.4213040000000 1.0
C      1  0.5000300000000  0.4213040000000  0.5103040000000 1.0
C      1  0.4213050000000  0.5103130000000  0.5000390000000 1.0
C      1  0.4896970000000  0.5000460000000  0.5786960000000 1.0
C      1  0.4897010000000  0.4999570000000  0.4213040000000 1.0
C      1  0.5102990000000  0.4999590000000  0.5786960000000 1.0
C      1  0.4999470000000  0.4213040000000  0.4897010000000 1.0
C      1  0.4999700000000  0.5786960000000  0.5102990000000 1.0
C      1  0.5000540000000  0.5786960000000  0.4896960000000 1.0
C      1  0.5786980000000  0.5102890000000  0.4999600000000 1.0
C      1  0.5786940000000  0.4896870000000  0.5000440000000 1.0
C      1  0.4213020000000  0.4897110000000  0.4999570000000 1.0
C      1  0.5279140000000  0.4518100000000  0.4619480000000 1.0
C      1  0.4619510000000  0.5279250000000  0.4518140000000 1.0
C      1  0.4518090000000  0.4619540000000  0.5279210000000 1.0
C      1  0.4720710000000  0.4518210000000  0.5380550000000 1.0
C      1  0.5279270000000  0.5481810000000  0.5380530000000 1.0
C      1  0.4720880000000  0.5481870000000  0.4619430000000 1.0
C      1  0.5380570000000  0.5279170000000  0.5481840000000 1.0
C      1  0.4619400000000  0.4720870000000  0.5481840000000 1.0
C      1  0.5380510000000  0.4720720000000  0.4518180000000 1.0
C      1  0.5481790000000  0.4619370000000  0.4720820000000 1.0
C      1  0.4518220000000  0.5380610000000  0.4720770000000 1.0
C      1  0.5481890000000  0.5380480000000  0.5279210000000 1.0
C      1  0.4619380000000  0.4518220000000  0.5279210000000 1.0
C      1  0.4518210000000  0.5279270000000  0.4619430000000 1.0
C      1  0.5279160000000  0.4619400000000  0.4518180000000 1.0
C      1  0.5380480000000  0.4518090000000  0.4720820000000 1.0
C      1  0.5380610000000  0.5481800000000  0.5279200000000 1.0
C      1  0.4619540000000  0.5481890000000  0.4720770000000 1.0
C      1  0.5481880000000  0.5279150000000  0.5380550000000 1.0
C      1  0.5481810000000  0.4720710000000  0.4619480000000 1.0
C      1  0.4518100000000  0.4720880000000  0.5380540000000 1.0
C      1  0.4720720000000  0.4619520000000  0.5481850000000 1.0
C      1  0.4720860000000  0.5380570000000  0.4518140000000 1.0
C      1  0.5279250000000  0.5380520000000  0.5481840000000 1.0
C      1  0.5039220000000  0.5455750000000  0.5357690000000 1.0
C      1  0.5357700000000  0.5039130000000  0.5455750000000 1.0
C      1  0.5455800000000  0.5357640000000  0.5039160000000 1.0
C      1  0.4960910000000  0.5455740000000  0.4642280000000 1.0
C      1  0.5039100000000  0.4544240000000  0.4642310000000 1.0
C      1  0.4960760000000  0.4544270000000  0.5357720000000 1.0
C      1  0.4642310000000  0.5039200000000  0.4544240000000 1.0
C      1  0.5357710000000  0.4960770000000  0.4544270000000 1.0
C      1  0.4642270000000  0.4960910000000  0.5455740000000 1.0
C      1  0.4544310000000  0.5357780000000  0.4960810000000 1.0
C      1  0.5455690000000  0.4642220000000  0.4960860000000 1.0
C      1  0.4544200000000  0.4642360000000  0.5039160000000 1.0
C      1  0.5357780000000  0.5455690000000  0.5039160000000 1.0
C      1  0.5455740000000  0.5039110000000  0.5357720000000 1.0
C      1  0.5039210000000  0.5357720000000  0.5455730000000 1.0
C      1  0.4642360000000  0.5455800000000  0.4960810000000 1.0
C      1  0.4642220000000  0.4544310000000  0.5039170000000 1.0
C      1  0.5357640000000  0.4544200000000  0.4960860000000 1.0
C      1  0.4544270000000  0.5039220000000  0.4642280000000 1.0
C      1  0.4544240000000  0.4960920000000  0.5357700000000 1.0
C      1  0.5455750000000  0.4960760000000  0.4642300000000 1.0
C      1  0.4960900000000  0.5357700000000  0.4544240000000 1.0
C      1  0.4960770000000  0.4642310000000  0.5455760000000 1.0
C      1  0.5039120000000  0.4642270000000  0.4544270000000 1.0
C      1  0.5094940000000  0.4414290000000  0.5195860000000 1.0
C      1  0.5195870000000  0.5094980000000  0.4414300000000 1.0
C      1  0.4414320000000  0.5195930000000  0.5095010000000 1.0
C      1  0.4904880000000  0.4414300000000  0.4804180000000 1.0
C      1  0.5095130000000  0.5585680000000  0.4804140000000 1.0
C      1  0.4905050000000  0.5585730000000  0.5195820000000 1.0
C      1  0.4804160000000  0.5095080000000  0.5585700000000 1.0
C      1  0.5195810000000  0.4904960000000  0.5585710000000 1.0
C      1  0.4804160000000  0.4904980000000  0.4414290000000 1.0
C      1  0.5585740000000  0.5195750000000  0.4904980000000 1.0
C      1  0.4414270000000  0.4804240000000  0.4904960000000 1.0
C      1  0.5585670000000  0.4804070000000  0.5095060000000 1.0
C      1  0.5195750000000  0.4414270000000  0.5095060000000 1.0
C      1  0.4414300000000  0.5095130000000  0.5195820000000 1.0
C      1  0.5095080000000  0.5195810000000  0.4414290000000 1.0
C      1  0.4804070000000  0.4414320000000  0.4904980000000 1.0
C      1  0.4804240000000  0.5585740000000  0.5095010000000 1.0
C      1  0.5195930000000  0.5585670000000  0.4904950000000 1.0
C      1  0.5585720000000  0.5094940000000  0.4804170000000 1.0
C      1  0.5585680000000  0.4904890000000  0.5195860000000 1.0
C      1  0.4414290000000  0.4905050000000  0.4804150000000 1.0
C      1  0.4904980000000  0.5195880000000  0.5585700000000 1.0
C      1  0.4904950000000  0.4804150000000  0.4414300000000 1.0
C      1  0.5094990000000  0.4804160000000  0.5585710000000 1.0
C      1  0.5152140000000  0.5341380000000  0.5539830000000 1.0
C      1  0.5539850000000  0.5152040000000  0.5341390000000 1.0
C      1  0.5341460000000  0.5539790000000  0.5152100000000 1.0
C      1  0.4847960000000  0.5341390000000  0.4460150000000 1.0
C      1  0.5152070000000  0.4658570000000  0.4460180000000 1.0
C      1  0.4847830000000  0.4658660000000  0.5539850000000 1.0
C      1  0.4460190000000  0.5152180000000  0.4658600000000 1.0
C      1  0.5539820000000  0.4847800000000  0.4658630000000 1.0
C      1  0.4460130000000  0.4847990000000  0.5341380000000 1.0
C      1  0.4658700000000  0.5539880000000  0.4847870000000 1.0
C      1  0.5341310000000  0.4460100000000  0.4847920000000 1.0
C      1  0.4658530000000  0.4460220000000  0.5152120000000 1.0
C      1  0.5539890000000  0.5341310000000  0.5152110000000 1.0
C      1  0.5341390000000  0.5152070000000  0.5539840000000 1.0
C      1  0.5152180000000  0.5539830000000  0.5341370000000 1.0
C      1  0.4460220000000  0.5341460000000  0.4847870000000 1.0
C      1  0.4460110000000  0.4658700000000  0.5152100000000 1.0
C      1  0.5539790000000  0.4658530000000  0.4847920000000 1.0
C      1  0.4658650000000  0.5152140000000  0.4460150000000 1.0
C      1  0.4658580000000  0.4847960000000  0.5539840000000 1.0
C      1  0.5341380000000  0.4847820000000  0.4460180000000 1.0
C      1  0.4847980000000  0.5539850000000  0.4658590000000 1.0
C      1  0.4847800000000  0.4460200000000  0.5341400000000 1.0
C      1  0.5152030000000  0.4460130000000  0.4658640000000 1.0
END
