TITL C-1743320-89-2 -62283.8216779286 125000 -334.694860932437 0 0 60 (C5) n - 1
REM
REM in /home/nfs/bkarasulu/CARBON/AIRSS/Generating-Clusters/TERSOFF/Higher-Symm/Only-C60
REM
REM
REM
REM
REM
REM ./C.cell (28575a23ae977d3b5fae324c64b13b57)
REM AIRSS Version 0.9.1 bugfix July 2018 build 013d7b7c2542+ Fri, 06 Jul 2018 19:26:36 +0100
REM compiler GCC version 9.2.1 20190827 (Red Hat 9.2.1-1)
REM options -cpp -mtune=generic -march=x86-64 -g -O0 -fpre-include=/usr/include/finclude/math-vector-fortran.h
REM seed -1118511121 -776277537 -456435742 1750994970 557278010 361565594 412113767 -1160211249 637726778 829114981 1376393291 1446704569 -1259202423 -1754968968 -358146377 232897533 2065084852 1873414777 -1695231663 -2116264192 259618920 -1182536060 746881521 -755007073 -1686016443 -351824751 1462793081 1418464581 1917688291 201257985 -1864259944 -1925201973 -1033226763
REM
CELL 1.54180   50.00000   50.00000   50.00000   90.00000   90.00000   90.00000
LATT -1
SFAC C  
C      1  0.5459500000000  0.4463190000000  0.4549210000000 1.0
C      1  0.5459490000000  0.4405400000000  0.5371240000000 1.0
C      1  0.5459510000000  0.5169320000000  0.5680220000000 1.0
C      1  0.5459520000000  0.5699230000000  0.5049180000000 1.0
C      1  0.5459510000000  0.5262850000000  0.4350190000000 1.0
C      1  0.5706720000000  0.5549060000000  0.5018680000000 1.0
C      1  0.5706760000000  0.5187460000000  0.4483580000000 1.0
C      1  0.5706720000000  0.4566800000000  0.4662130000000 1.0
C      1  0.5706710000000  0.4544780000000  0.5307610000000 1.0
C      1  0.5706710000000  0.5151890000000  0.5527980000000 1.0
C      1  0.4790150000000  0.5632590000000  0.5271870000000 1.0
C      1  0.4790150000000  0.5454060000000  0.4482390000000 1.0
C      1  0.4790240000000  0.4647990000000  0.4408180000000 1.0
C      1  0.4790150000000  0.4328410000000  0.5151870000000 1.0
C      1  0.4790130000000  0.4936910000000  0.5685630000000 1.0
C      1  0.4469620000000  0.4560850000000  0.4817440000000 1.0
C      1  0.4469640000000  0.4690620000000  0.5361230000000 1.0
C      1  0.4469640000000  0.5247930000000  0.5405870000000 1.0
C      1  0.4469670000000  0.5462630000000  0.4889630000000 1.0
C      1  0.4469640000000  0.5038000000000  0.4525850000000 1.0
C      1  0.4915900000000  0.5367860000000  0.5311720000000 1.0
C      1  0.4915880000000  0.5410120000000  0.4746490000000 1.0
C      1  0.4915910000000  0.4885600000000  0.4531640000000 1.0
C      1  0.4915850000000  0.4519230000000  0.4964060000000 1.0
C      1  0.4915870000000  0.4817220000000  0.5446160000000 1.0
C      1  0.4961840000000  0.4522400000000  0.5482420000000 1.0
C      1  0.4961870000000  0.5311210000000  0.5603320000000 1.0
C      1  0.4961870000000  0.5669960000000  0.4890440000000 1.0
C      1  0.4961830000000  0.5102810000000  0.4329000000000 1.0
C      1  0.4961840000000  0.4393600000000  0.4694900000000 1.0
C      1  0.4666110000000  0.5698980000000  0.5009510000000 1.0
C      1  0.4666080000000  0.5225070000000  0.4338160000000 1.0
C      1  0.4665950000000  0.4440090000000  0.4581410000000 1.0
C      1  0.4666060000000  0.4428880000000  0.5403150000000 1.0
C      1  0.4666100000000  0.5206950000000  0.5667710000000 1.0
C      1  0.4242070000000  0.5130980000000  0.5226310000000 1.0
C      1  0.4242090000000  0.5255730000000  0.4945350000000 1.0
C      1  0.4242130000000  0.5027070000000  0.4739910000000 1.0
C      1  0.4242100000000  0.4761020000000  0.4893890000000 1.0
C      1  0.4242090000000  0.4825240000000  0.5194490000000 1.0
C      1  0.5168060000000  0.5268240000000  0.5113920000000 1.0
C      1  0.5168040000000  0.5191330000000  0.4780090000000 1.0
C      1  0.5168130000000  0.4850000000000  0.4750100000000 1.0
C      1  0.5168050000000  0.4715990000000  0.5065450000000 1.0
C      1  0.5168050000000  0.4974500000000  0.5290330000000 1.0
C      1  0.5196150000000  0.4492520000000  0.5288810000000 1.0
C      1  0.5196170000000  0.5117860000000  0.5571890000000 1.0
C      1  0.5196180000000  0.5580310000000  0.5064630000000 1.0
C      1  0.5196170000000  0.5240760000000  0.4468080000000 1.0
C      1  0.5196150000000  0.4568510000000  0.4606590000000 1.0
C      1  0.4699210000000  0.4740020000000  0.4943110000000 1.0
C      1  0.4699250000000  0.4865550000000  0.5229680000000 1.0
C      1  0.4699270000000  0.5176880000000  0.5198860000000 1.0
C      1  0.4699250000000  0.5243760000000  0.4893240000000 1.0
C      1  0.4699230000000  0.4973770000000  0.4735160000000 1.0
C      1  0.5724610000000  0.5257390000000  0.5008740000000 1.0
C      1  0.5724670000000  0.5087870000000  0.4757910000000 1.0
C      1  0.5724590000000  0.4796910000000  0.4841630000000 1.0
C      1  0.5724590000000  0.4786600000000  0.5144230000000 1.0
C      1  0.5724580000000  0.5071230000000  0.5247520000000 1.0
END
