TITL C-1743321-68-4 4.01709161256967e-06 125000 -333.784261128591 0 0 60 (C2) n - 1
REM
REM in /home/nfs/bkarasulu/CARBON/AIRSS/Generating-Clusters/TERSOFF/Higher-Symm/Only-C60
REM
REM
REM
REM
REM
REM ./C.cell (28575a23ae977d3b5fae324c64b13b57)
REM AIRSS Version 0.9.1 bugfix July 2018 build 013d7b7c2542+ Fri, 06 Jul 2018 19:26:36 +0100
REM compiler GCC version 9.2.1 20190827 (Red Hat 9.2.1-1)
REM options -cpp -mtune=generic -march=x86-64 -g -O0 -fpre-include=/usr/include/finclude/math-vector-fortran.h
REM seed -893879489 -392244040 319692629 -100423769 -2081344667 -561951292 1145953123 793093815 1078329201 -178704508 703843026 362032260 -1423886369 420011376 -1213076116 -704455888 1340684769 166075093 1179056851 -69442318 1682723395 -1790640350 1135050812 2049280893 -1590086062 1493857764 42751005 1829511281 -1621619203 -1635243444 -1370464262 -435103898 1145451266
REM
CELL 1.54180   50.00000   50.00000   50.00000   90.00000   90.00000   90.00000
LATT -1
SFAC C  
C      1  0.5254530000000  0.5377620000000  0.4377510000000 1.0
C      1  0.4746150000000  0.4379930000000  0.4620130000000 1.0
C      1  0.5254520000000  0.4622390000000  0.5622500000000 1.0
C      1  0.4746100000000  0.5620060000000  0.5379860000000 1.0
C      1  0.4418410000000  0.5559220000000  0.4979580000000 1.0
C      1  0.5612330000000  0.5015150000000  0.4458240000000 1.0
C      1  0.4418440000000  0.4440750000000  0.5020390000000 1.0
C      1  0.5612300000000  0.4984880000000  0.5541790000000 1.0
C      1  0.5304540000000  0.5548500000000  0.4620200000000 1.0
C      1  0.4681560000000  0.4615880000000  0.4444490000000 1.0
C      1  0.5304550000000  0.4451520000000  0.5379820000000 1.0
C      1  0.4681510000000  0.5384100000000  0.5555490000000 1.0
C      1  0.4486030000000  0.5277700000000  0.4919500000000 1.0
C      1  0.5519830000000  0.4932980000000  0.4725140000000 1.0
C      1  0.4486040000000  0.4722270000000  0.5080470000000 1.0
C      1  0.5519820000000  0.5067050000000  0.5274890000000 1.0
C      1  0.4860460000000  0.4947450000000  0.5201660000000 1.0
C      1  0.5128770000000  0.5148030000000  0.5147530000000 1.0
C      1  0.4860470000000  0.5052550000000  0.4798330000000 1.0
C      1  0.5128780000000  0.4851980000000  0.4852470000000 1.0
C      1  0.4535420000000  0.4283760000000  0.4802000000000 1.0
C      1  0.5473180000000  0.4794900000000  0.5711770000000 1.0
C      1  0.4535370000000  0.5716220000000  0.5197970000000 1.0
C      1  0.5473210000000  0.5205120000000  0.4288260000000 1.0
C      1  0.4892910000000  0.5177690000000  0.5600810000000 1.0
C      1  0.5103510000000  0.5523200000000  0.4844260000000 1.0
C      1  0.4892950000000  0.4822300000000  0.4399180000000 1.0
C      1  0.5103530000000  0.4476810000000  0.5155750000000 1.0
C      1  0.4476340000000  0.4772980000000  0.4578160000000 1.0
C      1  0.5512740000000  0.4562730000000  0.5192190000000 1.0
C      1  0.4476310000000  0.5226990000000  0.5421820000000 1.0
C      1  0.5512730000000  0.5437300000000  0.4807840000000 1.0
C      1  0.4796190000000  0.4890250000000  0.5612530000000 1.0
C      1  0.5198940000000  0.5561070000000  0.5126920000000 1.0
C      1  0.4796210000000  0.5109740000000  0.4387460000000 1.0
C      1  0.5198980000000  0.4438940000000  0.4873090000000 1.0
C      1  0.5797730000000  0.5481350000000  0.4783120000000 1.0
C      1  0.4202770000000  0.4798850000000  0.4487240000000 1.0
C      1  0.5797750000000  0.4518690000000  0.5216920000000 1.0
C      1  0.4202730000000  0.5201110000000  0.5512720000000 1.0
C      1  0.4543380000000  0.4793140000000  0.5429710000000 1.0
C      1  0.5454260000000  0.5404110000000  0.5241530000000 1.0
C      1  0.4543390000000  0.5206840000000  0.4570260000000 1.0
C      1  0.5454300000000  0.4595910000000  0.4758500000000 1.0
C      1  0.5386740000000  0.4819800000000  0.5106730000000 1.0
C      1  0.4578460000000  0.5121320000000  0.5171000000000 1.0
C      1  0.5386730000000  0.5180220000000  0.4893290000000 1.0
C      1  0.4578470000000  0.4878660000000  0.4828970000000 1.0
C      1  0.4871190000000  0.4633360000000  0.5221490000000 1.0
C      1  0.5137610000000  0.5222140000000  0.5448500000000 1.0
C      1  0.4871180000000  0.5366630000000  0.4778500000000 1.0
C      1  0.5137640000000  0.4777870000000  0.4551510000000 1.0
C      1  0.5024720000000  0.5694530000000  0.5324680000000 1.0
C      1  0.4977380000000  0.5323630000000  0.4280840000000 1.0
C      1  0.5024780000000  0.4305470000000  0.4675320000000 1.0
C      1  0.4977360000000  0.4676370000000  0.5719160000000 1.0
C      1  0.5365620000000  0.4606270000000  0.4453720000000 1.0
C      1  0.4658270000000  0.4500580000000  0.5392410000000 1.0
C      1  0.5365570000000  0.5393750000000  0.5546300000000 1.0
C      1  0.4658260000000  0.5499400000000  0.4607570000000 1.0
END
