TITL C-1743318-72-3 -3.74138269372958e-07 125000 -293.314924404177 0 0 60 (Th) n - 1
REM
REM in /home/nfs/bkarasulu/CARBON/AIRSS/Generating-Clusters/TERSOFF/Higher-Symm/Only-C60
REM
REM
REM
REM
REM
REM ./C.cell (28575a23ae977d3b5fae324c64b13b57)
REM AIRSS Version 0.9.1 bugfix July 2018 build 013d7b7c2542+ Fri, 06 Jul 2018 19:26:36 +0100
REM compiler GCC version 9.2.1 20190827 (Red Hat 9.2.1-1)
REM options -cpp -mtune=generic -march=x86-64 -g -O0 -fpre-include=/usr/include/finclude/math-vector-fortran.h
REM seed -96585833 827146310 -1733818731 1794623628 -1968734162 -1621785322 -495265610 -259022318 1316248611 -1655182446 1074692281 -559598563 -361329743 -1910481093 -736446604 -1221032848 -1338835058 -1362700950 -84623868 -279994684 1001500972 -1086910619 1836549376 143434019 -1357344870 -771886555 350660954 -1878908869 875505214 83500293 -366510717 -677701124 82882147
REM
CELL 1.54180   50.00000   50.00000   50.00000   90.00000   90.00000   90.00000
LATT -1
SFAC C  
C      1  0.4762890000000  0.5704560000000  0.4716380000000 1.0
C      1  0.5704560000000  0.4716380000000  0.4762890000000 1.0
C      1  0.4716380000000  0.4762890000000  0.5704560000000 1.0
C      1  0.4762890000000  0.4295440000000  0.5283620000000 1.0
C      1  0.5237110000000  0.5704560000000  0.5283620000000 1.0
C      1  0.5237110000000  0.4295440000000  0.4716380000000 1.0
C      1  0.5704560000000  0.5283620000000  0.5237110000000 1.0
C      1  0.4295440000000  0.4716380000000  0.5237110000000 1.0
C      1  0.4295440000000  0.5283620000000  0.4762890000000 1.0
C      1  0.4716380000000  0.5237110000000  0.4295440000000 1.0
C      1  0.5283620000000  0.4762890000000  0.4295440000000 1.0
C      1  0.5283620000000  0.5237110000000  0.5704560000000 1.0
C      1  0.5237110000000  0.5704560000000  0.4716380000000 1.0
C      1  0.4295440000000  0.4716380000000  0.4762890000000 1.0
C      1  0.5283620000000  0.4762890000000  0.5704560000000 1.0
C      1  0.5237110000000  0.4295440000000  0.5283620000000 1.0
C      1  0.4762890000000  0.5704560000000  0.5283620000000 1.0
C      1  0.4762890000000  0.4295440000000  0.4716380000000 1.0
C      1  0.4295440000000  0.5283620000000  0.5237110000000 1.0
C      1  0.5704560000000  0.4716380000000  0.5237110000000 1.0
C      1  0.5704560000000  0.5283620000000  0.4762890000000 1.0
C      1  0.5283620000000  0.5237110000000  0.4295440000000 1.0
C      1  0.4716380000000  0.4762890000000  0.4295440000000 1.0
C      1  0.4716380000000  0.5237110000000  0.5704560000000 1.0
C      1  0.4831130000000  0.5178290000000  0.4571660000000 1.0
C      1  0.5178290000000  0.4571660000000  0.4831130000000 1.0
C      1  0.4571660000000  0.4831130000000  0.5178290000000 1.0
C      1  0.4831130000000  0.4821710000000  0.5428340000000 1.0
C      1  0.5168870000000  0.5178290000000  0.5428340000000 1.0
C      1  0.5168870000000  0.4821710000000  0.4571660000000 1.0
C      1  0.5178290000000  0.5428340000000  0.5168870000000 1.0
C      1  0.4821710000000  0.4571660000000  0.5168870000000 1.0
C      1  0.4821710000000  0.5428340000000  0.4831130000000 1.0
C      1  0.4571660000000  0.5168870000000  0.4821710000000 1.0
C      1  0.5428340000000  0.4831130000000  0.4821710000000 1.0
C      1  0.5428340000000  0.5168870000000  0.5178290000000 1.0
C      1  0.5168870000000  0.5178290000000  0.4571660000000 1.0
C      1  0.4821710000000  0.4571660000000  0.4831130000000 1.0
C      1  0.5428340000000  0.4831130000000  0.5178290000000 1.0
C      1  0.5168870000000  0.4821710000000  0.5428340000000 1.0
C      1  0.4831130000000  0.5178290000000  0.5428340000000 1.0
C      1  0.4831130000000  0.4821710000000  0.4571660000000 1.0
C      1  0.4821710000000  0.5428340000000  0.5168870000000 1.0
C      1  0.5178290000000  0.4571660000000  0.5168870000000 1.0
C      1  0.5178290000000  0.5428340000000  0.4831130000000 1.0
C      1  0.5428340000000  0.5168870000000  0.4821710000000 1.0
C      1  0.4571660000000  0.4831130000000  0.4821710000000 1.0
C      1  0.4571660000000  0.5168870000000  0.5178290000000 1.0
C      1  0.4650950000000  0.5000000000000  0.5862060000000 1.0
C      1  0.5349050000000  0.5000000000000  0.4137940000000 1.0
C      1  0.4137940000000  0.4650950000000  0.5000000000000 1.0
C      1  0.4650950000000  0.5000000000000  0.4137940000000 1.0
C      1  0.5000000000000  0.4137940000000  0.4650950000000 1.0
C      1  0.4137940000000  0.5349050000000  0.5000000000000 1.0
C      1  0.5862060000000  0.4650950000000  0.5000000000000 1.0
C      1  0.5862060000000  0.5349050000000  0.5000000000000 1.0
C      1  0.5349050000000  0.5000000000000  0.5862060000000 1.0
C      1  0.5000000000000  0.5862060000000  0.5349050000000 1.0
C      1  0.5000000000000  0.4137940000000  0.5349050000000 1.0
C      1  0.5000000000000  0.5862060000000  0.4650950000000 1.0
END
