TITL C-21450-4084-12 0.000232353295149028 125000 -295.786216635475 0 0 60 (C3) n - 1
REM
REM in /home/nfs/bkarasulu/CARBON/AIRSS/Generating-Clusters/TERSOFF/Higher-Symm/Only-C60
REM
REM
REM
REM
REM
REM ./C.cell (28575a23ae977d3b5fae324c64b13b57)
REM
REM compiler GCC version 9.2.1 20190827 (Red Hat 9.2.1-1)
REM options -cpp -mtune=generic -march=x86-64 -g -O0 -fpre-include=/usr/include/finclude/math-vector-fortran.h
REM seed -1611399493 1724825059 2014361609 963682848 1547422637 1919766377 466593041 770246583 894433001 -488031676 -1002354448 -1279320694 1957587353 266249314 550850214 -366015788 -907823865 -1776662957 1562957716 -2063128959 -1079280611 1225015801 -377697575 -97010552 1009104201 1433377992 -897761193 -1418543308 1982522670 693183930 -314140176 605277763 2062457016
REM
CELL 1.54180   50.00000   50.00000   50.00000   90.00000   90.00000   90.00000
LATT -1
SFAC C  
C      1  0.5611250000000  0.5074380000000  0.4872780000000 1.0
C      1  0.4629960000000  0.5492180000000  0.4872780000000 1.0
C      1  0.4758780000000  0.4433430000000  0.4872810000000 1.0
C      1  0.5111900000000  0.5294820000000  0.4337990000000 1.0
C      1  0.4688760000000  0.4949480000000  0.4338020000000 1.0
C      1  0.5199330000000  0.4755730000000  0.4337990000000 1.0
C      1  0.5037580000000  0.4760620000000  0.4823320000000 1.0
C      1  0.5188430000000  0.5152250000000  0.4823350000000 1.0
C      1  0.4773910000000  0.5087110000000  0.4823350000000 1.0
C      1  0.4363790000000  0.5032390000000  0.4751610000000 1.0
C      1  0.5290060000000  0.4432820000000  0.4751610000000 1.0
C      1  0.5346160000000  0.5534790000000  0.4751610000000 1.0
C      1  0.5383420000000  0.4603090000000  0.5001880000000 1.0
C      1  0.5152030000000  0.5530520000000  0.5001870000000 1.0
C      1  0.4464630000000  0.4866420000000  0.5001870000000 1.0
C      1  0.5391870000000  0.4483560000000  0.5292830000000 1.0
C      1  0.5251310000000  0.5597580000000  0.5292840000000 1.0
C      1  0.4356820000000  0.4918850000000  0.5292840000000 1.0
C      1  0.4765180000000  0.5150890000000  0.4526590000000 1.0
C      1  0.4986680000000  0.4721220000000  0.4526620000000 1.0
C      1  0.5248090000000  0.5127800000000  0.4526540000000 1.0
C      1  0.4781250000000  0.4772930000000  0.4994690000000 1.0
C      1  0.5306010000000  0.4924080000000  0.4994700000000 1.0
C      1  0.4912730000000  0.5302970000000  0.4994680000000 1.0
C      1  0.5547290000000  0.5367150000000  0.4947330000000 1.0
C      1  0.4408410000000  0.5290390000000  0.4947320000000 1.0
C      1  0.5044310000000  0.4342480000000  0.4947330000000 1.0
C      1  0.4670350000000  0.4655700000000  0.4418410000000 1.0
C      1  0.5463060000000  0.4886710000000  0.4418490000000 1.0
C      1  0.4866650000000  0.5457670000000  0.4418450000000 1.0
C      1  0.5276900000000  0.4965460000000  0.5305570000000 1.0
C      1  0.4891460000000  0.5257070000000  0.5305570000000 1.0
C      1  0.4831630000000  0.4777460000000  0.5305570000000 1.0
C      1  0.4349750000000  0.5233900000000  0.5232170000000 1.0
C      1  0.5122560000000  0.4319920000000  0.5232170000000 1.0
C      1  0.5527690000000  0.5446190000000  0.5232170000000 1.0
C      1  0.5546860000000  0.4649490000000  0.4619730000000 1.0
C      1  0.5030120000000  0.5648850000000  0.4619760000000 1.0
C      1  0.4423010000000  0.4701660000000  0.4619750000000 1.0
C      1  0.4655080000000  0.5033480000000  0.5459420000000 1.0
C      1  0.5143470000000  0.4684550000000  0.5459420000000 1.0
C      1  0.5201460000000  0.5281970000000  0.5459420000000 1.0
C      1  0.4644160000000  0.4535030000000  0.5475500000000 1.0
C      1  0.5580590000000  0.4924320000000  0.5475490000000 1.0
C      1  0.4775240000000  0.5540650000000  0.5475490000000 1.0
C      1  0.5549160000000  0.5240420000000  0.5468290000000 1.0
C      1  0.4517200000000  0.5355380000000  0.5468290000000 1.0
C      1  0.4933630000000  0.4404200000000  0.5468290000000 1.0
C      1  0.4924410000000  0.5740780000000  0.5283520000000 1.0
C      1  0.4396270000000  0.4564170000000  0.5283490000000 1.0
C      1  0.5679350000000  0.4695080000000  0.5283530000000 1.0
C      1  0.4443450000000  0.4530380000000  0.4938780000000 1.0
C      1  0.5684970000000  0.4752820000000  0.4938770000000 1.0
C      1  0.4871580000000  0.5716780000000  0.4938780000000 1.0
C      1  0.4723320000000  0.4398740000000  0.4580460000000 1.0
C      1  0.5659050000000  0.5061010000000  0.4580450000000 1.0
C      1  0.4617620000000  0.5540220000000  0.4580490000000 1.0
C      1  0.5372370000000  0.4778860000000  0.5669040000000 1.0
C      1  0.5005330000000  0.5433050000000  0.5669050000000 1.0
C      1  0.4622300000000  0.4788100000000  0.5669050000000 1.0
END
