TITL C-21444-1711-11 -0.00520353493762118 125000 -316.834835717242 0 0 60 (C3) n - 1
REM
REM in /home/nfs/bkarasulu/CARBON/AIRSS/Generating-Clusters/TERSOFF/Higher-Symm/Only-C60
REM
REM
REM
REM
REM
REM ./C.cell (28575a23ae977d3b5fae324c64b13b57)
REM
REM compiler GCC version 9.2.1 20190827 (Red Hat 9.2.1-1)
REM options -cpp -mtune=generic -march=x86-64 -g -O0 -fpre-include=/usr/include/finclude/math-vector-fortran.h
REM seed 1144761480 -517592163 -1326849751 1264429800 890777820 708998772 -186700290 163461998 -1042849537 502437780 186048983 2101864524 -1688480095 1963232074 -1135020224 173711619 -516364482 1908600903 735148977 832973380 506041412 636453820 -1976733354 1072694373 -1145533162 429159322 -1987944868 532619274 981634086 1489136161 -1129887358 -16011904 -2071098459
REM
CELL 1.54180   50.00000   50.00000   50.00000   90.00000   90.00000   90.00000
LATT -1
SFAC C  
C      1  0.4441760000000  0.4766000000000  0.4637440000000 1.0
C      1  0.4442380000000  0.4803290000000  0.5383820000000 1.0
C      1  0.4442430000000  0.5430370000000  0.4978120000000 1.0
C      1  0.4462030000000  0.5247760000000  0.4400930000000 1.0
C      1  0.4461200000000  0.4357560000000  0.5084410000000 1.0
C      1  0.4461850000000  0.5394110000000  0.5514260000000 1.0
C      1  0.4820410000000  0.4922950000000  0.4426900000000 1.0
C      1  0.4820170000000  0.4541740000000  0.5353180000000 1.0
C      1  0.4820100000000  0.5534560000000  0.5219650000000 1.0
C      1  0.5304340000000  0.4773200000000  0.4463680000000 1.0
C      1  0.5304330000000  0.4646500000000  0.5464430000000 1.0
C      1  0.5303210000000  0.5582690000000  0.5073040000000 1.0
C      1  0.4934980000000  0.4977510000000  0.5285050000000 1.0
C      1  0.4934860000000  0.5258940000000  0.4876260000000 1.0
C      1  0.4933310000000  0.4762680000000  0.4838660000000 1.0
C      1  0.4651980000000  0.5217010000000  0.5652900000000 1.0
C      1  0.4652290000000  0.5457220000000  0.4485240000000 1.0
C      1  0.4651250000000  0.4325750000000  0.4861150000000 1.0
C      1  0.4636140000000  0.4868140000000  0.4858000000000 1.0
C      1  0.4636900000000  0.4942670000000  0.5185010000000 1.0
C      1  0.4637630000000  0.5189130000000  0.4957090000000 1.0
C      1  0.4967500000000  0.5168320000000  0.4558050000000 1.0
C      1  0.4966850000000  0.4532610000000  0.5075310000000 1.0
C      1  0.4967590000000  0.5298460000000  0.5365620000000 1.0
C      1  0.5167190000000  0.4485560000000  0.4494150000000 1.0
C      1  0.5168620000000  0.4819760000000  0.5695860000000 1.0
C      1  0.5166400000000  0.5695560000000  0.4807740000000 1.0
C      1  0.5288170000000  0.5307870000000  0.5648460000000 1.0
C      1  0.5288800000000  0.5409120000000  0.4410420000000 1.0
C      1  0.5287740000000  0.4280060000000  0.4940300000000 1.0
C      1  0.4966100000000  0.4237330000000  0.4926010000000 1.0
C      1  0.4966740000000  0.5316990000000  0.5696620000000 1.0
C      1  0.4967680000000  0.5445250000000  0.4376710000000 1.0
C      1  0.4526010000000  0.5531920000000  0.5263140000000 1.0
C      1  0.4526380000000  0.4961760000000  0.4407390000000 1.0
C      1  0.4525880000000  0.4505900000000  0.5329300000000 1.0
C      1  0.5424700000000  0.5143620000000  0.5246140000000 1.0
C      1  0.5421610000000  0.5142690000000  0.4759830000000 1.0
C      1  0.5423230000000  0.4713240000000  0.4997310000000 1.0
C      1  0.5601850000000  0.5522670000000  0.4980370000000 1.0
C      1  0.5602100000000  0.4724230000000  0.4563170000000 1.0
C      1  0.5602760000000  0.4757440000000  0.5457720000000 1.0
C      1  0.4625270000000  0.4503090000000  0.4621850000000 1.0
C      1  0.4626160000000  0.4921000000000  0.5619260000000 1.0
C      1  0.4625350000000  0.5575790000000  0.4758350000000 1.0
C      1  0.5664180000000  0.5277260000000  0.5140470000000 1.0
C      1  0.5661190000000  0.4982780000000  0.4698760000000 1.0
C      1  0.5663970000000  0.4741300000000  0.5165740000000 1.0
C      1  0.5178390000000  0.4971140000000  0.4671580000000 1.0
C      1  0.5179620000000  0.4727260000000  0.5188180000000 1.0
C      1  0.5179870000000  0.5302010000000  0.5140840000000 1.0
C      1  0.5419000000000  0.4499780000000  0.4760450000000 1.0
C      1  0.5419730000000  0.5042970000000  0.5548300000000 1.0
C      1  0.5417780000000  0.5453640000000  0.4690340000000 1.0
C      1  0.5024190000000  0.4237600000000  0.4615560000000 1.0
C      1  0.5027160000000  0.5049910000000  0.5852250000000 1.0
C      1  0.5026580000000  0.5714310000000  0.4529880000000 1.0
C      1  0.4895020000000  0.4782950000000  0.5535030000000 1.0
C      1  0.4894090000000  0.5572610000000  0.4919910000000 1.0
C      1  0.4895020000000  0.4644470000000  0.4544360000000 1.0
END
