TITL C-21450-4084-51 -0.000968249016974171 125000 -327.68736848971 0 0 60 (C3) n - 1
REM
REM in /home/nfs/bkarasulu/CARBON/AIRSS/Generating-Clusters/TERSOFF/Higher-Symm/Only-C60
REM
REM
REM
REM
REM
REM ./C.cell (28575a23ae977d3b5fae324c64b13b57)
REM
REM compiler GCC version 9.2.1 20190827 (Red Hat 9.2.1-1)
REM options -cpp -mtune=generic -march=x86-64 -g -O0 -fpre-include=/usr/include/finclude/math-vector-fortran.h
REM seed -1503088073 -409065922 1259375059 -837338581 1016054053 1079671056 -209695835 1435214876 -591794295 -644193651 -1123168714 820292022 1464904843 458765062 -243207752 -1925677947 -896489308 875133976 -1646197699 -1247232271 179820912 -677394622 402252980 -2090658086 1365896074 1136073025 987971867 -470686274 -231881255 1538966073 1489212995 -682413528 977235726
REM
CELL 1.54180   50.00000   50.00000   50.00000   90.00000   90.00000   90.00000
LATT -1
SFAC C  
C      1  0.5570630000000  0.4596820000000  0.5169620000000 1.0
C      1  0.5570660000000  0.5348340000000  0.5264350000000 1.0
C      1  0.5570640000000  0.5054860000000  0.4566150000000 1.0
C      1  0.5470970000000  0.5675080000000  0.4875880000000 1.0
C      1  0.5471000000000  0.4555100000000  0.4477550000000 1.0
C      1  0.5470720000000  0.4769820000000  0.5646710000000 1.0
C      1  0.4826840000000  0.5543450000000  0.5517620000000 1.0
C      1  0.4826770000000  0.5176520000000  0.4270580000000 1.0
C      1  0.4826800000000  0.4279950000000  0.5211810000000 1.0
C      1  0.5159090000000  0.5423310000000  0.5022580000000 1.0
C      1  0.5158870000000  0.4807920000000  0.4622120000000 1.0
C      1  0.5158670000000  0.4768810000000  0.5355010000000 1.0
C      1  0.4612480000000  0.5360460000000  0.4384560000000 1.0
C      1  0.4612500000000  0.4286660000000  0.4995460000000 1.0
C      1  0.4612600000000  0.5352780000000  0.5619870000000 1.0
C      1  0.5161860000000  0.4820390000000  0.4929590000000 1.0
C      1  0.5161980000000  0.5028870000000  0.5190830000000 1.0
C      1  0.5161890000000  0.5150870000000  0.4879670000000 1.0
C      1  0.4895250000000  0.4624780000000  0.4352250000000 1.0
C      1  0.4895100000000  0.4626380000000  0.5648970000000 1.0
C      1  0.4895100000000  0.5748890000000  0.4998860000000 1.0
C      1  0.5168480000000  0.4831460000000  0.5661550000000 1.0
C      1  0.5168650000000  0.5657310000000  0.4814940000000 1.0
C      1  0.5168670000000  0.4511160000000  0.4523280000000 1.0
C      1  0.4691180000000  0.4959330000000  0.4682070000000 1.0
C      1  0.4691200000000  0.4744930000000  0.5194250000000 1.0
C      1  0.4691220000000  0.5295710000000  0.5123810000000 1.0
C      1  0.4377800000000  0.5286130000000  0.5434400000000 1.0
C      1  0.4377770000000  0.5233190000000  0.4535160000000 1.0
C      1  0.4377810000000  0.4480750000000  0.5030480000000 1.0
C      1  0.4882260000000  0.5107520000000  0.5285040000000 1.0
C      1  0.4882220000000  0.5193130000000  0.4764290000000 1.0
C      1  0.4882300000000  0.4699370000000  0.4950710000000 1.0
C      1  0.4757830000000  0.4314540000000  0.4740610000000 1.0
C      1  0.4757810000000  0.5118050000000  0.5723220000000 1.0
C      1  0.4757830000000  0.5567320000000  0.4536080000000 1.0
C      1  0.5602540000000  0.4824700000000  0.5384230000000 1.0
C      1  0.5602570000000  0.5420250000000  0.4959670000000 1.0
C      1  0.5602510000000  0.4755060000000  0.4656430000000 1.0
C      1  0.4408080000000  0.5165940000000  0.5133210000000 1.0
C      1  0.4408010000000  0.5032390000000  0.4789790000000 1.0
C      1  0.4408090000000  0.4801640000000  0.5077160000000 1.0
C      1  0.5072200000000  0.4310530000000  0.4761160000000 1.0
C      1  0.5072170000000  0.5137800000000  0.5716320000000 1.0
C      1  0.5072200000000  0.5551500000000  0.4522300000000 1.0
C      1  0.5103050000000  0.5412630000000  0.5542600000000 1.0
C      1  0.5103000000000  0.5263610000000  0.4371350000000 1.0
C      1  0.5103070000000  0.4323740000000  0.5085870000000 1.0
C      1  0.4756520000000  0.4615250000000  0.4669210000000 1.0
C      1  0.4756520000000  0.4905780000000  0.5498660000000 1.0
C      1  0.4756480000000  0.5478950000000  0.4832250000000 1.0
C      1  0.5276190000000  0.4520390000000  0.5239220000000 1.0
C      1  0.5276520000000  0.5447210000000  0.5295820000000 1.0
C      1  0.5276420000000  0.5032590000000  0.4464840000000 1.0
C      1  0.4749030000000  0.4500740000000  0.5390360000000 1.0
C      1  0.4749100000000  0.5587750000000  0.5237050000000 1.0
C      1  0.4749000000000  0.4911410000000  0.4372570000000 1.0
C      1  0.5457750000000  0.4720650000000  0.4917830000000 1.0
C      1  0.5457810000000  0.5068600000000  0.5283120000000 1.0
C      1  0.5457760000000  0.5210940000000  0.4799030000000 1.0
END
