TITL C-21448-1263-5 2.50174514712296e-07 125000 -231.212398112781 0 0 60 (Th) n - 1
REM
REM in /home/nfs/bkarasulu/CARBON/AIRSS/Generating-Clusters/TERSOFF/Higher-Symm/Only-C60
REM
REM
REM
REM
REM
REM ./C.cell (28575a23ae977d3b5fae324c64b13b57)
REM
REM compiler GCC version 9.2.1 20190827 (Red Hat 9.2.1-1)
REM options -cpp -mtune=generic -march=x86-64 -g -O0 -fpre-include=/usr/include/finclude/math-vector-fortran.h
REM seed 648083646 8993418 2123243567 392610459 2099599214 1531045038 615467824 897503298 -1512728281 -861023776 -745703273 1424838277 -1275796161 -632560032 -1105701690 1147101419 -976321995 888979522 1012031828 859516321 -2003599620 1446131271 1184555250 -1780314518 1176535745 1105004657 405472002 -1705959306 -532361102 1259139038 1442351007 -328121037 837287350
REM
CELL 1.54180   50.00000   50.00000   50.00000   90.00000   90.00000   90.00000
LATT -1
SFAC C  
C      1  0.5723010000000  0.5170810000000  0.5156430000000 1.0
C      1  0.5156430000000  0.5723010000000  0.5170810000000 1.0
C      1  0.5170810000000  0.5156430000000  0.5723010000000 1.0
C      1  0.4276990000000  0.4829190000000  0.5156430000000 1.0
C      1  0.4276990000000  0.5170810000000  0.4843570000000 1.0
C      1  0.5723010000000  0.4829190000000  0.4843570000000 1.0
C      1  0.4843570000000  0.4276990000000  0.5170810000000 1.0
C      1  0.4843570000000  0.5723010000000  0.4829190000000 1.0
C      1  0.5156430000000  0.4276990000000  0.4829190000000 1.0
C      1  0.4829190000000  0.4843570000000  0.5723010000000 1.0
C      1  0.4829190000000  0.5156430000000  0.4276990000000 1.0
C      1  0.5170810000000  0.4843570000000  0.4276990000000 1.0
C      1  0.5723010000000  0.5170810000000  0.4843570000000 1.0
C      1  0.5156430000000  0.5723010000000  0.4829190000000 1.0
C      1  0.5170810000000  0.5156430000000  0.4276990000000 1.0
C      1  0.4276990000000  0.4829190000000  0.4843570000000 1.0
C      1  0.4276990000000  0.5170810000000  0.5156430000000 1.0
C      1  0.5723010000000  0.4829190000000  0.5156430000000 1.0
C      1  0.4843570000000  0.4276990000000  0.4829190000000 1.0
C      1  0.4843570000000  0.5723010000000  0.5170810000000 1.0
C      1  0.5156430000000  0.4276990000000  0.5170810000000 1.0
C      1  0.4829190000000  0.4843570000000  0.4276990000000 1.0
C      1  0.4829190000000  0.5156430000000  0.5723010000000 1.0
C      1  0.5170810000000  0.4843570000000  0.5723010000000 1.0
C      1  0.5481900000000  0.5389830000000  0.4791810000000 1.0
C      1  0.4791810000000  0.5481900000000  0.5389830000000 1.0
C      1  0.5389830000000  0.4791810000000  0.5481900000000 1.0
C      1  0.4518100000000  0.4610170000000  0.4791810000000 1.0
C      1  0.4518100000000  0.5389830000000  0.5208190000000 1.0
C      1  0.5481900000000  0.4610170000000  0.5208190000000 1.0
C      1  0.5208190000000  0.4518100000000  0.5389830000000 1.0
C      1  0.5208190000000  0.5481900000000  0.4610170000000 1.0
C      1  0.4791810000000  0.4518100000000  0.4610170000000 1.0
C      1  0.4610170000000  0.5208190000000  0.5481900000000 1.0
C      1  0.4610170000000  0.4791810000000  0.4518100000000 1.0
C      1  0.5389830000000  0.5208190000000  0.4518100000000 1.0
C      1  0.5481900000000  0.5389830000000  0.5208190000000 1.0
C      1  0.4791810000000  0.5481900000000  0.4610170000000 1.0
C      1  0.5389830000000  0.4791810000000  0.4518100000000 1.0
C      1  0.4518100000000  0.4610170000000  0.5208190000000 1.0
C      1  0.4518100000000  0.5389830000000  0.4791810000000 1.0
C      1  0.5481900000000  0.4610170000000  0.4791810000000 1.0
C      1  0.5208190000000  0.4518100000000  0.4610170000000 1.0
C      1  0.5208190000000  0.5481900000000  0.5389830000000 1.0
C      1  0.4791810000000  0.4518100000000  0.5389830000000 1.0
C      1  0.4610170000000  0.5208190000000  0.4518100000000 1.0
C      1  0.4610170000000  0.4791810000000  0.5481900000000 1.0
C      1  0.5389830000000  0.5208190000000  0.5481900000000 1.0
C      1  0.5340940000000  0.5000000000000  0.5182220000000 1.0
C      1  0.5182220000000  0.5340940000000  0.5000000000000 1.0
C      1  0.5000000000000  0.5182220000000  0.5340940000000 1.0
C      1  0.4659060000000  0.5000000000000  0.5182220000000 1.0
C      1  0.4659060000000  0.5000000000000  0.4817780000000 1.0
C      1  0.5340940000000  0.5000000000000  0.4817780000000 1.0
C      1  0.4817780000000  0.4659060000000  0.5000000000000 1.0
C      1  0.4817780000000  0.5340940000000  0.5000000000000 1.0
C      1  0.5182220000000  0.4659060000000  0.5000000000000 1.0
C      1  0.5000000000000  0.4817780000000  0.5340940000000 1.0
C      1  0.5000000000000  0.5182220000000  0.4659060000000 1.0
C      1  0.5000000000000  0.4817780000000  0.4659060000000 1.0
END
