TITL C-21450-4084-11 -0.00304395765529413 125000 -303.723477701585 0 0 60 (C5) n - 1
REM
REM in /home/nfs/bkarasulu/CARBON/AIRSS/Generating-Clusters/TERSOFF/Higher-Symm/Only-C60
REM
REM
REM
REM
REM
REM ./C.cell (28575a23ae977d3b5fae324c64b13b57)
REM
REM compiler GCC version 9.2.1 20190827 (Red Hat 9.2.1-1)
REM options -cpp -mtune=generic -march=x86-64 -g -O0 -fpre-include=/usr/include/finclude/math-vector-fortran.h
REM seed 1612438564 -717518305 1944270914 600485275 537472563 1384865170 1249634303 1530097930 1712041202 -1099321225 -460706359 1861837704 714867556 -356793655 2012005303 70044601 1878311770 736800035 1554152500 -1369653457 -1223441167 -2000579979 1534447070 1616956881 -1383207827 522399484 -1175086765 -330635656 694151450 671018393 221035506 -1461247693 -665669592
REM
CELL 1.54180   50.00000   50.00000   50.00000   90.00000   90.00000   90.00000
LATT -1
SFAC C  
C      1  0.5303570000000  0.4879200000000  0.5023020000000 1.0
C      1  0.5115610000000  0.4879170000000  0.4718520000000 1.0
C      1  0.4767920000000  0.4879170000000  0.4802930000000 1.0
C      1  0.4740980000000  0.4879150000000  0.5159770000000 1.0
C      1  0.5071920000000  0.4879150000000  0.5295890000000 1.0
C      1  0.5528150000000  0.5038140000000  0.4784740000000 1.0
C      1  0.4958540000000  0.5038110000000  0.4431190000000 1.0
C      1  0.4446240000000  0.5038180000000  0.4863740000000 1.0
C      1  0.4699220000000  0.5038140000000  0.5484510000000 1.0
C      1  0.5367970000000  0.5038160000000  0.5435710000000 1.0
C      1  0.4845990000000  0.5276960000000  0.5625180000000 1.0
C      1  0.5546980000000  0.5276950000000  0.5339670000000 1.0
C      1  0.5492090000000  0.5276970000000  0.4584740000000 1.0
C      1  0.4757130000000  0.5276970000000  0.4403680000000 1.0
C      1  0.4357830000000  0.5276960000000  0.5046710000000 1.0
C      1  0.5588050000000  0.4804880000000  0.5437360000000 1.0
C      1  0.5597620000000  0.4804910000000  0.4575930000000 1.0
C      1  0.4781370000000  0.4804910000000  0.4300580000000 1.0
C      1  0.4267270000000  0.4804920000000  0.4991790000000 1.0
C      1  0.4765780000000  0.4804920000000  0.5694330000000 1.0
C      1  0.5005370000000  0.5452840000000  0.4474500000000 1.0
C      1  0.4501870000000  0.5452890000000  0.4832500000000 1.0
C      1  0.4686740000000  0.5452930000000  0.5422130000000 1.0
C      1  0.5304700000000  0.5452960000000  0.5428370000000 1.0
C      1  0.5501510000000  0.5452900000000  0.4842640000000 1.0
C      1  0.5150080000000  0.5596860000000  0.5214990000000 1.0
C      1  0.5250860000000  0.5597060000000  0.4923620000000 1.0
C      1  0.5004840000000  0.5597180000000  0.4737800000000 1.0
C      1  0.4752130000000  0.5597160000000  0.4914360000000 1.0
C      1  0.4841920000000  0.5596970000000  0.5209210000000 1.0
C      1  0.4560820000000  0.4445180000000  0.4844890000000 1.0
C      1  0.4716700000000  0.4445010000000  0.5369720000000 1.0
C      1  0.5264120000000  0.4445160000000  0.5383620000000 1.0
C      1  0.5446450000000  0.4445170000000  0.4867410000000 1.0
C      1  0.5011790000000  0.4445140000000  0.4534430000000 1.0
C      1  0.4995240000000  0.4576920000000  0.5392880000000 1.0
C      1  0.5372300000000  0.4577060000000  0.5125890000000 1.0
C      1  0.5234760000000  0.4577010000000  0.4684920000000 1.0
C      1  0.4772850000000  0.4577030000000  0.4679360000000 1.0
C      1  0.4624830000000  0.4576980000000  0.5116940000000 1.0
C      1  0.5331780000000  0.4860920000000  0.4359360000000 1.0
C      1  0.4493350000000  0.4860910000000  0.4486560000000 1.0
C      1  0.4355050000000  0.4860910000000  0.5323280000000 1.0
C      1  0.5108070000000  0.4860850000000  0.5713210000000 1.0
C      1  0.5711770000000  0.4860920000000  0.5117570000000 1.0
C      1  0.5149820000000  0.5214240000000  0.5650550000000 1.0
C      1  0.5664990000000  0.5214250000000  0.5058570000000 1.0
C      1  0.5261190000000  0.5214220000000  0.4385650000000 1.0
C      1  0.4496420000000  0.5214230000000  0.4561750000000 1.0
C      1  0.4427580000000  0.5214250000000  0.5343510000000 1.0
C      1  0.5019480000000  0.5200180000000  0.5252060000000 1.0
C      1  0.5245800000000  0.5200040000000  0.5059380000000 1.0
C      1  0.5132430000000  0.5199980000000  0.4784480000000 1.0
C      1  0.4835980000000  0.5199990000000  0.4807450000000 1.0
C      1  0.4766270000000  0.5200080000000  0.5096420000000 1.0
C      1  0.5350530000000  0.4653610000000  0.5602950000000 1.0
C      1  0.5681690000000  0.4653540000000  0.4852980000000 1.0
C      1  0.5070830000000  0.4653560000000  0.4306220000000 1.0
C      1  0.4362000000000  0.4653490000000  0.4718200000000 1.0
C      1  0.4534880000000  0.4653530000000  0.5519690000000 1.0
END
