TITL C-21447-2359-14 4.60595761161374e-07 125000 -324.126172088971 0 0 60 (C3) n - 1
REM
REM in /home/nfs/bkarasulu/CARBON/AIRSS/Generating-Clusters/TERSOFF/Higher-Symm/Only-C60
REM
REM
REM
REM
REM
REM ./C.cell (28575a23ae977d3b5fae324c64b13b57)
REM
REM compiler GCC version 9.2.1 20190827 (Red Hat 9.2.1-1)
REM options -cpp -mtune=generic -march=x86-64 -g -O0 -fpre-include=/usr/include/finclude/math-vector-fortran.h
REM seed 1072817238 -1144650543 -1851070147 867522344 1192861147 729158963 1121743757 1471427861 -2044800522 593058575 -1482453319 -1695212172 -1714577074 -755639249 -1348775620 1974467326 1389961351 1686427192 -171460622 -1310404099 -26423114 -1160708463 282314871 1526873998 395187474 -586360879 2130748154 2077276329 1018125312 1750204371 -1228555922 1526142196 773894556
REM
CELL 1.54180   50.00000   50.00000   50.00000   90.00000   90.00000   90.00000
LATT -1
SFAC C  
C      1  0.5459930000000  0.5613150000000  0.5157340000000 1.0
C      1  0.5459930000000  0.4557160000000  0.5452330000000 1.0
C      1  0.5459940000000  0.4829680000000  0.4390340000000 1.0
C      1  0.5459930000000  0.5613150000000  0.4842660000000 1.0
C      1  0.5459930000000  0.4557160000000  0.4547670000000 1.0
C      1  0.5459940000000  0.4829680000000  0.5609660000000 1.0
C      1  0.5481780000000  0.4705530000000  0.4835240000000 1.0
C      1  0.5481760000000  0.5289920000000  0.4827360000000 1.0
C      1  0.5481790000000  0.5004560000000  0.5337400000000 1.0
C      1  0.5481780000000  0.4705530000000  0.5164760000000 1.0
C      1  0.5481760000000  0.5289920000000  0.5172640000000 1.0
C      1  0.5481800000000  0.5004560000000  0.4662600000000 1.0
C      1  0.4751120000000  0.4942660000000  0.5673720000000 1.0
C      1  0.4751110000000  0.4445220000000  0.4613480000000 1.0
C      1  0.4751100000000  0.5612130000000  0.4712800000000 1.0
C      1  0.4751120000000  0.4942660000000  0.4326280000000 1.0
C      1  0.4751110000000  0.4445220000000  0.5386520000000 1.0
C      1  0.4751100000000  0.5612130000000  0.5287200000000 1.0
C      1  0.4501550000000  0.5544640000000  0.5156500000000 1.0
C      1  0.4501560000000  0.4592160000000  0.5393420000000 1.0
C      1  0.4501560000000  0.4863220000000  0.4450080000000 1.0
C      1  0.4501550000000  0.5544640000000  0.4843500000000 1.0
C      1  0.4501560000000  0.4592160000000  0.4606580000000 1.0
C      1  0.4501560000000  0.4863220000000  0.5549920000000 1.0
C      1  0.4338900000000  0.5005780000000  0.5309490000000 1.0
C      1  0.4338900000000  0.4729090000000  0.4850260000000 1.0
C      1  0.4338890000000  0.5265140000000  0.4840250000000 1.0
C      1  0.4338900000000  0.5005780000000  0.4690510000000 1.0
C      1  0.4338900000000  0.4729090000000  0.5149740000000 1.0
C      1  0.4338890000000  0.5265140000000  0.5159750000000 1.0
C      1  0.4974280000000  0.4742320000000  0.4252200000000 1.0
C      1  0.4974270000000  0.5776460000000  0.5150750000000 1.0
C      1  0.4974280000000  0.4481220000000  0.5597050000000 1.0
C      1  0.4974280000000  0.4742320000000  0.5747800000000 1.0
C      1  0.4974270000000  0.5776460000000  0.4849250000000 1.0
C      1  0.4974280000000  0.4481220000000  0.4402950000000 1.0
C      1  0.4951200000000  0.4460440000000  0.5161830000000 1.0
C      1  0.4951210000000  0.5129640000000  0.4451810000000 1.0
C      1  0.4951190000000  0.5409930000000  0.5386360000000 1.0
C      1  0.4951200000000  0.4460440000000  0.4838170000000 1.0
C      1  0.4951210000000  0.5129640000000  0.5548190000000 1.0
C      1  0.4951190000000  0.5409930000000  0.4613640000000 1.0
C      1  0.5172780000000  0.5546130000000  0.5585910000000 1.0
C      1  0.5172770000000  0.4219520000000  0.5180010000000 1.0
C      1  0.5172790000000  0.5234340000000  0.4234080000000 1.0
C      1  0.5172780000000  0.5546130000000  0.4414090000000 1.0
C      1  0.5172770000000  0.4219520000000  0.4819990000000 1.0
C      1  0.5172790000000  0.5234340000000  0.5765920000000 1.0
C      1  0.5138270000000  0.4728690000000  0.4841670000000 1.0
C      1  0.5138260000000  0.5272770000000  0.4844210000000 1.0
C      1  0.5138280000000  0.4998530000000  0.5314130000000 1.0
C      1  0.5138270000000  0.4728690000000  0.5158330000000 1.0
C      1  0.5138260000000  0.5272770000000  0.5155790000000 1.0
C      1  0.5138280000000  0.4998530000000  0.4685870000000 1.0
C      1  0.5230200000000  0.4375240000000  0.5463980000000 1.0
C      1  0.5230210000000  0.4910550000000  0.4226960000000 1.0
C      1  0.5230200000000  0.5714200000000  0.5309060000000 1.0
C      1  0.5230200000000  0.4375240000000  0.4536020000000 1.0
C      1  0.5230210000000  0.4910550000000  0.5773040000000 1.0
C      1  0.5230200000000  0.5714200000000  0.4690940000000 1.0
END
