TITL C-21447-2359-18 7.26122728113251e-08 125000 -316.214566281581 0 0 60 (D2h) n - 1
REM
REM in /home/nfs/bkarasulu/CARBON/AIRSS/Generating-Clusters/TERSOFF/Higher-Symm/Only-C60
REM
REM
REM
REM
REM
REM ./C.cell (28575a23ae977d3b5fae324c64b13b57)
REM
REM compiler GCC version 9.2.1 20190827 (Red Hat 9.2.1-1)
REM options -cpp -mtune=generic -march=x86-64 -g -O0 -fpre-include=/usr/include/finclude/math-vector-fortran.h
REM seed -705939535 48100024 747143972 -323108286 1237697197 -1534102253 -1455551102 -598393566 1108765709 2091950015 579223205 -939233868 -1099275541 625202606 1281079231 915229099 -677151487 2069550713 -2056685729 13012596 1037987360 682372007 1357840201 709546506 -148115388 1983763462 -2145919468 1766613820 -321787622 -1442881538 322434713 -993073649 -1843411251
REM
CELL 1.54180   50.00000   50.00000   50.00000   90.00000   90.00000   90.00000
LATT -1
SFAC C  
C      1  0.5180360000000  0.4751050000000  0.4819120000000 1.0
C      1  0.5180360000000  0.5248950000000  0.5180880000000 1.0
C      1  0.4819640000000  0.4751050000000  0.4819120000000 1.0
C      1  0.4819640000000  0.5248950000000  0.5180880000000 1.0
C      1  0.5180360000000  0.4751050000000  0.5180880000000 1.0
C      1  0.5180360000000  0.5248950000000  0.4819120000000 1.0
C      1  0.4819640000000  0.4751050000000  0.5180880000000 1.0
C      1  0.4819640000000  0.5248950000000  0.4819120000000 1.0
C      1  0.4743430000000  0.5504940000000  0.4404610000000 1.0
C      1  0.4743430000000  0.4495060000000  0.5595390000000 1.0
C      1  0.5256570000000  0.5504940000000  0.4404610000000 1.0
C      1  0.5256570000000  0.4495060000000  0.5595390000000 1.0
C      1  0.4743430000000  0.5504940000000  0.5595390000000 1.0
C      1  0.4743430000000  0.4495060000000  0.4404610000000 1.0
C      1  0.5256570000000  0.5504940000000  0.5595390000000 1.0
C      1  0.5256570000000  0.4495060000000  0.4404610000000 1.0
C      1  0.4783730000000  0.4463290000000  0.5306940000000 1.0
C      1  0.4783730000000  0.5536710000000  0.4693060000000 1.0
C      1  0.5216270000000  0.4463290000000  0.5306940000000 1.0
C      1  0.5216270000000  0.5536710000000  0.4693060000000 1.0
C      1  0.4783730000000  0.4463290000000  0.4693060000000 1.0
C      1  0.4783730000000  0.5536710000000  0.5306940000000 1.0
C      1  0.5216270000000  0.4463290000000  0.4693060000000 1.0
C      1  0.5216270000000  0.5536710000000  0.5306940000000 1.0
C      1  0.4717290000000  0.5769960000000  0.5145870000000 1.0
C      1  0.4717290000000  0.4230040000000  0.4854130000000 1.0
C      1  0.5282710000000  0.5769960000000  0.5145870000000 1.0
C      1  0.5282710000000  0.4230040000000  0.4854130000000 1.0
C      1  0.4717290000000  0.5769960000000  0.4854130000000 1.0
C      1  0.4717290000000  0.4230040000000  0.5145870000000 1.0
C      1  0.5282710000000  0.5769960000000  0.4854130000000 1.0
C      1  0.5282710000000  0.4230040000000  0.5145870000000 1.0
C      1  0.5517800000000  0.4709070000000  0.5149460000000 1.0
C      1  0.5517800000000  0.5290930000000  0.4850540000000 1.0
C      1  0.4482200000000  0.4709070000000  0.5149460000000 1.0
C      1  0.4482200000000  0.5290930000000  0.4850540000000 1.0
C      1  0.5517800000000  0.4709070000000  0.4850540000000 1.0
C      1  0.5517800000000  0.5290930000000  0.5149460000000 1.0
C      1  0.4482200000000  0.4709070000000  0.4850540000000 1.0
C      1  0.4482200000000  0.5290930000000  0.5149460000000 1.0
C      1  0.5149300000000  0.5232450000000  0.5658110000000 1.0
C      1  0.5149300000000  0.4767550000000  0.4341890000000 1.0
C      1  0.4850700000000  0.5232450000000  0.5658110000000 1.0
C      1  0.4850700000000  0.4767550000000  0.4341890000000 1.0
C      1  0.5149300000000  0.5232450000000  0.4341890000000 1.0
C      1  0.5149300000000  0.4767550000000  0.5658110000000 1.0
C      1  0.4850700000000  0.5232450000000  0.4341890000000 1.0
C      1  0.4850700000000  0.4767550000000  0.5658110000000 1.0
C      1  0.5707500000000  0.5142280000000  0.4694430000000 1.0
C      1  0.5707500000000  0.4857720000000  0.5305570000000 1.0
C      1  0.4292500000000  0.5142280000000  0.4694430000000 1.0
C      1  0.4292500000000  0.4857720000000  0.5305570000000 1.0
C      1  0.5707500000000  0.5142280000000  0.5305570000000 1.0
C      1  0.5707500000000  0.4857720000000  0.4694430000000 1.0
C      1  0.4292500000000  0.5142280000000  0.5305570000000 1.0
C      1  0.4292500000000  0.4857720000000  0.4694430000000 1.0
C      1  0.4760340000000  0.5000000000000  0.5436300000000 1.0
C      1  0.5239660000000  0.5000000000000  0.4563700000000 1.0
C      1  0.5239660000000  0.5000000000000  0.5436300000000 1.0
C      1  0.4760340000000  0.5000000000000  0.4563700000000 1.0
END
