TITL C-21454-5660-21 -8.05973038005628e-07 125000 -326.707969907153 0 0 60 (C4) n - 1
REM
REM in /home/nfs/bkarasulu/CARBON/AIRSS/Generating-Clusters/TERSOFF/Higher-Symm/Only-C60
REM
REM
REM
REM
REM
REM ./C.cell (28575a23ae977d3b5fae324c64b13b57)
REM
REM compiler GCC version 9.2.1 20190827 (Red Hat 9.2.1-1)
REM options -cpp -mtune=generic -march=x86-64 -g -O0 -fpre-include=/usr/include/finclude/math-vector-fortran.h
REM seed -2143372273 1552288379 716794421 -259248087 -1137100523 239551546 1551273856 -2022423765 -1427712038 -508157065 -185566865 1735868019 1422816831 1378834902 361557934 1147704523 -326139325 185678126 -1394803181 -1758564758 392380248 -1279669204 -258198467 -292571134 1541096195 1577442328 1935763674 1364024521 -1579539016 -300458573 2081205504 -612063864 -64037216
REM
CELL 1.54180   50.00000   50.00000   50.00000   90.00000   90.00000   90.00000
LATT -1
SFAC C  
C      1  0.4581690000000  0.5241010000000  0.5487060000000 1.0
C      1  0.5487060000000  0.5241010000000  0.5418310000000 1.0
C      1  0.5418310000000  0.5241010000000  0.4512940000000 1.0
C      1  0.4512940000000  0.5241010000000  0.4581690000000 1.0
C      1  0.5228440000000  0.5727880000000  0.4982990000000 1.0
C      1  0.4982990000000  0.5727880000000  0.4771560000000 1.0
C      1  0.4771560000000  0.5727880000000  0.5017010000000 1.0
C      1  0.5017010000000  0.5727880000000  0.5228440000000 1.0
C      1  0.4357880000000  0.4528060000000  0.4932760000000 1.0
C      1  0.4932760000000  0.4528060000000  0.5642120000000 1.0
C      1  0.5642120000000  0.4528060000000  0.5067240000000 1.0
C      1  0.5067240000000  0.4528060000000  0.4357880000000 1.0
C      1  0.5355180000000  0.5447410000000  0.4970740000000 1.0
C      1  0.4970740000000  0.5447410000000  0.4644820000000 1.0
C      1  0.4644820000000  0.5447410000000  0.5029260000000 1.0
C      1  0.5029260000000  0.5447410000000  0.5355180000000 1.0
C      1  0.5706720000000  0.4968620000000  0.4883770000000 1.0
C      1  0.4883770000000  0.4968620000000  0.4293280000000 1.0
C      1  0.4293280000000  0.4968620000000  0.5116230000000 1.0
C      1  0.5116230000000  0.4968620000000  0.5706720000000 1.0
C      1  0.5708240000000  0.5099860000000  0.5201700000000 1.0
C      1  0.5201700000000  0.5099860000000  0.4291760000000 1.0
C      1  0.4291760000000  0.5099860000000  0.4798300000000 1.0
C      1  0.4798300000000  0.5099860000000  0.5708240000000 1.0
C      1  0.5251490000000  0.4773380000000  0.4396600000000 1.0
C      1  0.4396600000000  0.4773380000000  0.4748510000000 1.0
C      1  0.4748510000000  0.4773380000000  0.5603400000000 1.0
C      1  0.5603400000000  0.4773380000000  0.5251490000000 1.0
C      1  0.4779810000000  0.5012140000000  0.4945600000000 1.0
C      1  0.4945600000000  0.5012140000000  0.5220190000000 1.0
C      1  0.5220190000000  0.5012140000000  0.5054400000000 1.0
C      1  0.5054400000000  0.5012140000000  0.4779810000000 1.0
C      1  0.4731560000000  0.5296700000000  0.4783080000000 1.0
C      1  0.4783080000000  0.5296700000000  0.5268440000000 1.0
C      1  0.5268440000000  0.5296700000000  0.5216920000000 1.0
C      1  0.5216920000000  0.5296700000000  0.4731560000000 1.0
C      1  0.4753430000000  0.4420660000000  0.4725130000000 1.0
C      1  0.4725130000000  0.4420660000000  0.5246570000000 1.0
C      1  0.5246570000000  0.4420660000000  0.5274870000000 1.0
C      1  0.5274870000000  0.4420660000000  0.4753430000000 1.0
C      1  0.5390500000000  0.4341340000000  0.5016530000000 1.0
C      1  0.5016530000000  0.4341340000000  0.4609500000000 1.0
C      1  0.4609500000000  0.4341340000000  0.4983470000000 1.0
C      1  0.4983470000000  0.4341340000000  0.5390500000000 1.0
C      1  0.4643300000000  0.4685750000000  0.5330500000000 1.0
C      1  0.5330500000000  0.4685750000000  0.5356700000000 1.0
C      1  0.5356700000000  0.4685750000000  0.4669500000000 1.0
C      1  0.4669500000000  0.4685750000000  0.4643300000000 1.0
C      1  0.5031310000000  0.5375180000000  0.5655250000000 1.0
C      1  0.5655250000000  0.5375180000000  0.4968690000000 1.0
C      1  0.4968690000000  0.5375180000000  0.4344750000000 1.0
C      1  0.4344750000000  0.5375180000000  0.5031310000000 1.0
C      1  0.5122250000000  0.4866350000000  0.5435870000000 1.0
C      1  0.5435870000000  0.4866350000000  0.4877750000000 1.0
C      1  0.4877750000000  0.4866350000000  0.4564130000000 1.0
C      1  0.4564130000000  0.4866350000000  0.5122250000000 1.0
C      1  0.5319810000000  0.5215650000000  0.5691860000000 1.0
C      1  0.5691860000000  0.5215650000000  0.4680190000000 1.0
C      1  0.4680190000000  0.5215650000000  0.4308140000000 1.0
C      1  0.4308140000000  0.5215650000000  0.5319810000000 1.0
END
