TITL C-21443-6457-47 0.00625353039316846 125000 -332.817380962295 0 0 60 (C1) n - 1
REM
REM in /home/nfs/bkarasulu/CARBON/AIRSS/Generating-Clusters/TERSOFF/Higher-Symm/Only-C60
REM
REM
REM
REM
REM
REM ./C.cell (28575a23ae977d3b5fae324c64b13b57)
REM
REM compiler GCC version 9.2.1 20190827 (Red Hat 9.2.1-1)
REM options -cpp -mtune=generic -march=x86-64 -g -O0 -fpre-include=/usr/include/finclude/math-vector-fortran.h
REM seed 1401583338 -2055594718 1496954011 -1059816251 -1377577258 -1904228609 983318628 -1849964821 716870497 1731739962 963400140 -1903567740 -1171322341 -1139685233 -1942860427 -1471456300 1302015497 -674927245 -1119434754 -1555565523 1602873219 898586639 376654789 -1787349728 -1658302804 -515998986 427521725 -1974571581 -180604476 1730117850 -1472689174 -1729787697 2086885369
REM
CELL 1.54180   50.00000   50.00000   50.00000   90.00000   90.00000   90.00000
LATT -1
SFAC C  
C      1  0.5316060000000  0.5699060000000  0.4731710000000 1.0
C      1  0.4498110000000  0.5503700000000  0.4905360000000 1.0
C      1  0.5488140000000  0.5517860000000  0.5194890000000 1.0
C      1  0.4802290000000  0.5243710000000  0.4264640000000 1.0
C      1  0.4646020000000  0.4796780000000  0.4430920000000 1.0
C      1  0.4979910000000  0.4946020000000  0.5788370000000 1.0
C      1  0.4525120000000  0.4443990000000  0.4801510000000 1.0
C      1  0.5214270000000  0.5125970000000  0.5831130000000 1.0
C      1  0.4907040000000  0.4612560000000  0.4819390000000 1.0
C      1  0.4759400000000  0.5639820000000  0.4846500000000 1.0
C      1  0.5320130000000  0.5323640000000  0.4295940000000 1.0
C      1  0.4490020000000  0.5053210000000  0.5644790000000 1.0
C      1  0.4409490000000  0.5246010000000  0.4781690000000 1.0
C      1  0.4767150000000  0.5547620000000  0.5311310000000 1.0
C      1  0.4947250000000  0.4908410000000  0.4746870000000 1.0
C      1  0.4828060000000  0.5235260000000  0.4758650000000 1.0
C      1  0.5560510000000  0.4679000000000  0.5150660000000 1.0
C      1  0.5265660000000  0.5665730000000  0.5023740000000 1.0
C      1  0.5473390000000  0.4922430000000  0.4547460000000 1.0
C      1  0.5468510000000  0.5491230000000  0.5488430000000 1.0
C      1  0.5229790000000  0.4392520000000  0.5433870000000 1.0
C      1  0.4768880000000  0.4831080000000  0.5290280000000 1.0
C      1  0.5139400000000  0.5226510000000  0.5348110000000 1.0
C      1  0.5092520000000  0.4307750000000  0.4600900000000 1.0
C      1  0.5149600000000  0.5279540000000  0.4747180000000 1.0
C      1  0.4767820000000  0.5128550000000  0.5662070000000 1.0
C      1  0.4481820000000  0.5520710000000  0.5200450000000 1.0
C      1  0.4765320000000  0.4362820000000  0.5268580000000 1.0
C      1  0.4519970000000  0.4944050000000  0.5184810000000 1.0
C      1  0.4469770000000  0.4972650000000  0.4892770000000 1.0
C      1  0.5048490000000  0.4622050000000  0.5643540000000 1.0
C      1  0.4524130000000  0.4741370000000  0.4705840000000 1.0
C      1  0.4580560000000  0.5053740000000  0.4297140000000 1.0
C      1  0.4776040000000  0.4590900000000  0.5457940000000 1.0
C      1  0.5041040000000  0.4939010000000  0.5243870000000 1.0
C      1  0.5642390000000  0.4965210000000  0.5245290000000 1.0
C      1  0.4766460000000  0.4360660000000  0.4617680000000 1.0
C      1  0.5067930000000  0.5086140000000  0.4254070000000 1.0
C      1  0.4288830000000  0.5352640000000  0.5329190000000 1.0
C      1  0.5186360000000  0.5027710000000  0.4561510000000 1.0
C      1  0.4952310000000  0.5668430000000  0.5080740000000 1.0
C      1  0.5154280000000  0.4427500000000  0.4926590000000 1.0
C      1  0.4354260000000  0.5080200000000  0.5390040000000 1.0
C      1  0.5188440000000  0.5515650000000  0.4524400000000 1.0
C      1  0.4887760000000  0.5324870000000  0.5458800000000 1.0
C      1  0.5557380000000  0.5159480000000  0.4378840000000 1.0
C      1  0.5338520000000  0.4676430000000  0.4958250000000 1.0
C      1  0.4530650000000  0.4342870000000  0.5081820000000 1.0
C      1  0.5276370000000  0.5202500000000  0.5016920000000 1.0
C      1  0.5056290000000  0.4308700000000  0.5193420000000 1.0
C      1  0.5360870000000  0.5225360000000  0.5587280000000 1.0
C      1  0.4959520000000  0.4754490000000  0.4338160000000 1.0
C      1  0.5172170000000  0.4541810000000  0.4422410000000 1.0
C      1  0.5476810000000  0.4959940000000  0.5495590000000 1.0
C      1  0.5160980000000  0.4912170000000  0.4970230000000 1.0
C      1  0.5443390000000  0.4648260000000  0.4452620000000 1.0
C      1  0.5579580000000  0.5224160000000  0.5072120000000 1.0
C      1  0.5218690000000  0.4811570000000  0.5445390000000 1.0
C      1  0.4851020000000  0.5431290000000  0.4494800000000 1.0
C      1  0.5507060000000  0.4476720000000  0.5362510000000 1.0
END
