TITL C-21439-636-39 -0.00052055418869191 125000 -280.684849174926 0 0 60 (C5) n - 1
REM
REM in /home/nfs/bkarasulu/CARBON/AIRSS/Generating-Clusters/TERSOFF/Higher-Symm/Only-C60
REM
REM
REM
REM
REM
REM ./C.cell (28575a23ae977d3b5fae324c64b13b57)
REM
REM compiler GCC version 9.2.1 20190827 (Red Hat 9.2.1-1)
REM options -cpp -mtune=generic -march=x86-64 -g -O0 -fpre-include=/usr/include/finclude/math-vector-fortran.h
REM seed -918625574 -913274095 227501923 -59980130 -1174562999 1197184107 -1464554688 1313273393 -528920273 1996612123 -907329764 620243276 -596527612 749209859 -1517792838 255342988 -1925575444 -346922666 -976731333 -1405698442 1148911247 -1818821015 2119067285 1012649879 -1687012480 925553318 1548680242 291803920 1435803171 1905835048 -1208460962 936017933 -177366358
REM
CELL 1.54180   50.00000   50.00000   50.00000   90.00000   90.00000   90.00000
LATT -1
SFAC C  
C      1  0.4355240000000  0.5233600000000  0.4886310000000 1.0
C      1  0.4579680000000  0.4457430000000  0.4885700000000 1.0
C      1  0.5385560000000  0.4433480000000  0.4885570000000 1.0
C      1  0.5658110000000  0.5191560000000  0.4884570000000 1.0
C      1  0.5020830000000  0.5685220000000  0.4885380000000 1.0
C      1  0.4805720000000  0.4422480000000  0.5103120000000 1.0
C      1  0.5489460000000  0.4637230000000  0.5102370000000 1.0
C      1  0.5496700000000  0.5353050000000  0.5102840000000 1.0
C      1  0.4817230000000  0.5580780000000  0.5102830000000 1.0
C      1  0.4391140000000  0.5005970000000  0.5102670000000 1.0
C      1  0.5211020000000  0.5203020000000  0.5014990000000 1.0
C      1  0.4872420000000  0.5263450000000  0.5014860000000 1.0
C      1  0.4709040000000  0.4958630000000  0.5014660000000 1.0
C      1  0.4948210000000  0.4711310000000  0.5014380000000 1.0
C      1  0.5257700000000  0.4861170000000  0.5016260000000 1.0
C      1  0.5452210000000  0.5518500000000  0.4672230000000 1.0
C      1  0.4647170000000  0.5590760000000  0.4671070000000 1.0
C      1  0.4329080000000  0.4846230000000  0.4671070000000 1.0
C      1  0.4938580000000  0.4314610000000  0.4672630000000 1.0
C      1  0.5632700000000  0.4729740000000  0.4670740000000 1.0
C      1  0.4818070000000  0.4806670000000  0.4195340000000 1.0
C      1  0.5127970000000  0.4768640000000  0.4196230000000 1.0
C      1  0.5259780000000  0.5048720000000  0.4195790000000 1.0
C      1  0.5032640000000  0.5262630000000  0.4196620000000 1.0
C      1  0.4761310000000  0.5112710000000  0.4195710000000 1.0
C      1  0.5283180000000  0.5099430000000  0.5359560000000 1.0
C      1  0.4993730000000  0.5299730000000  0.5359740000000 1.0
C      1  0.4713240000000  0.5086290000000  0.5359360000000 1.0
C      1  0.4829300000000  0.4754100000000  0.5359290000000 1.0
C      1  0.5181360000000  0.4761560000000  0.5358740000000 1.0
C      1  0.4347480000000  0.5123670000000  0.4571380000000 1.0
C      1  0.4680710000000  0.4417610000000  0.4571100000000 1.0
C      1  0.5456880000000  0.4513990000000  0.4571940000000 1.0
C      1  0.5604660000000  0.5284920000000  0.4571820000000 1.0
C      1  0.4916260000000  0.5661750000000  0.4573050000000 1.0
C      1  0.5014560000000  0.5311580000000  0.4525920000000 1.0
C      1  0.4707950000000  0.5111230000000  0.4527200000000 1.0
C      1  0.4802100000000  0.4756870000000  0.4526700000000 1.0
C      1  0.5170730000000  0.4736650000000  0.4526070000000 1.0
C      1  0.5299340000000  0.5080270000000  0.4525590000000 1.0
C      1  0.5094390000000  0.4548160000000  0.5609150000000 1.0
C      1  0.5458760000000  0.4949990000000  0.5609130000000 1.0
C      1  0.5189210000000  0.5421690000000  0.5609510000000 1.0
C      1  0.4657820000000  0.5309950000000  0.5609240000000 1.0
C      1  0.4599210000000  0.4770350000000  0.5609110000000 1.0
C      1  0.4834560000000  0.4416500000000  0.5431670000000 1.0
C      1  0.5504450000000  0.4662250000000  0.5431870000000 1.0
C      1  0.5477170000000  0.5375210000000  0.5432020000000 1.0
C      1  0.4790980000000  0.5569590000000  0.5431940000000 1.0
C      1  0.4393530000000  0.4977070000000  0.5430890000000 1.0
C      1  0.5050800000000  0.4745100000000  0.5838810000000 1.0
C      1  0.5257990000000  0.4969580000000  0.5838630000000 1.0
C      1  0.5108650000000  0.5236200000000  0.5838720000000 1.0
C      1  0.4808990000000  0.5176410000000  0.5838760000000 1.0
C      1  0.4773220000000  0.4872950000000  0.5838550000000 1.0
C      1  0.5481250000000  0.4949130000000  0.4791930000000 1.0
C      1  0.5196840000000  0.5442420000000  0.4791590000000 1.0
C      1  0.4641250000000  0.5324890000000  0.4793150000000 1.0
C      1  0.4581500000000  0.4758770000000  0.4791970000000 1.0
C      1  0.5100370000000  0.4526570000000  0.4791960000000 1.0
END
