TITL C-21441-2359-30 -0.00542899913865264 125000 -354.936692119878 0 0 60 (C5) n - 1
REM
REM in /home/nfs/bkarasulu/CARBON/AIRSS/Generating-Clusters/TERSOFF/Higher-Symm/Only-C60
REM
REM
REM
REM
REM
REM ./C.cell (28575a23ae977d3b5fae324c64b13b57)
REM
REM compiler GCC version 9.2.1 20190827 (Red Hat 9.2.1-1)
REM options -cpp -mtune=generic -march=x86-64 -g -O0 -fpre-include=/usr/include/finclude/math-vector-fortran.h
REM seed -1562114737 137911480 -897675934 1022969395 628021757 -1669885775 -2087008480 1675747421 1382358516 1201190736 -1750865088 -1569982711 -557150261 306380369 -333413000 -1350621927 -1586511297 -1145155915 -616827974 920459290 -1269972512 2115104327 1849421536 1512388469 792978034 -690090369 -1960241086 -1479428331 -1923977204 -493730113 -316651513 -722325588 564256780
REM
CELL 1.54180   50.00000   50.00000   50.00000   90.00000   90.00000   90.00000
LATT -1
SFAC C  
C      1  0.5284480000000  0.4478280000000  0.4535560000000 1.0
C      1  0.4646140000000  0.4478150000000  0.4585990000000 1.0
C      1  0.4497000000000  0.4478410000000  0.5208110000000 1.0
C      1  0.5042970000000  0.4478340000000  0.5543510000000 1.0
C      1  0.5529370000000  0.4478540000000  0.5126860000000 1.0
C      1  0.5262410000000  0.4330560000000  0.5059180000000 1.0
C      1  0.5137400000000  0.4330500000000  0.4768710000000 1.0
C      1  0.4822040000000  0.4330090000000  0.4798050000000 1.0
C      1  0.4753190000000  0.4328860000000  0.5107320000000 1.0
C      1  0.5024930000000  0.4330320000000  0.5267230000000 1.0
C      1  0.4500410000000  0.5514080000000  0.5116330000000 1.0
C      1  0.4956240000000  0.5514160000000  0.5511310000000 1.0
C      1  0.5472730000000  0.5514120000000  0.5199600000000 1.0
C      1  0.5335920000000  0.5514110000000  0.4612070000000 1.0
C      1  0.4734830000000  0.5514150000000  0.4560670000000 1.0
C      1  0.4802800000000  0.4695340000000  0.5551760000000 1.0
C      1  0.5463110000000  0.4695960000000  0.5358770000000 1.0
C      1  0.5484170000000  0.4695750000000  0.4670030000000 1.0
C      1  0.4836000000000  0.4695850000000  0.4437510000000 1.0
C      1  0.4414420000000  0.4695800000000  0.4982540000000 1.0
C      1  0.4501190000000  0.5034770000000  0.5298000000000 1.0
C      1  0.5129230000000  0.5035170000000  0.5566410000000 1.0
C      1  0.5578780000000  0.5035250000000  0.5052210000000 1.0
C      1  0.5228350000000  0.5035280000000  0.4465650000000 1.0
C      1  0.4562560000000  0.5035550000000  0.4617670000000 1.0
C      1  0.4749390000000  0.5664900000000  0.5060540000000 1.0
C      1  0.4980170000000  0.5664840000000  0.5257010000000 1.0
C      1  0.5238320000000  0.5664880000000  0.5098280000000 1.0
C      1  0.5167080000000  0.5664840000000  0.4803730000000 1.0
C      1  0.4864920000000  0.5664800000000  0.4780470000000 1.0
C      1  0.4533700000000  0.4717240000000  0.5419480000000 1.0
C      1  0.5255740000000  0.4716690000000  0.5573740000000 1.0
C      1  0.5624350000000  0.4716750000000  0.4934130000000 1.0
C      1  0.5130410000000  0.4716730000000  0.4385370000000 1.0
C      1  0.4455750000000  0.4716790000000  0.4685700000000 1.0
C      1  0.5102100000000  0.5125340000000  0.4757040000000 1.0
C      1  0.4800940000000  0.5124760000000  0.4829480000000 1.0
C      1  0.4775170000000  0.5126020000000  0.5136930000000 1.0
C      1  0.5060450000000  0.5125300000000  0.5256610000000 1.0
C      1  0.5262660000000  0.5125010000000  0.5021950000000 1.0
C      1  0.4746210000000  0.4734560000000  0.4988250000000 1.0
C      1  0.4911660000000  0.4733450000000  0.5237400000000 1.0
C      1  0.5197820000000  0.4733500000000  0.5158210000000 1.0
C      1  0.5211480000000  0.4733420000000  0.4860210000000 1.0
C      1  0.4932980000000  0.4732880000000  0.4755740000000 1.0
C      1  0.4682720000000  0.5428690000000  0.5573690000000 1.0
C      1  0.5447670000000  0.5428640000000  0.5479060000000 1.0
C      1  0.5594000000000  0.5428610000000  0.4722270000000 1.0
C      1  0.4919350000000  0.5428640000000  0.4349170000000 1.0
C      1  0.4355900000000  0.5428760000000  0.4875620000000 1.0
C      1  0.4295910000000  0.4934850000000  0.5104310000000 1.0
C      1  0.4881540000000  0.4935080000000  0.5701910000000 1.0
C      1  0.5631020000000  0.4934830000000  0.5329450000000 1.0
C      1  0.5508450000000  0.4934900000000  0.4501700000000 1.0
C      1  0.4683210000000  0.4934790000000  0.4362380000000 1.0
C      1  0.5621670000000  0.5342100000000  0.5001250000000 1.0
C      1  0.5193380000000  0.5342080000000  0.4409090000000 1.0
C      1  0.4496050000000  0.5343210000000  0.4632230000000 1.0
C      1  0.4496240000000  0.5342480000000  0.5364640000000 1.0
C      1  0.5190940000000  0.5342210000000  0.5591900000000 1.0
END
