TITL C-21442-1735-10 8.06282509593513e-08 125000 -345.268726179723 0 0 60 (C1) n - 1
REM
REM in /home/nfs/bkarasulu/CARBON/AIRSS/Generating-Clusters/TERSOFF/Higher-Symm/Only-C60
REM
REM
REM
REM
REM
REM ./C.cell (28575a23ae977d3b5fae324c64b13b57)
REM
REM compiler GCC version 9.2.1 20190827 (Red Hat 9.2.1-1)
REM options -cpp -mtune=generic -march=x86-64 -g -O0 -fpre-include=/usr/include/finclude/math-vector-fortran.h
REM seed -879871262 178072804 1188768103 79203488 1690868360 -1956514967 282853532 -1535190748 -1697834065 1055064550 1679990958 797178837 -1340053280 -1895443836 -533499670 319305299 -2058235757 -1115195905 1571337812 1553717518 1787962678 1471759959 1272557957 1393087455 1097746591 769923531 1463646130 294506873 671835388 741427890 1759720099 -1710096519 1039989231
REM
CELL 1.54180   50.00000   50.00000   50.00000   90.00000   90.00000   90.00000
LATT -1
SFAC C  
C      1  0.5561540000000  0.5439370000000  0.4984820000000 1.0
C      1  0.4714140000000  0.5415030000000  0.4510350000000 1.0
C      1  0.4698960000000  0.5383890000000  0.5545660000000 1.0
C      1  0.5023080000000  0.4468280000000  0.4528240000000 1.0
C      1  0.4574150000000  0.4469720000000  0.5208020000000 1.0
C      1  0.5397220000000  0.4482450000000  0.5256820000000 1.0
C      1  0.5228190000000  0.4993920000000  0.4822100000000 1.0
C      1  0.4731970000000  0.4996570000000  0.4891300000000 1.0
C      1  0.5037260000000  0.4991130000000  0.5285760000000 1.0
C      1  0.5248850000000  0.5099730000000  0.5098310000000 1.0
C      1  0.4960520000000  0.5096940000000  0.4726390000000 1.0
C      1  0.4784260000000  0.5096820000000  0.5176110000000 1.0
C      1  0.4422170000000  0.5336110000000  0.4909130000000 1.0
C      1  0.5191820000000  0.5321710000000  0.5586530000000 1.0
C      1  0.5395720000000  0.5318780000000  0.4521840000000 1.0
C      1  0.4563250000000  0.5202980000000  0.5360350000000 1.0
C      1  0.5499850000000  0.5240080000000  0.5198440000000 1.0
C      1  0.4920230000000  0.5211630000000  0.4443740000000 1.0
C      1  0.5386360000000  0.4801910000000  0.4426870000000 1.0
C      1  0.4306330000000  0.4812390000000  0.4951640000000 1.0
C      1  0.5304060000000  0.4810760000000  0.5624640000000 1.0
C      1  0.4638020000000  0.4805950000000  0.5678180000000 1.0
C      1  0.5754260000000  0.4845190000000  0.4963270000000 1.0
C      1  0.4590010000000  0.4823250000000  0.4353680000000 1.0
C      1  0.5087760000000  0.4723540000000  0.4374380000000 1.0
C      1  0.4410680000000  0.4725310000000  0.5233410000000 1.0
C      1  0.5494000000000  0.4741000000000  0.5387250000000 1.0
C      1  0.5394310000000  0.4477120000000  0.4943480000000 1.0
C      1  0.4753810000000  0.4471230000000  0.4689330000000 1.0
C      1  0.4851630000000  0.4464950000000  0.5357320000000 1.0
C      1  0.5383530000000  0.5499860000000  0.4757980000000 1.0
C      1  0.4653110000000  0.5492050000000  0.4787360000000 1.0
C      1  0.4963260000000  0.5487080000000  0.5491410000000 1.0
C      1  0.4376240000000  0.5350700000000  0.5191510000000 1.0
C      1  0.5447780000000  0.5365410000000  0.5459470000000 1.0
C      1  0.5167640000000  0.5334400000000  0.4346190000000 1.0
C      1  0.4986560000000  0.4694460000000  0.5192210000000 1.0
C      1  0.5176420000000  0.4698430000000  0.4909620000000 1.0
C      1  0.4835570000000  0.4697580000000  0.4887990000000 1.0
C      1  0.5157950000000  0.5702090000000  0.4781420000000 1.0
C      1  0.4895650000000  0.5659910000000  0.4962760000000 1.0
C      1  0.5003050000000  0.5689230000000  0.5273820000000 1.0
C      1  0.5178810000000  0.5950930000000  0.4630620000000 1.0
C      1  0.4738460000000  0.5925690000000  0.4958080000000 1.0
C      1  0.5148590000000  0.5933990000000  0.5338690000000 1.0
C      1  0.4820240000000  0.4576560000000  0.5649950000000 1.0
C      1  0.5665200000000  0.4597580000000  0.4830740000000 1.0
C      1  0.4519550000000  0.4587960000000  0.4513700000000 1.0
C      1  0.5520620000000  0.4558180000000  0.4548780000000 1.0
C      1  0.4331680000000  0.4566530000000  0.4771570000000 1.0
C      1  0.5138940000000  0.4561170000000  0.5687980000000 1.0
C      1  0.4541720000000  0.4360440000000  0.4927440000000 1.0
C      1  0.5171260000000  0.4365400000000  0.5422070000000 1.0
C      1  0.5279620000000  0.4354230000000  0.4645700000000 1.0
C      1  0.5121810000000  0.5036190000000  0.5561980000000 1.0
C      1  0.5424510000000  0.5037740000000  0.4608160000000 1.0
C      1  0.4448630000000  0.5048040000000  0.4828670000000 1.0
C      1  0.4485640000000  0.4921010000000  0.5451020000000 1.0
C      1  0.5628160000000  0.4951440000000  0.5209440000000 1.0
C      1  0.4865380000000  0.4928000000000  0.4336280000000 1.0
END
