TITL C-21451-4170-27 -0.000933630295470712 125000 -256.913717352917 0 0 60 (C2h) n - 1
REM
REM in /home/nfs/bkarasulu/CARBON/AIRSS/Generating-Clusters/TERSOFF/Higher-Symm/Only-C60
REM
REM
REM
REM
REM
REM ./C.cell (28575a23ae977d3b5fae324c64b13b57)
REM
REM compiler GCC version 9.2.1 20190827 (Red Hat 9.2.1-1)
REM options -cpp -mtune=generic -march=x86-64 -g -O0 -fpre-include=/usr/include/finclude/math-vector-fortran.h
REM seed 881935571 -939464078 -117240657 1801920653 -1602774287 459869021 1210305977 1130960199 2016066648 1550481845 978887403 -142090319 -1992561951 1548630111 -1197962943 361400438 1387771565 -663323257 -1603166872 871418633 -128178823 1390888348 -143578269 -2105292241 -1839274254 -286371478 1835798781 1181542210 -1790148328 982071609 -1821066511 1523854192 -376891672
REM
CELL 1.54180   50.00000   50.00000   50.00000   90.00000   90.00000   90.00000
LATT -1
SFAC C  
C      1  0.5627310000000  0.5403440000000  0.4816330000000 1.0
C      1  0.4850700000000  0.5362180000000  0.5642640000000 1.0
C      1  0.4537030000000  0.5384600000000  0.4544780000000 1.0
C      1  0.4372690000000  0.4596560000000  0.4816330000000 1.0
C      1  0.5149300000000  0.4637820000000  0.5642640000000 1.0
C      1  0.5462970000000  0.4615400000000  0.4544780000000 1.0
C      1  0.4372690000000  0.4596560000000  0.5183670000000 1.0
C      1  0.5149300000000  0.4637820000000  0.4357360000000 1.0
C      1  0.5462970000000  0.4615400000000  0.5455220000000 1.0
C      1  0.5627310000000  0.5403440000000  0.5183670000000 1.0
C      1  0.4850700000000  0.5362180000000  0.4357360000000 1.0
C      1  0.4537030000000  0.5384600000000  0.5455220000000 1.0
C      1  0.5240550000000  0.4811750000000  0.4840320000000 1.0
C      1  0.4957140000000  0.4840790000000  0.5330780000000 1.0
C      1  0.4694360000000  0.4861130000000  0.4836010000000 1.0
C      1  0.4759450000000  0.5188250000000  0.4840320000000 1.0
C      1  0.5042860000000  0.5159210000000  0.5330780000000 1.0
C      1  0.5305640000000  0.5138870000000  0.4836010000000 1.0
C      1  0.4759450000000  0.5188250000000  0.5159680000000 1.0
C      1  0.5042860000000  0.5159210000000  0.4669220000000 1.0
C      1  0.5305640000000  0.5138870000000  0.5163990000000 1.0
C      1  0.5240550000000  0.4811750000000  0.5159680000000 1.0
C      1  0.4957140000000  0.4840790000000  0.4669220000000 1.0
C      1  0.4694360000000  0.4861130000000  0.5163990000000 1.0
C      1  0.4831470000000  0.4796190000000  0.5635480000000 1.0
C      1  0.4519920000000  0.4796570000000  0.4551390000000 1.0
C      1  0.5588100000000  0.4811430000000  0.4819640000000 1.0
C      1  0.5168530000000  0.5203810000000  0.5635480000000 1.0
C      1  0.5480080000000  0.5203430000000  0.4551390000000 1.0
C      1  0.4411900000000  0.5188570000000  0.4819640000000 1.0
C      1  0.5168530000000  0.5203810000000  0.4364520000000 1.0
C      1  0.5480080000000  0.5203430000000  0.5448610000000 1.0
C      1  0.4411900000000  0.5188570000000  0.5180360000000 1.0
C      1  0.4831470000000  0.4796190000000  0.4364520000000 1.0
C      1  0.4519920000000  0.4796570000000  0.5448610000000 1.0
C      1  0.5588100000000  0.4811430000000  0.5180360000000 1.0
C      1  0.4980360000000  0.5499450000000  0.5334940000000 1.0
C      1  0.4702370000000  0.5532540000000  0.4830830000000 1.0
C      1  0.5276060000000  0.5490760000000  0.4838130000000 1.0
C      1  0.5019640000000  0.4500550000000  0.5334940000000 1.0
C      1  0.5297630000000  0.4467460000000  0.4830830000000 1.0
C      1  0.4723940000000  0.4509240000000  0.4838130000000 1.0
C      1  0.5019640000000  0.4500550000000  0.4665060000000 1.0
C      1  0.5297630000000  0.4467460000000  0.5169170000000 1.0
C      1  0.4723940000000  0.4509240000000  0.5161870000000 1.0
C      1  0.4980360000000  0.5499450000000  0.4665060000000 1.0
C      1  0.4702370000000  0.5532540000000  0.5169170000000 1.0
C      1  0.5276060000000  0.5490760000000  0.5161870000000 1.0
C      1  0.4430110000000  0.5081490000000  0.5585980000000 1.0
C      1  0.4711480000000  0.5082130000000  0.4273220000000 1.0
C      1  0.5759050000000  0.5090660000000  0.5156330000000 1.0
C      1  0.5569890000000  0.4918510000000  0.5585980000000 1.0
C      1  0.5288520000000  0.4917870000000  0.4273220000000 1.0
C      1  0.4240950000000  0.4909340000000  0.5156330000000 1.0
C      1  0.5569890000000  0.4918510000000  0.4414020000000 1.0
C      1  0.5288520000000  0.4917870000000  0.5726780000000 1.0
C      1  0.4240950000000  0.4909340000000  0.4843670000000 1.0
C      1  0.4430110000000  0.5081490000000  0.4414020000000 1.0
C      1  0.4711480000000  0.5082130000000  0.5726780000000 1.0
C      1  0.5759050000000  0.5090660000000  0.4843670000000 1.0
END
