TITL C-21444-1711-25 -1.08171357084968e-05 125000 -334.02074085847 0 0 60 (C1) n - 1
REM
REM in /home/nfs/bkarasulu/CARBON/AIRSS/Generating-Clusters/TERSOFF/Higher-Symm/Only-C60
REM
REM
REM
REM
REM
REM ./C.cell (28575a23ae977d3b5fae324c64b13b57)
REM
REM compiler GCC version 9.2.1 20190827 (Red Hat 9.2.1-1)
REM options -cpp -mtune=generic -march=x86-64 -g -O0 -fpre-include=/usr/include/finclude/math-vector-fortran.h
REM seed 496187809 1162127751 841925693 361396375 -830832236 -114944262 -399914788 -1376619193 1486677197 -544777412 -1662709868 420719756 645323514 -382575951 -488243790 -1591731794 -1819794089 2093401047 -806486416 1761831004 17641020 563908859 -117849830 1770579863 5083853 -1224784350 -1274521858 1425488774 -1059177604 49307821 1877575141 77206553 -1934352244
REM
CELL 1.54180   50.00000   50.00000   50.00000   90.00000   90.00000   90.00000
LATT -1
SFAC C  
C      1  0.4743440000000  0.5142790000000  0.4822670000000 1.0
C      1  0.5267370000000  0.5140840000000  0.5170860000000 1.0
C      1  0.5688950000000  0.4904250000000  0.5264050000000 1.0
C      1  0.4326290000000  0.4898660000000  0.4739940000000 1.0
C      1  0.5072700000000  0.5589830000000  0.5130440000000 1.0
C      1  0.4932980000000  0.5592640000000  0.4866460000000 1.0
C      1  0.5608820000000  0.4662660000000  0.5410150000000 1.0
C      1  0.4404350000000  0.4660110000000  0.4587770000000 1.0
C      1  0.4479410000000  0.4950650000000  0.5575380000000 1.0
C      1  0.5525690000000  0.4956520000000  0.4437750000000 1.0
C      1  0.4921450000000  0.4829390000000  0.5594610000000 1.0
C      1  0.5088690000000  0.4832580000000  0.4407090000000 1.0
C      1  0.5516050000000  0.5458680000000  0.4912140000000 1.0
C      1  0.4490810000000  0.5455260000000  0.5084670000000 1.0
C      1  0.5203220000000  0.4834810000000  0.5706810000000 1.0
C      1  0.4808390000000  0.4835470000000  0.4289380000000 1.0
C      1  0.5139180000000  0.4476130000000  0.5054540000000 1.0
C      1  0.4844680000000  0.4453330000000  0.4939940000000 1.0
C      1  0.5519300000000  0.5120080000000  0.5332410000000 1.0
C      1  0.4488700000000  0.5119670000000  0.4666250000000 1.0
C      1  0.5307740000000  0.4950260000000  0.4220670000000 1.0
C      1  0.4705330000000  0.4947500000000  0.5784700000000 1.0
C      1  0.4825460000000  0.4545870000000  0.5445520000000 1.0
C      1  0.5184690000000  0.4549560000000  0.4562010000000 1.0
C      1  0.5337720000000  0.4623500000000  0.5521000000000 1.0
C      1  0.4674650000000  0.4622150000000  0.4473260000000 1.0
C      1  0.4746840000000  0.4979380000000  0.5127090000000 1.0
C      1  0.5230600000000  0.4971110000000  0.4860320000000 1.0
C      1  0.4504960000000  0.5211630000000  0.4395890000000 1.0
C      1  0.5500460000000  0.5216490000000  0.5600780000000 1.0
C      1  0.5127410000000  0.4473600000000  0.5363270000000 1.0
C      1  0.4883650000000  0.4475620000000  0.4632430000000 1.0
C      1  0.4695540000000  0.5425440000000  0.4879940000000 1.0
C      1  0.5310290000000  0.5423510000000  0.5113950000000 1.0
C      1  0.4709250000000  0.4735230000000  0.4917560000000 1.0
C      1  0.5103810000000  0.4771520000000  0.5056760000000 1.0
C      1  0.5625290000000  0.4649220000000  0.4829830000000 1.0
C      1  0.4375300000000  0.4635330000000  0.5185160000000 1.0
C      1  0.5404090000000  0.5532490000000  0.4641940000000 1.0
C      1  0.4602430000000  0.5524110000000  0.5356460000000 1.0
C      1  0.5418270000000  0.4804460000000  0.4665670000000 1.0
C      1  0.4583960000000  0.4797490000000  0.5347070000000 1.0
C      1  0.5244560000000  0.5145440000000  0.5710640000000 1.0
C      1  0.4761980000000  0.5145020000000  0.4284420000000 1.0
C      1  0.4318960000000  0.5187640000000  0.5183570000000 1.0
C      1  0.5696250000000  0.5194730000000  0.4821270000000 1.0
C      1  0.4436020000000  0.5269020000000  0.5515700000000 1.0
C      1  0.5573050000000  0.5274560000000  0.4490670000000 1.0
C      1  0.5719130000000  0.4905680000000  0.4971740000000 1.0
C      1  0.4296460000000  0.4898280000000  0.5034490000000 1.0
C      1  0.4991140000000  0.5066870000000  0.5332870000000 1.0
C      1  0.5007620000000  0.5076730000000  0.4659860000000 1.0
C      1  0.4635530000000  0.4416340000000  0.5180660000000 1.0
C      1  0.5365290000000  0.4431250000000  0.4848830000000 1.0
C      1  0.4981440000000  0.5302290000000  0.5574100000000 1.0
C      1  0.5026140000000  0.5310060000000  0.4419630000000 1.0
C      1  0.5287220000000  0.5258970000000  0.4271820000000 1.0
C      1  0.4724150000000  0.5254930000000  0.5728360000000 1.0
C      1  0.4904160000000  0.5538130000000  0.5379520000000 1.0
C      1  0.5102670000000  0.5544240000000  0.4617280000000 1.0
END
