TITL C-21441-2359-19 -0.000161208925062953 125000 -326.858325745416 0 0 60 (C2) n - 1
REM
REM in /home/nfs/bkarasulu/CARBON/AIRSS/Generating-Clusters/TERSOFF/Higher-Symm/Only-C60
REM
REM
REM
REM
REM
REM ./C.cell (28575a23ae977d3b5fae324c64b13b57)
REM
REM compiler GCC version 9.2.1 20190827 (Red Hat 9.2.1-1)
REM options -cpp -mtune=generic -march=x86-64 -g -O0 -fpre-include=/usr/include/finclude/math-vector-fortran.h
REM seed 1635546066 2057158401 -763318287 -462219928 1933542101 712290510 750166153 -646502090 -1841311250 -604988132 -598118639 -1857129946 1164829369 -1073176318 -2050678746 -1052306751 1457512359 -1465783899 281204287 1073783494 -1580458145 -959376924 -1969056225 859256881 1779381936 120280955 1651085945 -1221260043 -1989919 -1201598726 594563397 617818150 -344670993
REM
CELL 1.54180   50.00000   50.00000   50.00000   90.00000   90.00000   90.00000
LATT -1
SFAC C  
C      1  0.4492990000000  0.5662190000000  0.4914900000000 1.0
C      1  0.4641520000000  0.5687330000000  0.4641740000000 1.0
C      1  0.4939070000000  0.5642230000000  0.4558910000000 1.0
C      1  0.5164000000000  0.5770390000000  0.4695010000000 1.0
C      1  0.5398610000000  0.5627840000000  0.4796360000000 1.0
C      1  0.5506860000000  0.5662340000000  0.5085070000000 1.0
C      1  0.5358500000000  0.5687130000000  0.5358320000000 1.0
C      1  0.5060950000000  0.5642280000000  0.5441150000000 1.0
C      1  0.4835990000000  0.5770460000000  0.5304930000000 1.0
C      1  0.4601290000000  0.5627930000000  0.5203690000000 1.0
C      1  0.4487230000000  0.4675250000000  0.5061890000000 1.0
C      1  0.4539650000000  0.4672010000000  0.4702090000000 1.0
C      1  0.4726600000000  0.4732740000000  0.4458480000000 1.0
C      1  0.5029480000000  0.4653190000000  0.4445370000000 1.0
C      1  0.5352790000000  0.4653790000000  0.4613660000000 1.0
C      1  0.5512750000000  0.4675280000000  0.4938110000000 1.0
C      1  0.5460320000000  0.4672020000000  0.5297900000000 1.0
C      1  0.5273400000000  0.4732700000000  0.5541550000000 1.0
C      1  0.4970500000000  0.4653190000000  0.5554660000000 1.0
C      1  0.4647190000000  0.4653760000000  0.5386350000000 1.0
C      1  0.5514620000000  0.5324460000000  0.5062540000000 1.0
C      1  0.5354280000000  0.5346770000000  0.5386640000000 1.0
C      1  0.5030150000000  0.5346880000000  0.5553300000000 1.0
C      1  0.4727090000000  0.5267500000000  0.5540460000000 1.0
C      1  0.4539830000000  0.5327730000000  0.5296900000000 1.0
C      1  0.4485360000000  0.5324450000000  0.4937490000000 1.0
C      1  0.4645680000000  0.5346800000000  0.4613410000000 1.0
C      1  0.4969840000000  0.5346820000000  0.4446770000000 1.0
C      1  0.5272980000000  0.5267500000000  0.4459440000000 1.0
C      1  0.5460240000000  0.5327690000000  0.4703110000000 1.0
C      1  0.4895600000000  0.4892690000000  0.5771180000000 1.0
C      1  0.4478580000000  0.4867730000000  0.5540310000000 1.0
C      1  0.4289740000000  0.4910040000000  0.5110700000000 1.0
C      1  0.4351700000000  0.4945470000000  0.4648020000000 1.0
C      1  0.4651050000000  0.4971400000000  0.4296840000000 1.0
C      1  0.5104420000000  0.4892630000000  0.4228770000000 1.0
C      1  0.5521430000000  0.4867700000000  0.4459680000000 1.0
C      1  0.5710250000000  0.4910040000000  0.4889300000000 1.0
C      1  0.5648330000000  0.4945440000000  0.5351990000000 1.0
C      1  0.5348970000000  0.4971380000000  0.5703170000000 1.0
C      1  0.5505870000000  0.4337470000000  0.4915620000000 1.0
C      1  0.5398940000000  0.4371650000000  0.5204960000000 1.0
C      1  0.5164660000000  0.4229080000000  0.5307130000000 1.0
C      1  0.4939470000000  0.4357550000000  0.5442580000000 1.0
C      1  0.4642160000000  0.4313700000000  0.5358090000000 1.0
C      1  0.4494150000000  0.4337450000000  0.5084370000000 1.0
C      1  0.4601070000000  0.4371640000000  0.4795030000000 1.0
C      1  0.4835350000000  0.4229070000000  0.4692870000000 1.0
C      1  0.5060530000000  0.4357550000000  0.4557410000000 1.0
C      1  0.5357840000000  0.4313740000000  0.4641910000000 1.0
C      1  0.4352330000000  0.5054000000000  0.5351290000000 1.0
C      1  0.4288870000000  0.5088920000000  0.4888840000000 1.0
C      1  0.4477580000000  0.5132420000000  0.4459220000000 1.0
C      1  0.4895150000000  0.5108380000000  0.4229110000000 1.0
C      1  0.5348490000000  0.5029250000000  0.4297240000000 1.0
C      1  0.5647700000000  0.5053970000000  0.4648690000000 1.0
C      1  0.5711160000000  0.5088910000000  0.5111180000000 1.0
C      1  0.5522430000000  0.5132390000000  0.5540780000000 1.0
C      1  0.5104890000000  0.5108390000000  0.5770880000000 1.0
C      1  0.4651570000000  0.5029300000000  0.5702640000000 1.0
END
