TITL C-21447-2359-13 -5.39427874258581e-07 125000 -300.865082275343 0 0 60 (D4) n - 1
REM
REM in /home/nfs/bkarasulu/CARBON/AIRSS/Generating-Clusters/TERSOFF/Higher-Symm/Only-C60
REM
REM
REM
REM
REM
REM ./C.cell (28575a23ae977d3b5fae324c64b13b57)
REM
REM compiler GCC version 9.2.1 20190827 (Red Hat 9.2.1-1)
REM options -cpp -mtune=generic -march=x86-64 -g -O0 -fpre-include=/usr/include/finclude/math-vector-fortran.h
REM seed -888633214 -1884996759 1316381029 631394672 -1994709446 -1041839494 1931015735 -465122183 105861132 822568074 -1994467461 -913593488 23256712 859286289 1772484839 -2143313856 1299849939 -1827055702 1678324465 -126887898 -341367047 -1215176549 1423406364 -1482239952 988802927 -2043366785 -303825370 1387236670 -1041837304 137469977 1466881653 -1881476433 -1539121581
REM
CELL 1.54180   50.00000   50.00000   50.00000   90.00000   90.00000   90.00000
LATT -1
SFAC C  
C      1  0.4676370000000  0.5469240000000  0.4613220000000 1.0
C      1  0.4530760000000  0.4676370000000  0.4613220000000 1.0
C      1  0.5323630000000  0.4530760000000  0.4613220000000 1.0
C      1  0.5469240000000  0.5323630000000  0.4613220000000 1.0
C      1  0.5323640000000  0.5469240000000  0.5413220000000 1.0
C      1  0.5469240000000  0.4676360000000  0.5413220000000 1.0
C      1  0.4676360000000  0.4530760000000  0.5413220000000 1.0
C      1  0.4530760000000  0.5323640000000  0.5413220000000 1.0
C      1  0.5321650000000  0.4865830000000  0.4953310000000 1.0
C      1  0.5134170000000  0.5321650000000  0.4953310000000 1.0
C      1  0.4678350000000  0.5134170000000  0.4953310000000 1.0
C      1  0.4865830000000  0.4678350000000  0.4953310000000 1.0
C      1  0.4678350000000  0.4865830000000  0.5073130000000 1.0
C      1  0.4865830000000  0.5321650000000  0.5073130000000 1.0
C      1  0.5321650000000  0.5134170000000  0.5073130000000 1.0
C      1  0.5134170000000  0.4678350000000  0.5073130000000 1.0
C      1  0.4282100000000  0.4905850000000  0.5200820000000 1.0
C      1  0.5094150000000  0.4282100000000  0.5200820000000 1.0
C      1  0.5717900000000  0.5094150000000  0.5200820000000 1.0
C      1  0.4905850000000  0.5717900000000  0.5200820000000 1.0
C      1  0.5717900000000  0.4905850000000  0.4825610000000 1.0
C      1  0.4905850000000  0.4282100000000  0.4825610000000 1.0
C      1  0.4282100000000  0.5094150000000  0.4825610000000 1.0
C      1  0.5094150000000  0.5717900000000  0.4825610000000 1.0
C      1  0.4766570000000  0.4430960000000  0.4579890000000 1.0
C      1  0.5569040000000  0.4766570000000  0.4579890000000 1.0
C      1  0.5233430000000  0.5569040000000  0.4579890000000 1.0
C      1  0.4430960000000  0.5233430000000  0.4579890000000 1.0
C      1  0.5233420000000  0.4430960000000  0.5446540000000 1.0
C      1  0.4430960000000  0.4766580000000  0.5446540000000 1.0
C      1  0.4766580000000  0.5569040000000  0.5446540000000 1.0
C      1  0.5569040000000  0.5233420000000  0.5446540000000 1.0
C      1  0.5437340000000  0.5033690000000  0.4462480000000 1.0
C      1  0.4966310000000  0.5437340000000  0.4462480000000 1.0
C      1  0.4562660000000  0.4966310000000  0.4462480000000 1.0
C      1  0.5033690000000  0.4562660000000  0.4462480000000 1.0
C      1  0.4562650000000  0.5033700000000  0.5563960000000 1.0
C      1  0.5033700000000  0.5437350000000  0.5563960000000 1.0
C      1  0.5437350000000  0.4966300000000  0.5563960000000 1.0
C      1  0.4966300000000  0.4562650000000  0.5563960000000 1.0
C      1  0.5025370000000  0.4783240000000  0.5355260000000 1.0
C      1  0.5216760000000  0.5025370000000  0.5355260000000 1.0
C      1  0.4974630000000  0.5216760000000  0.5355260000000 1.0
C      1  0.4783240000000  0.4974630000000  0.5355260000000 1.0
C      1  0.4974630000000  0.4783240000000  0.4671180000000 1.0
C      1  0.4783240000000  0.5025370000000  0.4671180000000 1.0
C      1  0.5025370000000  0.5216760000000  0.4671180000000 1.0
C      1  0.5216760000000  0.4974630000000  0.4671180000000 1.0
C      1  0.4375770000000  0.5245930000000  0.5113340000000 1.0
C      1  0.4754070000000  0.4375770000000  0.5113340000000 1.0
C      1  0.5624230000000  0.4754070000000  0.5113340000000 1.0
C      1  0.5245930000000  0.5624230000000  0.5113340000000 1.0
C      1  0.5624230000000  0.5245930000000  0.4913090000000 1.0
C      1  0.5245930000000  0.4375770000000  0.4913090000000 1.0
C      1  0.4375770000000  0.4754070000000  0.4913090000000 1.0
C      1  0.4754070000000  0.5624230000000  0.4913090000000 1.0
C      1  0.4457320000000  0.5542690000000  0.5013220000000 1.0
C      1  0.4457310000000  0.4457320000000  0.5013220000000 1.0
C      1  0.5542680000000  0.4457310000000  0.5013220000000 1.0
C      1  0.5542690000000  0.5542680000000  0.5013220000000 1.0
END
