TITL C-21445-1691-54 0.000640461763185732 125000 -283.352447400686 0 0 60 (C4h) n - 1
REM
REM in /home/nfs/bkarasulu/CARBON/AIRSS/Generating-Clusters/TERSOFF/Higher-Symm/Only-C60
REM
REM
REM
REM
REM
REM ./C.cell (28575a23ae977d3b5fae324c64b13b57)
REM
REM compiler GCC version 9.2.1 20190827 (Red Hat 9.2.1-1)
REM options -cpp -mtune=generic -march=x86-64 -g -O0 -fpre-include=/usr/include/finclude/math-vector-fortran.h
REM seed 129820572 124939707 -1842568667 -556608595 -742793049 131101869 -1038162863 188501110 1260322555 1955799395 953696698 -1476972385 1832065264 -1769427235 515130226 840915433 823323588 -1340386560 -717522304 1257076041 2041210398 -1431203200 -754373330 -2082141784 1303410002 1240193353 1771709922 -1080511993 12533350 1931932404 213177884 412465604 -747902059
REM
CELL 1.54180   50.00000   50.00000   50.00000   90.00000   90.00000   90.00000
LATT -1
SFAC C  
C      1  0.5456350000000  0.4693270000000  0.4720860000000 1.0
C      1  0.5306690000000  0.5456310000000  0.4720800000000 1.0
C      1  0.4543420000000  0.5306860000000  0.4720630000000 1.0
C      1  0.4693840000000  0.4543840000000  0.4720800000000 1.0
C      1  0.5456010000000  0.4693760000000  0.5286670000000 1.0
C      1  0.5306470000000  0.5457100000000  0.5286730000000 1.0
C      1  0.4543440000000  0.5306210000000  0.5287020000000 1.0
C      1  0.4693920000000  0.4543820000000  0.5286680000000 1.0
C      1  0.4901740000000  0.5352340000000  0.4448900000000 1.0
C      1  0.4647230000000  0.4901740000000  0.4449050000000 1.0
C      1  0.5098550000000  0.4647920000000  0.4448400000000 1.0
C      1  0.5351630000000  0.5098560000000  0.4448390000000 1.0
C      1  0.4902320000000  0.5352100000000  0.5558920000000 1.0
C      1  0.4647870000000  0.4902010000000  0.5559310000000 1.0
C      1  0.5098270000000  0.4647870000000  0.5559470000000 1.0
C      1  0.5351980000000  0.5098080000000  0.5559180000000 1.0
C      1  0.4396380000000  0.4745750000000  0.5262130000000 1.0
C      1  0.5253890000000  0.4396230000000  0.5261850000000 1.0
C      1  0.5603740000000  0.5253910000000  0.5261740000000 1.0
C      1  0.4745890000000  0.5603740000000  0.5261810000000 1.0
C      1  0.4396160000000  0.4745930000000  0.4746960000000 1.0
C      1  0.5254120000000  0.4396880000000  0.4746480000000 1.0
C      1  0.5602890000000  0.5254130000000  0.4746420000000 1.0
C      1  0.4745720000000  0.5603170000000  0.4746600000000 1.0
C      1  0.4598190000000  0.5315320000000  0.4395800000000 1.0
C      1  0.4685970000000  0.4598670000000  0.4395100000000 1.0
C      1  0.5401370000000  0.4685370000000  0.4395240000000 1.0
C      1  0.5315350000000  0.5401820000000  0.4395890000000 1.0
C      1  0.4598720000000  0.5315060000000  0.5612180000000 1.0
C      1  0.4685080000000  0.4598900000000  0.5612550000000 1.0
C      1  0.5401120000000  0.4684550000000  0.5612460000000 1.0
C      1  0.5315430000000  0.5401180000000  0.5612040000000 1.0
C      1  0.4967260000000  0.4393570000000  0.5150070000000 1.0
C      1  0.5606160000000  0.4967320000000  0.5150020000000 1.0
C      1  0.5032740000000  0.5605870000000  0.5149750000000 1.0
C      1  0.4394190000000  0.5032840000000  0.5148570000000 1.0
C      1  0.4967040000000  0.4394310000000  0.4857540000000 1.0
C      1  0.5605910000000  0.4967050000000  0.4857730000000 1.0
C      1  0.5032950000000  0.5605710000000  0.4857780000000 1.0
C      1  0.4394510000000  0.5033090000000  0.4858700000000 1.0
C      1  0.4953870000000  0.5218640000000  0.5291440000000 1.0
C      1  0.4781050000000  0.4953990000000  0.5291020000000 1.0
C      1  0.5046230000000  0.4780960000000  0.5291510000000 1.0
C      1  0.5218930000000  0.5047120000000  0.5291750000000 1.0
C      1  0.4954220000000  0.5218370000000  0.4716170000000 1.0
C      1  0.4781450000000  0.4953770000000  0.4716430000000 1.0
C      1  0.5045830000000  0.4781670000000  0.4716110000000 1.0
C      1  0.5218730000000  0.5046350000000  0.4716010000000 1.0
C      1  0.5060090000000  0.5247060000000  0.4187290000000 1.0
C      1  0.4753150000000  0.5060840000000  0.4186730000000 1.0
C      1  0.4938120000000  0.4751170000000  0.4187010000000 1.0
C      1  0.5248910000000  0.4938960000000  0.4187830000000 1.0
C      1  0.5060840000000  0.5247370000000  0.5820940000000 1.0
C      1  0.4752090000000  0.5061680000000  0.5820820000000 1.0
C      1  0.4938410000000  0.4751440000000  0.5820620000000 1.0
C      1  0.5248110000000  0.4938920000000  0.5820590000000 1.0
C      1  0.5218600000000  0.4725910000000  0.5004530000000 1.0
C      1  0.5273810000000  0.5218250000000  0.5004520000000 1.0
C      1  0.4781490000000  0.5274060000000  0.5004540000000 1.0
C      1  0.4725530000000  0.4781310000000  0.5004520000000 1.0
END
