TITL C-21454-5660-33 0.00366116044387685 125000 -327.770739887024 0 0 60 (C1) n - 1
REM
REM in /home/nfs/bkarasulu/CARBON/AIRSS/Generating-Clusters/TERSOFF/Higher-Symm/Only-C60
REM
REM
REM
REM
REM
REM ./C.cell (28575a23ae977d3b5fae324c64b13b57)
REM
REM compiler GCC version 9.2.1 20190827 (Red Hat 9.2.1-1)
REM options -cpp -mtune=generic -march=x86-64 -g -O0 -fpre-include=/usr/include/finclude/math-vector-fortran.h
REM seed 1074279734 1276120215 -1515015115 99012642 -2135693174 -1893464869 473487579 -1715806990 793646389 -1909683123 -1732317293 -285817626 1636810040 -1876819299 -685396289 1730900403 1401263487 -334614609 976169015 343523050 7144836 -1230041831 -836870566 295298686 -1265384482 1431603725 -2030491484 1271724022 -1305712633 988041320 1110824574 1540788814 -1992433482
REM
CELL 1.54180   50.00000   50.00000   50.00000   90.00000   90.00000   90.00000
LATT -1
SFAC C  
C      1  0.5178370000000  0.5643750000000  0.4659350000000 1.0
C      1  0.5456500000000  0.5332890000000  0.5574410000000 1.0
C      1  0.4594170000000  0.5155220000000  0.5509390000000 1.0
C      1  0.4898230000000  0.4763030000000  0.4870000000000 1.0
C      1  0.4653620000000  0.5250500000000  0.5061110000000 1.0
C      1  0.5225230000000  0.5201300000000  0.5688020000000 1.0
C      1  0.4709130000000  0.4923710000000  0.4387380000000 1.0
C      1  0.4999460000000  0.4194200000000  0.5274740000000 1.0
C      1  0.4738180000000  0.5560290000000  0.4417210000000 1.0
C      1  0.4649020000000  0.5661070000000  0.5147670000000 1.0
C      1  0.5198600000000  0.5716280000000  0.5226080000000 1.0
C      1  0.5613200000000  0.5051100000000  0.5169690000000 1.0
C      1  0.5029540000000  0.5180140000000  0.4757310000000 1.0
C      1  0.4987370000000  0.4357550000000  0.5517960000000 1.0
C      1  0.4475930000000  0.4927670000000  0.5346820000000 1.0
C      1  0.5473540000000  0.5074420000000  0.4426320000000 1.0
C      1  0.5036660000000  0.5515390000000  0.4425430000000 1.0
C      1  0.4934250000000  0.5789850000000  0.5097110000000 1.0
C      1  0.4954410000000  0.5050710000000  0.4270350000000 1.0
C      1  0.4659100000000  0.4685570000000  0.5285050000000 1.0
C      1  0.5082880000000  0.4782570000000  0.4258290000000 1.0
C      1  0.5188070000000  0.4768510000000  0.5698900000000 1.0
C      1  0.4734330000000  0.4508400000000  0.5524930000000 1.0
C      1  0.4980090000000  0.5328000000000  0.5846750000000 1.0
C      1  0.4615010000000  0.4609840000000  0.4725640000000 1.0
C      1  0.4959510000000  0.4778550000000  0.5284650000000 1.0
C      1  0.5135450000000  0.5166070000000  0.5258120000000 1.0
C      1  0.4937210000000  0.5649280000000  0.4842070000000 1.0
C      1  0.5193170000000  0.5075220000000  0.4978800000000 1.0
C      1  0.5644780000000  0.4761090000000  0.5298950000000 1.0
C      1  0.4617800000000  0.4490860000000  0.5026050000000 1.0
C      1  0.4674910000000  0.4995360000000  0.4883310000000 1.0
C      1  0.5080870000000  0.5229170000000  0.4461470000000 1.0
C      1  0.5174230000000  0.4634250000000  0.5064180000000 1.0
C      1  0.5500320000000  0.5197590000000  0.4696450000000 1.0
C      1  0.4840270000000  0.4592750000000  0.4448270000000 1.0
C      1  0.5030980000000  0.4237050000000  0.4792620000000 1.0
C      1  0.4451610000000  0.5567990000000  0.4877420000000 1.0
C      1  0.4818270000000  0.5098550000000  0.5682530000000 1.0
C      1  0.5526920000000  0.5316410000000  0.5290830000000 1.0
C      1  0.5400100000000  0.5522620000000  0.5107440000000 1.0
C      1  0.5238880000000  0.4518140000000  0.5570240000000 1.0
C      1  0.4649230000000  0.5402440000000  0.5338740000000 1.0
C      1  0.5403180000000  0.5483030000000  0.4799190000000 1.0
C      1  0.5346080000000  0.4602390000000  0.4596290000000 1.0
C      1  0.5430590000000  0.4695220000000  0.4866280000000 1.0
C      1  0.5367100000000  0.4613550000000  0.5317830000000 1.0
C      1  0.4767310000000  0.4232060000000  0.5027580000000 1.0
C      1  0.5675520000000  0.4599050000000  0.5027270000000 1.0
C      1  0.5063760000000  0.4978410000000  0.5516100000000 1.0
C      1  0.4855580000000  0.5373030000000  0.4868110000000 1.0
C      1  0.4539610000000  0.5077030000000  0.4599060000000 1.0
C      1  0.4386750000000  0.4799590000000  0.4649010000000 1.0
C      1  0.5354200000000  0.4801420000000  0.4377830000000 1.0
C      1  0.4325570000000  0.5279660000000  0.4987790000000 1.0
C      1  0.5083590000000  0.4445500000000  0.4586790000000 1.0
C      1  0.5464770000000  0.4997820000000  0.4915330000000 1.0
C      1  0.4280050000000  0.5019960000000  0.5149500000000 1.0
C      1  0.4540100000000  0.5419300000000  0.4595780000000 1.0
C      1  0.5176830000000  0.4317610000000  0.5052230000000 1.0
END
