TITL C-21452-6160-46 -0.000302232272362709 125000 -334.650559298279 0 0 60 (C5) n - 1
REM
REM in /home/nfs/bkarasulu/CARBON/AIRSS/Generating-Clusters/TERSOFF/Higher-Symm/Only-C60
REM
REM
REM
REM
REM
REM ./C.cell (28575a23ae977d3b5fae324c64b13b57)
REM
REM compiler GCC version 9.2.1 20190827 (Red Hat 9.2.1-1)
REM options -cpp -mtune=generic -march=x86-64 -g -O0 -fpre-include=/usr/include/finclude/math-vector-fortran.h
REM seed 1424323015 -628582229 280839148 903672912 -1626604992 -58157311 -1554122347 1539340863 96093458 -1791813828 -707676086 1538535962 -1687522695 -178902876 2046719732 -170177715 1340721708 -355879534 -1821415265 -647006515 -607901430 -897417894 -30488895 -1438831050 2010220875 221526240 -192391231 -1690292814 -370696308 -1247958519 -212827823 1202599306 -2087314449
REM
CELL 1.54180   50.00000   50.00000   50.00000   90.00000   90.00000   90.00000
LATT -1
SFAC C  
C      1  0.5391120000000  0.4897190000000  0.5242790000000 1.0
C      1  0.5023200000000  0.4596600000000  0.5242990000000 1.0
C      1  0.4623820000000  0.4852790000000  0.5243360000000 1.0
C      1  0.4744070000000  0.5313060000000  0.5243450000000 1.0
C      1  0.5218390000000  0.5340290000000  0.5242970000000 1.0
C      1  0.4618730000000  0.5686030000000  0.5101400000000 1.0
C      1  0.5534820000000  0.5574470000000  0.5101550000000 1.0
C      1  0.5712390000000  0.4670400000000  0.5101490000000 1.0
C      1  0.4905050000000  0.4221000000000  0.5101420000000 1.0
C      1  0.4230210000000  0.4849080000000  0.5101550000000 1.0
C      1  0.4711830000000  0.5317120000000  0.4432510000000 1.0
C      1  0.5212640000000  0.5372070000000  0.4432470000000 1.0
C      1  0.5419580000000  0.4912740000000  0.4432430000000 1.0
C      1  0.5046740000000  0.4574010000000  0.4432460000000 1.0
C      1  0.4609310000000  0.4823880000000  0.4432520000000 1.0
C      1  0.5527030000000  0.5188190000000  0.5582590000000 1.0
C      1  0.5341490000000  0.4557220000000  0.5582480000000 1.0
C      1  0.4684900000000  0.4537770000000  0.5582360000000 1.0
C      1  0.4462860000000  0.5157520000000  0.5582380000000 1.0
C      1  0.4983640000000  0.5559520000000  0.5582430000000 1.0
C      1  0.5021060000000  0.4742990000000  0.4952860000000 1.0
C      1  0.4761770000000  0.4900660000000  0.4952970000000 1.0
C      1  0.4831880000000  0.5195560000000  0.4952930000000 1.0
C      1  0.5134080000000  0.5220300000000  0.4952760000000 1.0
C      1  0.5250830000000  0.4940570000000  0.4952760000000 1.0
C      1  0.5640860000000  0.5132260000000  0.4852910000000 1.0
C      1  0.5323870000000  0.4431230000000  0.4852750000000 1.0
C      1  0.4559330000000  0.4516390000000  0.4852890000000 1.0
C      1  0.4403790000000  0.5269760000000  0.4852920000000 1.0
C      1  0.5072300000000  0.5650320000000  0.4852840000000 1.0
C      1  0.4894100000000  0.5636460000000  0.5296760000000 1.0
C      1  0.5572400000000  0.5297340000000  0.5297040000000 1.0
C      1  0.5459270000000  0.4548380000000  0.5296890000000 1.0
C      1  0.4711450000000  0.4422840000000  0.5296670000000 1.0
C      1  0.4361370000000  0.5096710000000  0.5297050000000 1.0
C      1  0.4954610000000  0.5419840000000  0.4316200000000 1.0
C      1  0.5385310000000  0.5172920000000  0.4316160000000 1.0
C      1  0.5283530000000  0.4687020000000  0.4316070000000 1.0
C      1  0.4789900000000  0.4633580000000  0.4316130000000 1.0
C      1  0.4586660000000  0.5086530000000  0.4316180000000 1.0
C      1  0.5052690000000  0.4510800000000  0.4718660000000 1.0
C      1  0.4551020000000  0.4798810000000  0.4718790000000 1.0
C      1  0.4669890000000  0.5364820000000  0.4718730000000 1.0
C      1  0.5245000000000  0.5426660000000  0.4718720000000 1.0
C      1  0.5481600000000  0.4898810000000  0.4718770000000 1.0
C      1  0.4765120000000  0.5127280000000  0.5527120000000 1.0
C      1  0.5048970000000  0.5263230000000  0.5527310000000 1.0
C      1  0.5264680000000  0.5034640000000  0.5526740000000 1.0
C      1  0.5114390000000  0.4758160000000  0.5527370000000 1.0
C      1  0.4806230000000  0.4816130000000  0.5527100000000 1.0
C      1  0.5555740000000  0.4625340000000  0.4836650000000 1.0
C      1  0.4815610000000  0.4355830000000  0.4836540000000 1.0
C      1  0.4330230000000  0.4976350000000  0.4836520000000 1.0
C      1  0.4770520000000  0.5629590000000  0.4836590000000 1.0
C      1  0.5527880000000  0.5412690000000  0.4836490000000 1.0
C      1  0.5241430000000  0.4351130000000  0.5139290000000 1.0
C      1  0.4457100000000  0.4570510000000  0.5139350000000 1.0
C      1  0.4423340000000  0.5383160000000  0.5139430000000 1.0
C      1  0.5186410000000  0.5666830000000  0.5139350000000 1.0
C      1  0.5691950000000  0.5026610000000  0.5139140000000 1.0
END
