TITL C-21449-9478-3 1.55178016010245e-07 125000 -318.05407728941 0 0 60 (D4) n - 1
REM
REM in /home/nfs/bkarasulu/CARBON/AIRSS/Generating-Clusters/TERSOFF/Higher-Symm/Only-C60
REM
REM
REM
REM
REM
REM ./C.cell (28575a23ae977d3b5fae324c64b13b57)
REM
REM compiler GCC version 9.2.1 20190827 (Red Hat 9.2.1-1)
REM options -cpp -mtune=generic -march=x86-64 -g -O0 -fpre-include=/usr/include/finclude/math-vector-fortran.h
REM seed -401141044 -546964325 -266065902 -334718742 -1581146947 -1948147149 -876208304 1059936768 14996850 180643360 346640776 1784528769 992173023 -1058432556 2131768862 -1645463194 -36002660 320039840 -693760876 1564839624 1171451289 -52751888 -876706650 320988055 2089260139 735924353 1539277078 -2102015141 -749864445 1158173885 -1779910347 1763174916 578714721
REM
CELL 1.54180   50.00000   50.00000   50.00000   90.00000   90.00000   90.00000
LATT -1
SFAC C  
C      1  0.5552700000000  0.4800570000000  0.4587410000000 1.0
C      1  0.5199430000000  0.5552700000000  0.4587410000000 1.0
C      1  0.4447300000000  0.5199430000000  0.4587410000000 1.0
C      1  0.4800570000000  0.4447300000000  0.4587410000000 1.0
C      1  0.4447300000000  0.4800570000000  0.5444490000000 1.0
C      1  0.4800570000000  0.5552700000000  0.5444490000000 1.0
C      1  0.5552700000000  0.5199430000000  0.5444490000000 1.0
C      1  0.5199430000000  0.4447300000000  0.5444490000000 1.0
C      1  0.4330120000000  0.5409070000000  0.4763580000000 1.0
C      1  0.4590930000000  0.4330120000000  0.4763580000000 1.0
C      1  0.5669880000000  0.4590930000000  0.4763580000000 1.0
C      1  0.5409070000000  0.5669880000000  0.4763580000000 1.0
C      1  0.5669880000000  0.5409070000000  0.5268320000000 1.0
C      1  0.5409070000000  0.4330120000000  0.5268320000000 1.0
C      1  0.4330120000000  0.4590930000000  0.5268320000000 1.0
C      1  0.4590930000000  0.5669880000000  0.5268320000000 1.0
C      1  0.4891070000000  0.4784150000000  0.4821210000000 1.0
C      1  0.5215850000000  0.4891070000000  0.4821210000000 1.0
C      1  0.5108930000000  0.5215850000000  0.4821210000000 1.0
C      1  0.4784150000000  0.5108930000000  0.4821210000000 1.0
C      1  0.5108930000000  0.4784150000000  0.5210690000000 1.0
C      1  0.4784150000000  0.4891070000000  0.5210690000000 1.0
C      1  0.4891070000000  0.5215850000000  0.5210690000000 1.0
C      1  0.5215850000000  0.5108930000000  0.5210690000000 1.0
C      1  0.5492320000000  0.5164750000000  0.4976930000000 1.0
C      1  0.4835250000000  0.5492320000000  0.4976930000000 1.0
C      1  0.4507680000000  0.4835250000000  0.4976930000000 1.0
C      1  0.5164750000000  0.4507680000000  0.4976930000000 1.0
C      1  0.4507680000000  0.5164750000000  0.5054970000000 1.0
C      1  0.5164750000000  0.5492320000000  0.5054970000000 1.0
C      1  0.5492320000000  0.4835250000000  0.5054970000000 1.0
C      1  0.4835250000000  0.4507680000000  0.5054970000000 1.0
C      1  0.4891050000000  0.5535570000000  0.4660920000000 1.0
C      1  0.4464430000000  0.4891050000000  0.4660920000000 1.0
C      1  0.5108950000000  0.4464430000000  0.4660920000000 1.0
C      1  0.5535570000000  0.5108950000000  0.4660920000000 1.0
C      1  0.5108950000000  0.5535570000000  0.5370980000000 1.0
C      1  0.5535570000000  0.4891050000000  0.5370980000000 1.0
C      1  0.4891050000000  0.4464430000000  0.5370980000000 1.0
C      1  0.4464430000000  0.5108950000000  0.5370980000000 1.0
C      1  0.4738050000000  0.5287650000000  0.4518720000000 1.0
C      1  0.4712350000000  0.4738050000000  0.4518720000000 1.0
C      1  0.5261950000000  0.4712350000000  0.4518720000000 1.0
C      1  0.5287650000000  0.5261950000000  0.4518720000000 1.0
C      1  0.5261950000000  0.5287650000000  0.5513180000000 1.0
C      1  0.5287650000000  0.4738050000000  0.5513180000000 1.0
C      1  0.4738050000000  0.4712350000000  0.5513180000000 1.0
C      1  0.4712350000000  0.5261950000000  0.5513180000000 1.0
C      1  0.5167700000000  0.5145300000000  0.4277040000000 1.0
C      1  0.4854700000000  0.5167700000000  0.4277040000000 1.0
C      1  0.4832300000000  0.4854700000000  0.4277040000000 1.0
C      1  0.5145300000000  0.4832300000000  0.4277040000000 1.0
C      1  0.4832300000000  0.5145300000000  0.5754860000000 1.0
C      1  0.5145300000000  0.5167700000000  0.5754860000000 1.0
C      1  0.5167700000000  0.4854700000000  0.5754860000000 1.0
C      1  0.4854700000000  0.4832300000000  0.5754860000000 1.0
C      1  0.4499730000000  0.5500270000000  0.5015950000000 1.0
C      1  0.4499730000000  0.4499730000000  0.5015950000000 1.0
C      1  0.5500270000000  0.4499730000000  0.5015950000000 1.0
C      1  0.5500270000000  0.5500270000000  0.5015950000000 1.0
END
