TITL C-21445-1691-18 0.0260721431202865 125000 -289.252645207968 0 0 60 (C5) n - 1
REM
REM in /home/nfs/bkarasulu/CARBON/AIRSS/Generating-Clusters/TERSOFF/Higher-Symm/Only-C60
REM
REM
REM
REM
REM
REM ./C.cell (28575a23ae977d3b5fae324c64b13b57)
REM
REM compiler GCC version 9.2.1 20190827 (Red Hat 9.2.1-1)
REM options -cpp -mtune=generic -march=x86-64 -g -O0 -fpre-include=/usr/include/finclude/math-vector-fortran.h
REM seed -1221540707 -706030979 833467615 2052569686 522024055 -1595803212 841349774 1773481562 1577956585 875489649 -1451691030 -666685950 -145720940 -468897068 1749501126 -102466836 -702490195 643664744 -324278044 -863044092 1068048502 -1115484145 244320254 -1950228011 -1918764982 -684659452 -1331907296 -851855308 1169958601 1055006503 1765732900 1424778640 1159781892
REM
CELL 1.54180   50.00000   50.00000   50.00000   90.00000   90.00000   90.00000
LATT -1
SFAC C  
C      1  0.5281930000000  0.4812550000000  0.4968450000000 1.0
C      1  0.5116990000000  0.4812720000000  0.5257960000000 1.0
C      1  0.4789570000000  0.4812520000000  0.5192100000000 1.0
C      1  0.4753310000000  0.4813230000000  0.4860230000000 1.0
C      1  0.5056350000000  0.4812820000000  0.4722540000000 1.0
C      1  0.5259470000000  0.5138130000000  0.5034310000000 1.0
C      1  0.5048840000000  0.5136520000000  0.5256920000000 1.0
C      1  0.4769860000000  0.5136170000000  0.5124290000000 1.0
C      1  0.4810490000000  0.5138340000000  0.4819280000000 1.0
C      1  0.5112520000000  0.5139210000000  0.4762480000000 1.0
C      1  0.4367880000000  0.4845600000000  0.5026990000000 1.0
C      1  0.4779060000000  0.4845720000000  0.4407420000000 1.0
C      1  0.5495530000000  0.4845670000000  0.4606720000000 1.0
C      1  0.5527500000000  0.4845050000000  0.5350030000000 1.0
C      1  0.4830110000000  0.4845430000000  0.5609150000000 1.0
C      1  0.5076610000000  0.4715420000000  0.4427420000000 1.0
C      1  0.5567990000000  0.4715840000000  0.4895760000000 1.0
C      1  0.5274630000000  0.4714980000000  0.5508580000000 1.0
C      1  0.4601260000000  0.4715460000000  0.5417880000000 1.0
C      1  0.4479490000000  0.4715270000000  0.4750080000000 1.0
C      1  0.4347060000000  0.5207110000000  0.4730410000000 1.0
C      1  0.5054550000000  0.5207180000000  0.4295620000000 1.0
C      1  0.5686850000000  0.5207300000000  0.4834010000000 1.0
C      1  0.5369710000000  0.5206750000000  0.5601570000000 1.0
C      1  0.4541950000000  0.5207150000000  0.5537610000000 1.0
C      1  0.5026090000000  0.5555180000000  0.5260050000000 1.0
C      1  0.4760690000000  0.5555800000000  0.5105580000000 1.0
C      1  0.4825350000000  0.5555850000000  0.4804920000000 1.0
C      1  0.5132240000000  0.5556660000000  0.4773780000000 1.0
C      1  0.5256060000000  0.5555340000000  0.5055920000000 1.0
C      1  0.5187950000000  0.4450340000000  0.4515520000000 1.0
C      1  0.5518990000000  0.4450740000000  0.5029260000000 1.0
C      1  0.5132580000000  0.4449660000000  0.5503140000000 1.0
C      1  0.4562790000000  0.4449900000000  0.5281880000000 1.0
C      1  0.4597050000000  0.4449770000000  0.4671630000000 1.0
C      1  0.5062490000000  0.4323670000000  0.5249900000000 1.0
C      1  0.4781650000000  0.4322920000000  0.5137010000000 1.0
C      1  0.4802560000000  0.4323030000000  0.4834930000000 1.0
C      1  0.5096140000000  0.4324040000000  0.4761600000000 1.0
C      1  0.5256580000000  0.4324510000000  0.5017900000000 1.0
C      1  0.4350510000000  0.4939510000000  0.4586250000000 1.0
C      1  0.5192810000000  0.4939650000000  0.4254400000000 1.0
C      1  0.5768760000000  0.4939850000000  0.4952770000000 1.0
C      1  0.5282280000000  0.4939400000000  0.5716390000000 1.0
C      1  0.4405760000000  0.4939660000000  0.5489900000000 1.0
C      1  0.4539260000000  0.5335500000000  0.5211370000000 1.0
C      1  0.4656740000000  0.5336060000000  0.4627410000000 1.0
C      1  0.5248050000000  0.5336280000000  0.4558150000000 1.0
C      1  0.5497530000000  0.5336440000000  0.5099350000000 1.0
C      1  0.5058790000000  0.5335350000000  0.5503460000000 1.0
C      1  0.5510500000000  0.5153630000000  0.4594270000000 1.0
C      1  0.5543750000000  0.5153360000000  0.5360030000000 1.0
C      1  0.4825410000000  0.5153370000000  0.5628350000000 1.0
C      1  0.4348700000000  0.5153200000000  0.5027930000000 1.0
C      1  0.4772130000000  0.5153310000000  0.4389350000000 1.0
C      1  0.5170260000000  0.5523250000000  0.4261290000000 1.0
C      1  0.5755340000000  0.5523460000000  0.4933610000000 1.0
C      1  0.5296450000000  0.5522890000000  0.5697740000000 1.0
C      1  0.4428070000000  0.5523150000000  0.5497370000000 1.0
C      1  0.4350180000000  0.5523180000000  0.4609810000000 1.0
END
