TITL C-21449-9478-11 2.42077256856632e-05 125000 -327.497954626895 0 0 60 (Cs) n - 1
REM
REM in /home/nfs/bkarasulu/CARBON/AIRSS/Generating-Clusters/TERSOFF/Higher-Symm/Only-C60
REM
REM
REM
REM
REM
REM ./C.cell (28575a23ae977d3b5fae324c64b13b57)
REM
REM compiler GCC version 9.2.1 20190827 (Red Hat 9.2.1-1)
REM options -cpp -mtune=generic -march=x86-64 -g -O0 -fpre-include=/usr/include/finclude/math-vector-fortran.h
REM seed 1546017387 1763744260 1590057723 344032133 1207998333 1683074376 -1974817590 782012977 -1845168664 1502300465 -2025180371 -1440790893 845875439 -622455831 -1447534485 1856953746 -1237134486 2126003667 -556796376 1173666070 -2097838875 1852433131 386517855 2018934787 -920489557 -1763571872 2003793848 13646496 -535379940 -2003483005 -1458944464 -425151342 -487111408
REM
CELL 1.54180   50.00000   50.00000   50.00000   90.00000   90.00000   90.00000
LATT -1
SFAC C  
C      1  0.4834610000000  0.5533700000000  0.4613580000000 1.0
C      1  0.5165400000000  0.5533710000000  0.4613580000000 1.0
C      1  0.5142990000000  0.5055540000000  0.5190400000000 1.0
C      1  0.4857020000000  0.5055620000000  0.5190400000000 1.0
C      1  0.5565900000000  0.5111250000000  0.4998810000000 1.0
C      1  0.4434110000000  0.5111250000000  0.4998810000000 1.0
C      1  0.5160360000000  0.5056090000000  0.4469190000000 1.0
C      1  0.4839630000000  0.5056080000000  0.4469200000000 1.0
C      1  0.5159840000000  0.5418340000000  0.4908140000000 1.0
C      1  0.4840170000000  0.5418340000000  0.4908140000000 1.0
C      1  0.4858510000000  0.5183330000000  0.5590240000000 1.0
C      1  0.5141500000000  0.5183360000000  0.5590280000000 1.0
C      1  0.5499350000000  0.4725610000000  0.4675640000000 1.0
C      1  0.4500560000000  0.4725670000000  0.4675650000000 1.0
C      1  0.4714160000000  0.5407730000000  0.5472730000000 1.0
C      1  0.5285850000000  0.5407730000000  0.5472760000000 1.0
C      1  0.4628260000000  0.4378360000000  0.5046800000000 1.0
C      1  0.5371980000000  0.4377980000000  0.5046820000000 1.0
C      1  0.5391880000000  0.4519970000000  0.4479780000000 1.0
C      1  0.4608110000000  0.4519970000000  0.4479840000000 1.0
C      1  0.5142010000000  0.4715420000000  0.4944450000000 1.0
C      1  0.4857980000000  0.4715390000000  0.4944450000000 1.0
C      1  0.5165940000000  0.4650660000000  0.5476200000000 1.0
C      1  0.4834000000000  0.4650690000000  0.5476190000000 1.0
C      1  0.4401590000000  0.5248080000000  0.4603150000000 1.0
C      1  0.5598410000000  0.5248070000000  0.4603140000000 1.0
C      1  0.4852920000000  0.4866450000000  0.5908110000000 1.0
C      1  0.5147070000000  0.4866440000000  0.5908110000000 1.0
C      1  0.4677990000000  0.5312150000000  0.4485360000000 1.0
C      1  0.5322010000000  0.5312160000000  0.4485340000000 1.0
C      1  0.4747200000000  0.4909860000000  0.4726100000000 1.0
C      1  0.5252780000000  0.4909900000000  0.4726110000000 1.0
C      1  0.5548640000000  0.4612390000000  0.4961330000000 1.0
C      1  0.4451390000000  0.4612290000000  0.4961190000000 1.0
C      1  0.4838350000000  0.4881410000000  0.4202420000000 1.0
C      1  0.5161630000000  0.4881420000000  0.4202400000000 1.0
C      1  0.4442210000000  0.5014900000000  0.5462680000000 1.0
C      1  0.5557770000000  0.5014880000000  0.5462640000000 1.0
C      1  0.5170690000000  0.4386620000000  0.5272730000000 1.0
C      1  0.4829330000000  0.4386520000000  0.5272580000000 1.0
C      1  0.5296320000000  0.4911880000000  0.5637450000000 1.0
C      1  0.4703690000000  0.4911890000000  0.5637460000000 1.0
C      1  0.5182350000000  0.5570990000000  0.5195110000000 1.0
C      1  0.4817640000000  0.5570980000000  0.5195100000000 1.0
C      1  0.5276330000000  0.5143770000000  0.4942230000000 1.0
C      1  0.4723680000000  0.5143760000000  0.4942220000000 1.0
C      1  0.4322490000000  0.4957550000000  0.4577220000000 1.0
C      1  0.5677470000000  0.4957520000000  0.4577240000000 1.0
C      1  0.4460890000000  0.5501390000000  0.5151590000000 1.0
C      1  0.5539100000000  0.5501380000000  0.5151600000000 1.0
C      1  0.5602240000000  0.4851430000000  0.5186190000000 1.0
C      1  0.4397770000000  0.4851430000000  0.5186240000000 1.0
C      1  0.4422140000000  0.5327700000000  0.5429990000000 1.0
C      1  0.5577860000000  0.5327690000000  0.5429980000000 1.0
C      1  0.5178800000000  0.4575760000000  0.4278770000000 1.0
C      1  0.4821190000000  0.4575760000000  0.4278820000000 1.0
C      1  0.4313400000000  0.5381470000000  0.4889340000000 1.0
C      1  0.5686610000000  0.5381480000000  0.4889340000000 1.0
C      1  0.5274440000000  0.4790490000000  0.5224360000000 1.0
C      1  0.4725470000000  0.4790360000000  0.5224290000000 1.0
END
