TITL C-21453-3943-9 0.000812191831187853 125000 -301.80602727764 0 0 60 (C1) n - 1
REM
REM in /home/nfs/bkarasulu/CARBON/AIRSS/Generating-Clusters/TERSOFF/Higher-Symm/Only-C60
REM
REM
REM
REM
REM
REM ./C.cell (28575a23ae977d3b5fae324c64b13b57)
REM
REM compiler GCC version 9.2.1 20190827 (Red Hat 9.2.1-1)
REM options -cpp -mtune=generic -march=x86-64 -g -O0 -fpre-include=/usr/include/finclude/math-vector-fortran.h
REM seed -2083764430 900165049 -1920148214 766694980 1027897539 -1085627368 -258671751 -521103607 332650731 500476400 -1328700532 1988762744 1223222912 -383580534 -1945549414 -599356798 633798593 1453430909 -1719949494 -1425725848 -534344642 -584799210 1899806606 1301246164 -1162155893 -1946446900 -105749225 -1924757369 -1677708856 -1696906599 1518794846 -83535735 -765902153
REM
CELL 1.54180   50.00000   50.00000   50.00000   90.00000   90.00000   90.00000
LATT -1
SFAC C  
C      1  0.5039000000000  0.4360740000000  0.4660640000000 1.0
C      1  0.5292170000000  0.4355110000000  0.4812820000000 1.0
C      1  0.5318250000000  0.4352480000000  0.5110590000000 1.0
C      1  0.5085260000000  0.4360310000000  0.5324640000000 1.0
C      1  0.4773880000000  0.4353600000000  0.5301280000000 1.0
C      1  0.4629630000000  0.4389890000000  0.5038400000000 1.0
C      1  0.4756860000000  0.4347260000000  0.4765700000000 1.0
C      1  0.5349940000000  0.4974580000000  0.4449440000000 1.0
C      1  0.5662770000000  0.4989670000000  0.4902720000000 1.0
C      1  0.5475280000000  0.5008820000000  0.5420150000000 1.0
C      1  0.4940150000000  0.4974220000000  0.5621450000000 1.0
C      1  0.4488190000000  0.4964740000000  0.5358780000000 1.0
C      1  0.4429650000000  0.4963560000000  0.4789560000000 1.0
C      1  0.4804240000000  0.4979970000000  0.4388480000000 1.0
C      1  0.5188410000000  0.5565190000000  0.4686750000000 1.0
C      1  0.5381250000000  0.5569500000000  0.4959670000000 1.0
C      1  0.5290130000000  0.5563820000000  0.5283720000000 1.0
C      1  0.4974110000000  0.5552140000000  0.5415590000000 1.0
C      1  0.4674360000000  0.5542540000000  0.5243720000000 1.0
C      1  0.4626350000000  0.5543970000000  0.4908060000000 1.0
C      1  0.4855270000000  0.5554600000000  0.4663320000000 1.0
C      1  0.5866300000000  0.4972830000000  0.5119500000000 1.0
C      1  0.5415230000000  0.4980000000000  0.5708180000000 1.0
C      1  0.4694760000000  0.4996340000000  0.5796340000000 1.0
C      1  0.4230900000000  0.4938100000000  0.5229440000000 1.0
C      1  0.4323750000000  0.4966150000000  0.4511530000000 1.0
C      1  0.4963480000000  0.4964130000000  0.4137100000000 1.0
C      1  0.5644000000000  0.4959740000000  0.4409870000000 1.0
C      1  0.5512650000000  0.4530460000000  0.4658690000000 1.0
C      1  0.5574720000000  0.4537390000000  0.5175960000000 1.0
C      1  0.5224120000000  0.4598740000000  0.5470300000000 1.0
C      1  0.4630120000000  0.4524900000000  0.5578420000000 1.0
C      1  0.4346030000000  0.4500110000000  0.5027170000000 1.0
C      1  0.4575420000000  0.4534770000000  0.4578470000000 1.0
C      1  0.5048590000000  0.4547820000000  0.4408990000000 1.0
C      1  0.4271430000000  0.4791540000000  0.4989500000000 1.0
C      1  0.4544870000000  0.4807510000000  0.4397400000000 1.0
C      1  0.5181540000000  0.4802880000000  0.4255330000000 1.0
C      1  0.5706980000000  0.4804720000000  0.4653330000000 1.0
C      1  0.5699990000000  0.4821030000000  0.5313120000000 1.0
C      1  0.5178060000000  0.4802910000000  0.5714520000000 1.0
C      1  0.4478070000000  0.4842860000000  0.5655760000000 1.0
C      1  0.5437120000000  0.4781170000000  0.4986280000000 1.0
C      1  0.5268730000000  0.4814560000000  0.5252870000000 1.0
C      1  0.4830050000000  0.4740150000000  0.5453360000000 1.0
C      1  0.4745920000000  0.4790570000000  0.5161000000000 1.0
C      1  0.4676600000000  0.4753600000000  0.4833660000000 1.0
C      1  0.4928620000000  0.4783200000000  0.4624750000000 1.0
C      1  0.5264850000000  0.4775100000000  0.4698110000000 1.0
C      1  0.5318140000000  0.5231350000000  0.5243070000000 1.0
C      1  0.4993030000000  0.5216620000000  0.5401930000000 1.0
C      1  0.4691260000000  0.5202070000000  0.5222540000000 1.0
C      1  0.4635250000000  0.5206050000000  0.4865490000000 1.0
C      1  0.4865830000000  0.5231400000000  0.4585790000000 1.0
C      1  0.5229320000000  0.5241190000000  0.4599700000000 1.0
C      1  0.5436060000000  0.5237970000000  0.4899300000000 1.0
C      1  0.5002570000000  0.5402380000000  0.5025680000000 1.0
C      1  0.4992140000000  0.5712030000000  0.5027710000000 1.0
C      1  0.5037140000000  0.5121750000000  0.4950940000000 1.0
C      1  0.5020090000000  0.4908530000000  0.5119040000000 1.0
END
