TITL C-21449-9478-21 -0.00306548361262475 125000 -317.199838206408 0 0 60 (C2v) n - 1
REM
REM in /home/nfs/bkarasulu/CARBON/AIRSS/Generating-Clusters/TERSOFF/Higher-Symm/Only-C60
REM
REM
REM
REM
REM
REM ./C.cell (28575a23ae977d3b5fae324c64b13b57)
REM
REM compiler GCC version 9.2.1 20190827 (Red Hat 9.2.1-1)
REM options -cpp -mtune=generic -march=x86-64 -g -O0 -fpre-include=/usr/include/finclude/math-vector-fortran.h
REM seed 90651972 1982812388 910646839 1361298475 10426442 -969254724 -442991758 -1385143252 -1764513355 -1569828785 116809238 423340990 2108883288 1365494449 -1879187187 2030217166 -1976363570 -1101576122 2057307296 -552859253 -382764601 -76225829 1409473955 1746744410 2086275144 1012073111 -734261236 387844399 815909790 980935895 795200332 -930438245 -860523835
REM
CELL 1.54180   50.00000   50.00000   50.00000   90.00000   90.00000   90.00000
LATT -1
SFAC C  
C      1  0.4455470000000  0.5155770000000  0.5292980000000 1.0
C      1  0.4455470000000  0.4844230000000  0.4707020000000 1.0
C      1  0.4455470000000  0.4844230000000  0.5292980000000 1.0
C      1  0.4455470000000  0.5155770000000  0.4707020000000 1.0
C      1  0.4804510000000  0.4839480000000  0.5643280000000 1.0
C      1  0.4804510000000  0.5160520000000  0.4356720000000 1.0
C      1  0.4804510000000  0.5160520000000  0.5643280000000 1.0
C      1  0.4804510000000  0.4839480000000  0.4356720000000 1.0
C      1  0.5434070000000  0.4495750000000  0.4565090000000 1.0
C      1  0.5434070000000  0.5504250000000  0.5434910000000 1.0
C      1  0.5434070000000  0.5504250000000  0.4565090000000 1.0
C      1  0.5434070000000  0.4495750000000  0.5434910000000 1.0
C      1  0.4685770000000  0.4434630000000  0.4643990000000 1.0
C      1  0.4685770000000  0.5565370000000  0.5356010000000 1.0
C      1  0.4685770000000  0.5565370000000  0.4643990000000 1.0
C      1  0.4685770000000  0.4434630000000  0.5356010000000 1.0
C      1  0.5076990000000  0.5154160000000  0.5268210000000 1.0
C      1  0.5076990000000  0.4845840000000  0.4731790000000 1.0
C      1  0.5076990000000  0.4845840000000  0.5268210000000 1.0
C      1  0.5076990000000  0.5154160000000  0.4731790000000 1.0
C      1  0.5135380000000  0.5527010000000  0.5450710000000 1.0
C      1  0.5135380000000  0.4472990000000  0.4549290000000 1.0
C      1  0.5135380000000  0.4472990000000  0.5450710000000 1.0
C      1  0.5135380000000  0.5527010000000  0.4549290000000 1.0
C      1  0.4595810000000  0.5316790000000  0.5502470000000 1.0
C      1  0.4595810000000  0.4683210000000  0.4497530000000 1.0
C      1  0.4595810000000  0.4683210000000  0.5502470000000 1.0
C      1  0.4595810000000  0.5316790000000  0.4497530000000 1.0
C      1  0.4772320000000  0.5169700000000  0.4848380000000 1.0
C      1  0.4772320000000  0.4830300000000  0.5151620000000 1.0
C      1  0.4772320000000  0.4830300000000  0.4848380000000 1.0
C      1  0.4772320000000  0.5169700000000  0.5151620000000 1.0
C      1  0.4941630000000  0.4417330000000  0.5180810000000 1.0
C      1  0.4941630000000  0.5582670000000  0.4819190000000 1.0
C      1  0.4941630000000  0.5582670000000  0.5180810000000 1.0
C      1  0.4941630000000  0.4417330000000  0.4819190000000 1.0
C      1  0.5298780000000  0.5151490000000  0.5734760000000 1.0
C      1  0.5298780000000  0.4848510000000  0.4265240000000 1.0
C      1  0.5298780000000  0.4848510000000  0.5734760000000 1.0
C      1  0.5298780000000  0.5151490000000  0.4265240000000 1.0
C      1  0.5403330000000  0.4824340000000  0.5175830000000 1.0
C      1  0.5403330000000  0.5175660000000  0.4824170000000 1.0
C      1  0.5403330000000  0.5175660000000  0.5175830000000 1.0
C      1  0.5403330000000  0.4824340000000  0.4824170000000 1.0
C      1  0.5530700000000  0.5183340000000  0.5516760000000 1.0
C      1  0.5530700000000  0.4816660000000  0.4483240000000 1.0
C      1  0.5530700000000  0.4816660000000  0.5516760000000 1.0
C      1  0.5530700000000  0.5183340000000  0.4483240000000 1.0
C      1  0.5562350000000  0.5493490000000  0.5153500000000 1.0
C      1  0.5562350000000  0.4506510000000  0.4846500000000 1.0
C      1  0.5562350000000  0.4506510000000  0.5153500000000 1.0
C      1  0.5562350000000  0.5493490000000  0.4846500000000 1.0
C      1  0.5060960000000  0.5304140000000  0.4339880000000 1.0
C      1  0.5060960000000  0.4695860000000  0.5660120000000 1.0
C      1  0.5060960000000  0.4695860000000  0.4339880000000 1.0
C      1  0.5060960000000  0.5304140000000  0.5660120000000 1.0
C      1  0.4241930000000  0.5282880000000  0.5142750000000 1.0
C      1  0.4241930000000  0.4717120000000  0.4857250000000 1.0
C      1  0.4241930000000  0.4717120000000  0.5142750000000 1.0
C      1  0.4241930000000  0.5282880000000  0.4857250000000 1.0
END
