TITL C-21447-2359-34 2.54215811809695e-07 125000 -342.908827502465 0 0 60 (D2d) n - 1
REM
REM in /home/nfs/bkarasulu/CARBON/AIRSS/Generating-Clusters/TERSOFF/Higher-Symm/Only-C60
REM
REM
REM
REM
REM
REM ./C.cell (28575a23ae977d3b5fae324c64b13b57)
REM
REM compiler GCC version 9.2.1 20190827 (Red Hat 9.2.1-1)
REM options -cpp -mtune=generic -march=x86-64 -g -O0 -fpre-include=/usr/include/finclude/math-vector-fortran.h
REM seed 1206654838 -1934280050 1691450022 -1136742645 -1303341887 1365896766 -1446540709 1187027055 -503259184 -771971127 1885131446 897828997 103437244 -611018141 284856418 1162517402 826637902 897739353 1285412899 -1704767056 1203325768 -1009247362 803271097 1695753222 1002541311 1285881010 1645975318 1231470104 500306953 1183263088 -1397075775 497569787 1763820276
REM
CELL 1.54180   50.00000   50.00000   50.00000   90.00000   90.00000   90.00000
LATT -1
SFAC C  
C      1  0.4754500000000  0.5588330000000  0.5130300000000 1.0
C      1  0.5245500000000  0.4411670000000  0.5130300000000 1.0
C      1  0.5245500000000  0.5588330000000  0.4869700000000 1.0
C      1  0.4754500000000  0.4411670000000  0.4869700000000 1.0
C      1  0.5588330000000  0.4754500000000  0.5130300000000 1.0
C      1  0.4411670000000  0.5245500000000  0.5130300000000 1.0
C      1  0.5588330000000  0.5245500000000  0.4869700000000 1.0
C      1  0.4411670000000  0.4754500000000  0.4869700000000 1.0
C      1  0.5619650000000  0.4587060000000  0.5373780000000 1.0
C      1  0.4380350000000  0.5412940000000  0.5373780000000 1.0
C      1  0.4380350000000  0.4587060000000  0.4626220000000 1.0
C      1  0.5619650000000  0.5412940000000  0.4626220000000 1.0
C      1  0.4587060000000  0.5619650000000  0.5373780000000 1.0
C      1  0.5412940000000  0.4380350000000  0.5373780000000 1.0
C      1  0.4587060000000  0.4380350000000  0.4626220000000 1.0
C      1  0.5412940000000  0.5619650000000  0.4626220000000 1.0
C      1  0.4678680000000  0.4915580000000  0.4870540000000 1.0
C      1  0.5321320000000  0.5084420000000  0.4870540000000 1.0
C      1  0.5321320000000  0.4915580000000  0.5129460000000 1.0
C      1  0.4678680000000  0.5084420000000  0.5129460000000 1.0
C      1  0.4915580000000  0.4678680000000  0.4870540000000 1.0
C      1  0.5084420000000  0.5321320000000  0.4870540000000 1.0
C      1  0.4915580000000  0.5321320000000  0.5129460000000 1.0
C      1  0.5084420000000  0.4678680000000  0.5129460000000 1.0
C      1  0.5619250000000  0.4597820000000  0.4876560000000 1.0
C      1  0.4380750000000  0.5402180000000  0.4876560000000 1.0
C      1  0.4380750000000  0.4597820000000  0.5123440000000 1.0
C      1  0.5619250000000  0.5402180000000  0.5123440000000 1.0
C      1  0.4597820000000  0.5619250000000  0.4876560000000 1.0
C      1  0.5402180000000  0.4380750000000  0.4876560000000 1.0
C      1  0.4597820000000  0.4380750000000  0.5123440000000 1.0
C      1  0.5402180000000  0.5619250000000  0.5123440000000 1.0
C      1  0.5080800000000  0.4717340000000  0.5620020000000 1.0
C      1  0.4919200000000  0.5282660000000  0.5620020000000 1.0
C      1  0.4919200000000  0.4717340000000  0.4379980000000 1.0
C      1  0.5080800000000  0.5282660000000  0.4379980000000 1.0
C      1  0.4717340000000  0.5080800000000  0.5620020000000 1.0
C      1  0.5282660000000  0.4919200000000  0.5620020000000 1.0
C      1  0.4717340000000  0.4919200000000  0.4379980000000 1.0
C      1  0.5282660000000  0.5080800000000  0.4379980000000 1.0
C      1  0.5093290000000  0.4677720000000  0.4615600000000 1.0
C      1  0.4906710000000  0.5322280000000  0.4615600000000 1.0
C      1  0.4906710000000  0.4677720000000  0.5384400000000 1.0
C      1  0.5093290000000  0.5322280000000  0.5384400000000 1.0
C      1  0.4677720000000  0.5093290000000  0.4615600000000 1.0
C      1  0.5322280000000  0.4906710000000  0.4615600000000 1.0
C      1  0.4677720000000  0.4906710000000  0.5384400000000 1.0
C      1  0.5322280000000  0.5093290000000  0.5384400000000 1.0
C      1  0.4424020000000  0.4728090000000  0.5396040000000 1.0
C      1  0.5575980000000  0.5271910000000  0.5396040000000 1.0
C      1  0.5575980000000  0.4728090000000  0.4603960000000 1.0
C      1  0.4424020000000  0.5271910000000  0.4603960000000 1.0
C      1  0.4728090000000  0.4424020000000  0.5396040000000 1.0
C      1  0.5271910000000  0.5575980000000  0.5396040000000 1.0
C      1  0.4728090000000  0.5575980000000  0.4603960000000 1.0
C      1  0.5271910000000  0.4424020000000  0.4603960000000 1.0
C      1  0.4494000000000  0.4494000000000  0.5591660000000 1.0
C      1  0.4494000000000  0.5506000000000  0.4408340000000 1.0
C      1  0.5506000000000  0.4494000000000  0.4408340000000 1.0
C      1  0.5506000000000  0.5506000000000  0.5591660000000 1.0
END
