TITL C-21454-5660-31 0.00288096281409194 125000 -359.137698412098 0 0 60 (C5) n - 1
REM
REM in /home/nfs/bkarasulu/CARBON/AIRSS/Generating-Clusters/TERSOFF/Higher-Symm/Only-C60
REM
REM
REM
REM
REM
REM ./C.cell (28575a23ae977d3b5fae324c64b13b57)
REM
REM compiler GCC version 9.2.1 20190827 (Red Hat 9.2.1-1)
REM options -cpp -mtune=generic -march=x86-64 -g -O0 -fpre-include=/usr/include/finclude/math-vector-fortran.h
REM seed 1546435751 -885160400 1555619217 -1398524253 -1015549659 504871415 339335792 1304887294 -111541764 -1474759456 -90030465 1179118037 2108216108 -1586745589 -2011272462 -1557493783 35159650 197014015 -1464545876 -1411367136 -1657475440 -296547772 1396363217 -2036392067 -708858939 835353129 1290902298 1334010095 639629021 -179774551 1072927504 908577854 936527984
REM
CELL 1.54180   50.00000   50.00000   50.00000   90.00000   90.00000   90.00000
LATT -1
SFAC C  
C      1  0.5652630000000  0.5296710000000  0.4928210000000 1.0
C      1  0.5483860000000  0.4471000000000  0.4928210000000 1.0
C      1  0.4646410000000  0.4376360000000  0.4928210000000 1.0
C      1  0.4297620000000  0.5143560000000  0.4928210000000 1.0
C      1  0.4919480000000  0.5712380000000  0.4928210000000 1.0
C      1  0.4987670000000  0.4389980000000  0.5255380000000 1.0
C      1  0.4416120000000  0.4823220000000  0.5255350000000 1.0
C      1  0.4651330000000  0.5500910000000  0.5255380000000 1.0
C      1  0.5368680000000  0.5486390000000  0.5255400000000 1.0
C      1  0.5576350000000  0.4799750000000  0.5255370000000 1.0
C      1  0.4605250000000  0.4657280000000  0.5412430000000 1.0
C      1  0.4552450000000  0.5269390000000  0.5412030000000 1.0
C      1  0.5117900000000  0.5508920000000  0.5412050000000 1.0
C      1  0.5520720000000  0.5045220000000  0.5412340000000 1.0
C      1  0.5203920000000  0.4518730000000  0.5412350000000 1.0
C      1  0.4714530000000  0.5592490000000  0.4752170000000 1.0
C      1  0.5475280000000  0.5454590000000  0.4752170000000 1.0
C      1  0.5579210000000  0.4688460000000  0.4752170000000 1.0
C      1  0.4882700000000  0.4352870000000  0.4752170000000 1.0
C      1  0.4348300000000  0.4911590000000  0.4752170000000 1.0
C      1  0.4773780000000  0.5130780000000  0.5559690000000 1.0
C      1  0.5054470000000  0.5255550000000  0.5559700000000 1.0
C      1  0.5259850000000  0.5027190000000  0.5559680000000 1.0
C      1  0.5106160000000  0.4761260000000  0.5559670000000 1.0
C      1  0.4805750000000  0.4825260000000  0.5559660000000 1.0
C      1  0.5319090000000  0.5311370000000  0.4545540000000 1.0
C      1  0.5394740000000  0.4792740000000  0.4545540000000 1.0
C      1  0.4924870000000  0.4560540000000  0.4545540000000 1.0
C      1  0.4558830000000  0.4935650000000  0.4545540000000 1.0
C      1  0.4802480000000  0.5399690000000  0.4545540000000 1.0
C      1  0.4202700000000  0.4680000000000  0.5121250000000 1.0
C      1  0.4449320000000  0.5659340000000  0.5121270000000 1.0
C      1  0.5456910000000  0.5727480000000  0.5121270000000 1.0
C      1  0.5833110000000  0.4790250000000  0.5121250000000 1.0
C      1  0.5057960000000  0.4142850000000  0.5121250000000 1.0
C      1  0.4615430000000  0.5202240000000  0.4431950000000 1.0
C      1  0.5073500000000  0.5428250000000  0.4431950000000 1.0
C      1  0.5430000000000  0.5062430000000  0.4431950000000 1.0
C      1  0.5192260000000  0.4610340000000  0.4431950000000 1.0
C      1  0.4688820000000  0.4696740000000  0.4431950000000 1.0
C      1  0.4992920000000  0.4722250000000  0.5111490000000 1.0
C      1  0.4733610000000  0.4921000000000  0.5111440000000 1.0
C      1  0.4842250000000  0.5228770000000  0.5111740000000 1.0
C      1  0.5168800000000  0.5220730000000  0.5111720000000 1.0
C      1  0.5261980000000  0.4907440000000  0.5111500000000 1.0
C      1  0.5371060000000  0.4239220000000  0.4800250000000 1.0
C      1  0.4391120000000  0.4412010000000  0.4800250000000 1.0
C      1  0.4252640000000  0.5397390000000  0.4800260000000 1.0
C      1  0.5146990000000  0.5833590000000  0.4800260000000 1.0
C      1  0.5838210000000  0.5117800000000  0.4800260000000 1.0
C      1  0.4910320000000  0.5644470000000  0.5243960000000 1.0
C      1  0.5585190000000  0.5284470000000  0.5243950000000 1.0
C      1  0.5451380000000  0.4531340000000  0.5243940000000 1.0
C      1  0.4693770000000  0.4425890000000  0.5243930000000 1.0
C      1  0.4359350000000  0.5113880000000  0.5243950000000 1.0
C      1  0.5098130000000  0.4164290000000  0.4837800000000 1.0
C      1  0.4235520000000  0.4648420000000  0.4837810000000 1.0
C      1  0.4429390000000  0.5618430000000  0.4837800000000 1.0
C      1  0.5411840000000  0.5733790000000  0.4837800000000 1.0
C      1  0.5825130000000  0.4835080000000  0.4837800000000 1.0
END
