TITL C-21444-1711-51 -0.000175018871476083 125000 -322.737859132258 0 0 60 (Ci) n - 1
REM
REM in /home/nfs/bkarasulu/CARBON/AIRSS/Generating-Clusters/TERSOFF/Higher-Symm/Only-C60
REM
REM
REM
REM
REM
REM ./C.cell (28575a23ae977d3b5fae324c64b13b57)
REM
REM compiler GCC version 9.2.1 20190827 (Red Hat 9.2.1-1)
REM options -cpp -mtune=generic -march=x86-64 -g -O0 -fpre-include=/usr/include/finclude/math-vector-fortran.h
REM seed 1675159497 1286331698 -1821648972 1355503991 2067728401 838133862 -53475698 -152647536 -1252178318 -743858012 589945535 -835416835 1576685069 -827852612 1499957454 -2014815270 -2016706435 1430254983 -1160361018 -2003429174 -1674949293 193122423 469570386 991527899 868477809 -139853743 -767386200 -2129732911 598807573 -1885658524 422662699 1070757487 -548555355
REM
CELL 1.54180   50.00000   50.00000   50.00000   90.00000   90.00000   90.00000
LATT -1
SFAC C  
C      1  0.4736490000000  0.4356160000000  0.4353860000000 1.0
C      1  0.5268620000000  0.5642840000000  0.5650780000000 1.0
C      1  0.4370590000000  0.4986080000000  0.4728650000000 1.0
C      1  0.5629500000000  0.5013800000000  0.5271250000000 1.0
C      1  0.4591920000000  0.4486860000000  0.5292560000000 1.0
C      1  0.5408190000000  0.5512710000000  0.4707650000000 1.0
C      1  0.5424930000000  0.4612920000000  0.4841010000000 1.0
C      1  0.4574630000000  0.5386650000000  0.5158790000000 1.0
C      1  0.4454810000000  0.4575030000000  0.4744280000000 1.0
C      1  0.5544700000000  0.5425090000000  0.5255830000000 1.0
C      1  0.4392980000000  0.5134610000000  0.5217210000000 1.0
C      1  0.5607020000000  0.4865230000000  0.4782710000000 1.0
C      1  0.5138910000000  0.4973090000000  0.5286730000000 1.0
C      1  0.4861160000000  0.5026880000000  0.4713200000000 1.0
C      1  0.5024810000000  0.4940320000000  0.5802140000000 1.0
C      1  0.4975220000000  0.5059770000000  0.4197890000000 1.0
C      1  0.4691680000000  0.5207150000000  0.4213890000000 1.0
C      1  0.5308290000000  0.4792840000000  0.5786140000000 1.0
C      1  0.4685310000000  0.4752140000000  0.5466470000000 1.0
C      1  0.5314670000000  0.5247860000000  0.4533480000000 1.0
C      1  0.4508640000000  0.5006990000000  0.4332770000000 1.0
C      1  0.5491250000000  0.4992940000000  0.5667230000000 1.0
C      1  0.4733980000000  0.4797310000000  0.5047860000000 1.0
C      1  0.5266290000000  0.5203040000000  0.4952000000000 1.0
C      1  0.5154210000000  0.4942230000000  0.4829360000000 1.0
C      1  0.4845960000000  0.5057750000000  0.5170720000000 1.0
C      1  0.4809940000000  0.5457390000000  0.4445370000000 1.0
C      1  0.5190150000000  0.4542540000000  0.5554680000000 1.0
C      1  0.4618330000000  0.5053470000000  0.5415210000000 1.0
C      1  0.5381680000000  0.4946570000000  0.4584740000000 1.0
C      1  0.4782680000000  0.5302340000000  0.4932950000000 1.0
C      1  0.5217150000000  0.4697720000000  0.5067110000000 1.0
C      1  0.5017430000000  0.4773290000000  0.4267150000000 1.0
C      1  0.4982720000000  0.5227140000000  0.5732880000000 1.0
C      1  0.5380200000000  0.4590430000000  0.5314330000000 1.0
C      1  0.4619700000000  0.5409500000000  0.4685710000000 1.0
C      1  0.4585930000000  0.4410630000000  0.4947520000000 1.0
C      1  0.5413950000000  0.5589550000000  0.5052280000000 1.0
C      1  0.4434040000000  0.4915330000000  0.5009560000000 1.0
C      1  0.5566040000000  0.5084500000000  0.4990410000000 1.0
C      1  0.5075780000000  0.5591070000000  0.4624410000000 1.0
C      1  0.4924090000000  0.4409000000000  0.5375550000000 1.0
C      1  0.4953870000000  0.4551770000000  0.5090990000000 1.0
C      1  0.5046040000000  0.5448200000000  0.4909210000000 1.0
C      1  0.5629150000000  0.4733590000000  0.5346750000000 1.0
C      1  0.4370860000000  0.5266110000000  0.4653400000000 1.0
C      1  0.4711250000000  0.5505910000000  0.5399420000000 1.0
C      1  0.5287530000000  0.4493390000000  0.4598870000000 1.0
C      1  0.4947490000000  0.5676670000000  0.5356410000000 1.0
C      1  0.5049060000000  0.4326090000000  0.4641770000000 1.0
C      1  0.4887910000000  0.4335220000000  0.4887070000000 1.0
C      1  0.5111320000000  0.5664070000000  0.5112180000000 1.0
C      1  0.5218570000000  0.5358600000000  0.5615750000000 1.0
C      1  0.4782110000000  0.4641400000000  0.4384120000000 1.0
C      1  0.4977160000000  0.4795640000000  0.5529210000000 1.0
C      1  0.5022830000000  0.5204390000000  0.4470780000000 1.0
C      1  0.4602270000000  0.4815840000000  0.4576620000000 1.0
C      1  0.5397750000000  0.5184040000000  0.5423150000000 1.0
C      1  0.5273060000000  0.4720500000000  0.4403520000000 1.0
C      1  0.4727220000000  0.5279790000000  0.5596490000000 1.0
END
