TITL C-21443-6457-12 5.83403264352816e-08 125000 -343.355485526446 0 0 60 (C5) n - 1
REM
REM in /home/nfs/bkarasulu/CARBON/AIRSS/Generating-Clusters/TERSOFF/Higher-Symm/Only-C60
REM
REM
REM
REM
REM
REM ./C.cell (28575a23ae977d3b5fae324c64b13b57)
REM
REM compiler GCC version 9.2.1 20190827 (Red Hat 9.2.1-1)
REM options -cpp -mtune=generic -march=x86-64 -g -O0 -fpre-include=/usr/include/finclude/math-vector-fortran.h
REM seed -268255841 1126001827 1477749999 -1044720468 1056757550 540533398 -2093465951 861097403 1024885613 363068328 789872682 -890004316 -1627352589 -1334707165 95531576 -1843264444 -1739122434 611667091 590298840 -777502481 -1512704243 1258669518 -63898349 -1104474583 -47378957 -391132921 -467226627 1768901742 1878974402 1088488533 837060036 -1899905152 1240258376
REM
CELL 1.54180   50.00000   50.00000   50.00000   90.00000   90.00000   90.00000
LATT -1
SFAC C  
C      1  0.4816500000000  0.5677260000000  0.4816940000000 1.0
C      1  0.4769190000000  0.5677260000000  0.5117950000000 1.0
C      1  0.5040850000000  0.5677260000000  0.5255960000000 1.0
C      1  0.5256050000000  0.5677260000000  0.5040240000000 1.0
C      1  0.5117400000000  0.5677260000000  0.4768920000000 1.0
C      1  0.4816500000000  0.4322740000000  0.4816940000000 1.0
C      1  0.4769190000000  0.4322740000000  0.5117950000000 1.0
C      1  0.5040850000000  0.4322740000000  0.5255960000000 1.0
C      1  0.5256050000000  0.4322740000000  0.5040240000000 1.0
C      1  0.5117400000000  0.4322740000000  0.4768920000000 1.0
C      1  0.4682810000000  0.4834700000000  0.4367130000000 1.0
C      1  0.4300090000000  0.4834700000000  0.5106090000000 1.0
C      1  0.4884610000000  0.4834700000000  0.5698440000000 1.0
C      1  0.5628600000000  0.4834700000000  0.5325570000000 1.0
C      1  0.5503880000000  0.4834700000000  0.4502770000000 1.0
C      1  0.4682810000000  0.5165300000000  0.4367130000000 1.0
C      1  0.4300090000000  0.5165300000000  0.5106090000000 1.0
C      1  0.4884610000000  0.5165300000000  0.5698440000000 1.0
C      1  0.5628600000000  0.5165300000000  0.5325570000000 1.0
C      1  0.5503880000000  0.5165300000000  0.4502770000000 1.0
C      1  0.4843970000000  0.4833370000000  0.5220390000000 1.0
C      1  0.5161390000000  0.4833370000000  0.5216500000000 1.0
C      1  0.5255780000000  0.4833370000000  0.4913410000000 1.0
C      1  0.4996690000000  0.4833370000000  0.4729980000000 1.0
C      1  0.4742180000000  0.4833370000000  0.4919700000000 1.0
C      1  0.4843970000000  0.5166630000000  0.5220390000000 1.0
C      1  0.5161390000000  0.5166630000000  0.5216500000000 1.0
C      1  0.5255780000000  0.5166630000000  0.4913410000000 1.0
C      1  0.4996690000000  0.5166630000000  0.4729980000000 1.0
C      1  0.4742180000000  0.5166630000000  0.4919700000000 1.0
C      1  0.5126060000000  0.5324670000000  0.5629620000000 1.0
C      1  0.5637760000000  0.5324680000000  0.5074670000000 1.0
C      1  0.5268090000000  0.5324680000000  0.4416530000000 1.0
C      1  0.4527930000000  0.5324670000000  0.4564730000000 1.0
C      1  0.4440150000000  0.5324670000000  0.5314460000000 1.0
C      1  0.5126060000000  0.4675330000000  0.5629620000000 1.0
C      1  0.5637760000000  0.4675320000000  0.5074670000000 1.0
C      1  0.5268090000000  0.4675320000000  0.4416530000000 1.0
C      1  0.4527930000000  0.4675330000000  0.4564730000000 1.0
C      1  0.4440150000000  0.4675330000000  0.5314460000000 1.0
C      1  0.4646160000000  0.5167320000000  0.5476580000000 1.0
C      1  0.5343910000000  0.5167320000000  0.5483800000000 1.0
C      1  0.5566400000000  0.5167320000000  0.4822420000000 1.0
C      1  0.5006140000000  0.5167320000000  0.4406440000000 1.0
C      1  0.4437400000000  0.5167320000000  0.4810750000000 1.0
C      1  0.4646160000000  0.4832680000000  0.5476580000000 1.0
C      1  0.5343910000000  0.4832680000000  0.5483800000000 1.0
C      1  0.5566400000000  0.4832680000000  0.4822420000000 1.0
C      1  0.5006140000000  0.4832680000000  0.4406440000000 1.0
C      1  0.4437400000000  0.4832680000000  0.4810750000000 1.0
C      1  0.4615570000000  0.4399500000000  0.4616550000000 1.0
C      1  0.4516520000000  0.4399500000000  0.5247130000000 1.0
C      1  0.5085630000000  0.4399500000000  0.5536180000000 1.0
C      1  0.5536400000000  0.4399500000000  0.5084260000000 1.0
C      1  0.5245890000000  0.4399500000000  0.4515890000000 1.0
C      1  0.4615570000000  0.5600500000000  0.4616550000000 1.0
C      1  0.4516520000000  0.5600500000000  0.5247130000000 1.0
C      1  0.5085630000000  0.5600500000000  0.5536180000000 1.0
C      1  0.5536400000000  0.5600500000000  0.5084260000000 1.0
C      1  0.5245890000000  0.5600500000000  0.4515890000000 1.0
END
