TITL C-21450-4084-37 -0.000787698344334333 125000 -381.502835299994 0 0 60 (D6d) n - 1
REM
REM in /home/nfs/bkarasulu/CARBON/AIRSS/Generating-Clusters/TERSOFF/Higher-Symm/Only-C60
REM
REM
REM
REM
REM
REM ./C.cell (28575a23ae977d3b5fae324c64b13b57)
REM
REM compiler GCC version 9.2.1 20190827 (Red Hat 9.2.1-1)
REM options -cpp -mtune=generic -march=x86-64 -g -O0 -fpre-include=/usr/include/finclude/math-vector-fortran.h
REM seed -1692925362 1725620770 686002711 1653875265 -951789946 1401496103 1330623233 -886238280 386769220 514776444 1932734539 -1932209900 775598486 1711569802 725625227 -1803221375 1582318833 1705249552 907191146 1721693671 -1067263122 366882259 879062204 -1134882909 1352420599 844713272 287587643 -2033808139 1345805790 -1799414887 -718337431 -1229537834 -1539077224
REM
CELL 1.54180   50.00000   50.00000   50.00000   90.00000   90.00000   90.00000
LATT -1
SFAC C  
C      1  0.4682980000000  0.5665480000000  0.5178630000000 1.0
C      1  0.4683130000000  0.5178200000000  0.5665590000000 1.0
C      1  0.4683080000000  0.4512680000000  0.5487140000000 1.0
C      1  0.4682980000000  0.4334520000000  0.4821370000000 1.0
C      1  0.4683130000000  0.4821800000000  0.4334410000000 1.0
C      1  0.4683080000000  0.5487320000000  0.4512860000000 1.0
C      1  0.5317020000000  0.4334520000000  0.5178630000000 1.0
C      1  0.5316870000000  0.4821800000000  0.5665590000000 1.0
C      1  0.5316920000000  0.5487320000000  0.5487140000000 1.0
C      1  0.5317020000000  0.5665480000000  0.4821370000000 1.0
C      1  0.5316870000000  0.5178200000000  0.4334410000000 1.0
C      1  0.5316920000000  0.4512680000000  0.4512860000000 1.0
C      1  0.5145740000000  0.4363380000000  0.5424040000000 1.0
C      1  0.5145660000000  0.4314370000000  0.4660500000000 1.0
C      1  0.5145700000000  0.4951180000000  0.4236640000000 1.0
C      1  0.5145740000000  0.5636620000000  0.4575960000000 1.0
C      1  0.5145660000000  0.5685630000000  0.5339500000000 1.0
C      1  0.5145700000000  0.5048820000000  0.5763360000000 1.0
C      1  0.4854260000000  0.5636620000000  0.5424040000000 1.0
C      1  0.4854340000000  0.5685630000000  0.4660500000000 1.0
C      1  0.4854300000000  0.5048820000000  0.4236640000000 1.0
C      1  0.4854260000000  0.4363380000000  0.4575960000000 1.0
C      1  0.4854340000000  0.4314370000000  0.5339500000000 1.0
C      1  0.4854300000000  0.4951180000000  0.5763360000000 1.0
C      1  0.5583440000000  0.5149390000000  0.4443490000000 1.0
C      1  0.5583330000000  0.5556790000000  0.4851200000000 1.0
C      1  0.5583440000000  0.5407210000000  0.5407700000000 1.0
C      1  0.5583440000000  0.4850610000000  0.5556510000000 1.0
C      1  0.5583330000000  0.4443210000000  0.5148800000000 1.0
C      1  0.5583440000000  0.4592790000000  0.4592300000000 1.0
C      1  0.4416560000000  0.4850610000000  0.4443490000000 1.0
C      1  0.4416670000000  0.4443210000000  0.4851200000000 1.0
C      1  0.4416560000000  0.4592790000000  0.5407700000000 1.0
C      1  0.4416560000000  0.5149390000000  0.5556510000000 1.0
C      1  0.4416670000000  0.5556790000000  0.5148800000000 1.0
C      1  0.4416560000000  0.5407210000000  0.4592300000000 1.0
C      1  0.5145440000000  0.5763080000000  0.5048200000000 1.0
C      1  0.5145300000000  0.5339960000000  0.5684850000000 1.0
C      1  0.5145340000000  0.4576880000000  0.5636900000000 1.0
C      1  0.5145440000000  0.4236920000000  0.4951800000000 1.0
C      1  0.5145300000000  0.4660040000000  0.4315150000000 1.0
C      1  0.5145340000000  0.5423120000000  0.4363100000000 1.0
C      1  0.4854560000000  0.4236920000000  0.5048200000000 1.0
C      1  0.4854700000000  0.4660040000000  0.5684850000000 1.0
C      1  0.4854660000000  0.5423120000000  0.5636900000000 1.0
C      1  0.4854560000000  0.5763080000000  0.4951800000000 1.0
C      1  0.4854700000000  0.5339960000000  0.4315150000000 1.0
C      1  0.4854660000000  0.4576880000000  0.4363100000000 1.0
C      1  0.5642710000000  0.5076060000000  0.4718040000000 1.0
C      1  0.5642910000000  0.5281750000000  0.4924690000000 1.0
C      1  0.5642730000000  0.5206520000000  0.5206420000000 1.0
C      1  0.5642710000000  0.4923940000000  0.5281960000000 1.0
C      1  0.5642910000000  0.4718250000000  0.5075310000000 1.0
C      1  0.5642730000000  0.4793480000000  0.4793580000000 1.0
C      1  0.4357290000000  0.4923940000000  0.4718040000000 1.0
C      1  0.4357090000000  0.4718250000000  0.4924690000000 1.0
C      1  0.4357270000000  0.4793480000000  0.5206420000000 1.0
C      1  0.4357290000000  0.5076060000000  0.5281960000000 1.0
C      1  0.4357090000000  0.5281750000000  0.5075310000000 1.0
C      1  0.4357270000000  0.5206520000000  0.4793580000000 1.0
END
