TITL C-21450-4084-28 -0.000584339674824438 125000 -334.061401016696 0 0 60 (C1) n - 1
REM
REM in /home/nfs/bkarasulu/CARBON/AIRSS/Generating-Clusters/TERSOFF/Higher-Symm/Only-C60
REM
REM
REM
REM
REM
REM ./C.cell (28575a23ae977d3b5fae324c64b13b57)
REM
REM compiler GCC version 9.2.1 20190827 (Red Hat 9.2.1-1)
REM options -cpp -mtune=generic -march=x86-64 -g -O0 -fpre-include=/usr/include/finclude/math-vector-fortran.h
REM seed -1856531466 -1979548860 -1419915520 -1676517839 377939526 115082637 1339520872 1653892168 431505364 -8563847 -1506197840 -1169323492 -923144986 -189050796 -1890113464 1509691277 -1141137247 -421719722 1778835748 -958931969 645348289 1359447821 348298437 -1930593526 -366658759 525398138 -1445558374 -950598789 2137491078 -1639134512 283850765 1955936545 -311021924
REM
CELL 1.54180   50.00000   50.00000   50.00000   90.00000   90.00000   90.00000
LATT -1
SFAC C  
C      1  0.4818330000000  0.4711940000000  0.4234150000000 1.0
C      1  0.4725980000000  0.5210760000000  0.4917650000000 1.0
C      1  0.5532930000000  0.5171920000000  0.5425230000000 1.0
C      1  0.4519940000000  0.4436860000000  0.4769450000000 1.0
C      1  0.5147940000000  0.5461190000000  0.5379760000000 1.0
C      1  0.4732310000000  0.5574580000000  0.4709630000000 1.0
C      1  0.4944560000000  0.5597690000000  0.5222980000000 1.0
C      1  0.4992670000000  0.5133740000000  0.4356400000000 1.0
C      1  0.4965570000000  0.5600540000000  0.4934000000000 1.0
C      1  0.5100420000000  0.4921580000000  0.5264780000000 1.0
C      1  0.5022560000000  0.4472680000000  0.5456380000000 1.0
C      1  0.4566290000000  0.4661800000000  0.5243990000000 1.0
C      1  0.5249620000000  0.5174530000000  0.5273470000000 1.0
C      1  0.5420410000000  0.5076980000000  0.5705230000000 1.0
C      1  0.4686070000000  0.5125670000000  0.4403840000000 1.0
C      1  0.4646510000000  0.4888920000000  0.5030100000000 1.0
C      1  0.5666220000000  0.4690390000000  0.5177300000000 1.0
C      1  0.5083450000000  0.4845740000000  0.4301460000000 1.0
C      1  0.5063260000000  0.4328680000000  0.4870800000000 1.0
C      1  0.5634310000000  0.5517260000000  0.4730970000000 1.0
C      1  0.4962480000000  0.5563410000000  0.4507160000000 1.0
C      1  0.4771450000000  0.4532680000000  0.4610470000000 1.0
C      1  0.5119160000000  0.4757840000000  0.5501190000000 1.0
C      1  0.5544890000000  0.4527690000000  0.5399110000000 1.0
C      1  0.5607090000000  0.5130630000000  0.4946270000000 1.0
C      1  0.4784020000000  0.4332160000000  0.4990450000000 1.0
C      1  0.4575090000000  0.4843570000000  0.4358390000000 1.0
C      1  0.5176740000000  0.5334100000000  0.4547200000000 1.0
C      1  0.4355540000000  0.5017150000000  0.4756300000000 1.0
C      1  0.5692730000000  0.4987390000000  0.5198010000000 1.0
C      1  0.5512030000000  0.5634870000000  0.4997680000000 1.0
C      1  0.4540520000000  0.5645510000000  0.5316100000000 1.0
C      1  0.4765000000000  0.4440640000000  0.5273260000000 1.0
C      1  0.4820830000000  0.4994850000000  0.5265630000000 1.0
C      1  0.5267210000000  0.4466350000000  0.5039150000000 1.0
C      1  0.4253140000000  0.5035520000000  0.5032850000000 1.0
C      1  0.4542560000000  0.5444720000000  0.5081020000000 1.0
C      1  0.5502090000000  0.5295330000000  0.4574460000000 1.0
C      1  0.5220250000000  0.4708110000000  0.4537930000000 1.0
C      1  0.5175680000000  0.4764440000000  0.5027470000000 1.0
C      1  0.4703060000000  0.5074500000000  0.5521760000000 1.0
C      1  0.5014840000000  0.5147470000000  0.4775360000000 1.0
C      1  0.4409040000000  0.4743210000000  0.4612110000000 1.0
C      1  0.4444100000000  0.5218910000000  0.5513010000000 1.0
C      1  0.5287340000000  0.4384670000000  0.5329180000000 1.0
C      1  0.5059790000000  0.4430560000000  0.4588320000000 1.0
C      1  0.4352050000000  0.5242770000000  0.5214330000000 1.0
C      1  0.5231620000000  0.5498940000000  0.4848800000000 1.0
C      1  0.5621170000000  0.5015340000000  0.4668580000000 1.0
C      1  0.4328200000000  0.4680290000000  0.5408340000000 1.0
C      1  0.5503520000000  0.4740660000000  0.4659340000000 1.0
C      1  0.4562200000000  0.5266540000000  0.4644800000000 1.0
C      1  0.5349400000000  0.5248290000000  0.5007750000000 1.0
C      1  0.4801810000000  0.4784840000000  0.4769460000000 1.0
C      1  0.5155140000000  0.4925690000000  0.5741900000000 1.0
C      1  0.4887070000000  0.5069520000000  0.5758400000000 1.0
C      1  0.5538140000000  0.4576420000000  0.4914510000000 1.0
C      1  0.5490210000000  0.5515430000000  0.5311530000000 1.0
C      1  0.4471120000000  0.5514980000000  0.5570960000000 1.0
C      1  0.5082330000000  0.4860520000000  0.4773920000000 1.0
END
