TITL C-21439-636-4 -0.00201308501209477 125000 -324.671254393098 0 0 60 (C5) n - 1
REM
REM in /home/nfs/bkarasulu/CARBON/AIRSS/Generating-Clusters/TERSOFF/Higher-Symm/Only-C60
REM
REM
REM
REM
REM
REM ./C.cell (28575a23ae977d3b5fae324c64b13b57)
REM
REM compiler GCC version 9.2.1 20190827 (Red Hat 9.2.1-1)
REM options -cpp -mtune=generic -march=x86-64 -g -O0 -fpre-include=/usr/include/finclude/math-vector-fortran.h
REM seed -1773812575 1596072171 2145291159 -1742032404 -248291690 -1469925314 1220720589 1773895158 1982375672 124463292 -1201279021 -376902383 -518238759 -1309360238 1240820859 359438822 1381295229 1818109211 -720379657 -442295429 -1524127322 -1924588893 -605094837 1911357053 1983530181 -623619334 -635011149 -1567589875 -117126989 -2096321486 1238367067 -1406688661 -1595585791
REM
CELL 1.54180   50.00000   50.00000   50.00000   90.00000   90.00000   90.00000
LATT -1
SFAC C  
C      1  0.4969580000000  0.4809060000000  0.4325420000000 1.0
C      1  0.4970230000000  0.5581460000000  0.4609450000000 1.0
C      1  0.4970290000000  0.5551910000000  0.5431870000000 1.0
C      1  0.4969630000000  0.4758170000000  0.5657580000000 1.0
C      1  0.4970430000000  0.4299950000000  0.4975400000000 1.0
C      1  0.5196470000000  0.4320450000000  0.4523460000000 1.0
C      1  0.5197350000000  0.5244440000000  0.4206900000000 1.0
C      1  0.5197130000000  0.5829620000000  0.4987110000000 1.0
C      1  0.5196430000000  0.5269430000000  0.5785270000000 1.0
C      1  0.5197470000000  0.4336190000000  0.5497680000000 1.0
C      1  0.4729850000000  0.5180750000000  0.4822770000000 1.0
C      1  0.4729930000000  0.5224130000000  0.5117120000000 1.0
C      1  0.4729770000000  0.4958120000000  0.5249550000000 1.0
C      1  0.4729910000000  0.4749900000000  0.5037060000000 1.0
C      1  0.4729920000000  0.4887240000000  0.4773130000000 1.0
C      1  0.4984220000000  0.4600040000000  0.5029030000000 1.0
C      1  0.4984080000000  0.4848590000000  0.4627860000000 1.0
C      1  0.4984240000000  0.5306510000000  0.4741030000000 1.0
C      1  0.4984050000000  0.5340660000000  0.5211790000000 1.0
C      1  0.4983900000000  0.4903990000000  0.5389610000000 1.0
C      1  0.4949330000000  0.5367580000000  0.4327200000000 1.0
C      1  0.4949310000000  0.5753060000000  0.5141500000000 1.0
C      1  0.4948610000000  0.5099200000000  0.5759570000000 1.0
C      1  0.4949610000000  0.4307320000000  0.5327840000000 1.0
C      1  0.4948540000000  0.4473100000000  0.4444190000000 1.0
C      1  0.4517250000000  0.4618390000000  0.5374620000000 1.0
C      1  0.4516620000000  0.4525710000000  0.4753520000000 1.0
C      1  0.4517060000000  0.5088490000000  0.4472530000000 1.0
C      1  0.4516990000000  0.5528570000000  0.4921220000000 1.0
C      1  0.4516730000000  0.5238460000000  0.5478530000000 1.0
C      1  0.4467060000000  0.5399550000000  0.5207640000000 1.0
C      1  0.4467890000000  0.4926060000000  0.5444600000000 1.0
C      1  0.4467770000000  0.4555210000000  0.5067250000000 1.0
C      1  0.4468070000000  0.4798310000000  0.4596840000000 1.0
C      1  0.4468090000000  0.5320770000000  0.4684010000000 1.0
C      1  0.5217170000000  0.5742280000000  0.4704720000000 1.0
C      1  0.5217330000000  0.5510790000000  0.5614720000000 1.0
C      1  0.5216770000000  0.4572590000000  0.5675200000000 1.0
C      1  0.5217420000000  0.4225600000000  0.4803320000000 1.0
C      1  0.5216770000000  0.4948810000000  0.4202210000000 1.0
C      1  0.4778900000000  0.5661730000000  0.4888180000000 1.0
C      1  0.4778210000000  0.5311920000000  0.5594980000000 1.0
C      1  0.4778730000000  0.4529620000000  0.5480090000000 1.0
C      1  0.4778080000000  0.4397720000000  0.4702450000000 1.0
C      1  0.4778300000000  0.5098310000000  0.4334440000000 1.0
C      1  0.5247360000000  0.4741240000000  0.5021560000000 1.0
C      1  0.5247440000000  0.4899280000000  0.4760030000000 1.0
C      1  0.5247420000000  0.5196650000000  0.4830050000000 1.0
C      1  0.5247190000000  0.5222200000000  0.5134570000000 1.0
C      1  0.5247150000000  0.4940680000000  0.5253030000000 1.0
C      1  0.5466300000000  0.4131630000000  0.4918780000000 1.0
C      1  0.5465050000000  0.4808870000000  0.4149340000000 1.0
C      1  0.5465590000000  0.5750290000000  0.4555470000000 1.0
C      1  0.5466310000000  0.5654480000000  0.5576310000000 1.0
C      1  0.5464930000000  0.4654560000000  0.5800520000000 1.0
C      1  0.5476550000000  0.5382810000000  0.5232860000000 1.0
C      1  0.5476540000000  0.4897060000000  0.5436250000000 1.0
C      1  0.5476800000000  0.4553580000000  0.5036700000000 1.0
C      1  0.5477000000000  0.4827040000000  0.4586320000000 1.0
C      1  0.5476870000000  0.5339850000000  0.4707740000000 1.0
END
