TITL C-21448-1263-44 -0.000148578816092459 125000 -359.32848123858 0 0 60 (C5) n - 1
REM
REM in /home/nfs/bkarasulu/CARBON/AIRSS/Generating-Clusters/TERSOFF/Higher-Symm/Only-C60
REM
REM
REM
REM
REM
REM ./C.cell (28575a23ae977d3b5fae324c64b13b57)
REM
REM compiler GCC version 9.2.1 20190827 (Red Hat 9.2.1-1)
REM options -cpp -mtune=generic -march=x86-64 -g -O0 -fpre-include=/usr/include/finclude/math-vector-fortran.h
REM seed -1800884904 -310694260 1915977545 -1497464382 -873288508 -1955429424 -306650827 1318091072 -132207035 -1131165388 693957104 -1269283071 -385610656 -1194375786 1295346680 354504950 -148429990 1788564027 -2128275354 529820197 340735476 -356456541 -119739062 2037979855 -58653923 -730498302 -1861350053 514523699 -348922761 481769742 1724488164 -1072313055 1784127380
REM
CELL 1.54180   50.00000   50.00000   50.00000   90.00000   90.00000   90.00000
LATT -1
SFAC C  
C      1  0.4427080000000  0.5187560000000  0.5248080000000 1.0
C      1  0.4586990000000  0.5187590000000  0.4531760000000 1.0
C      1  0.5317690000000  0.5187670000000  0.4462540000000 1.0
C      1  0.5609290000000  0.5187700000000  0.5136060000000 1.0
C      1  0.5058880000000  0.5187620000000  0.5621520000000 1.0
C      1  0.4558430000000  0.4986630000000  0.4736300000000 1.0
C      1  0.5114320000000  0.4986730000000  0.4498570000000 1.0
C      1  0.5512180000000  0.4986750000000  0.4953770000000 1.0
C      1  0.5202220000000  0.4986670000000  0.5472840000000 1.0
C      1  0.4612770000000  0.4986600000000  0.5338450000000 1.0
C      1  0.4626790000000  0.4469300000000  0.5351910000000 1.0
C      1  0.4550030000000  0.4469310000000  0.4753760000000 1.0
C      1  0.5095180000000  0.4469350000000  0.4495920000000 1.0
C      1  0.5508880000000  0.4469340000000  0.4934720000000 1.0
C      1  0.5219390000000  0.4469310000000  0.5463760000000 1.0
C      1  0.4749570000000  0.5901310000000  0.4745070000000 1.0
C      1  0.5164980000000  0.5901380000000  0.4683130000000 1.0
C      1  0.5352220000000  0.5901430000000  0.5059090000000 1.0
C      1  0.5052560000000  0.5901360000000  0.5353380000000 1.0
C      1  0.4680100000000  0.5901300000000  0.5159280000000 1.0
C      1  0.5017320000000  0.4555200000000  0.5660890000000 1.0
C      1  0.4376860000000  0.4555200000000  0.5220660000000 1.0
C      1  0.4597620000000  0.4555220000000  0.4475510000000 1.0
C      1  0.5374520000000  0.4555260000000  0.4455210000000 1.0
C      1  0.5633920000000  0.4555230000000  0.5187810000000 1.0
C      1  0.4811830000000  0.4885360000000  0.5161980000000 1.0
C      1  0.4787780000000  0.4885400000000  0.4871080000000 1.0
C      1  0.5057010000000  0.4885480000000  0.4758330000000 1.0
C      1  0.5247430000000  0.4885490000000  0.4979530000000 1.0
C      1  0.5095920000000  0.4885420000000  0.5228990000000 1.0
C      1  0.4736330000000  0.4618160000000  0.5590130000000 1.0
C      1  0.4357310000000  0.4618170000000  0.4931560000000 1.0
C      1  0.4866530000000  0.4618210000000  0.4367590000000 1.0
C      1  0.5560260000000  0.4618240000000  0.4677610000000 1.0
C      1  0.5479790000000  0.4618210000000  0.5433180000000 1.0
C      1  0.5477270000000  0.4904850000000  0.5529120000000 1.0
C      1  0.4644270000000  0.4904790000000  0.5617440000000 1.0
C      1  0.4302840000000  0.4904790000000  0.4852460000000 1.0
C      1  0.4924910000000  0.4904850000000  0.4291370000000 1.0
C      1  0.5650730000000  0.4904880000000  0.4709610000000 1.0
C      1  0.5249220000000  0.5470290000000  0.4499260000000 1.0
C      1  0.5553200000000  0.5470320000000  0.5082280000000 1.0
C      1  0.5092710000000  0.5470250000000  0.5551570000000 1.0
C      1  0.4504060000000  0.5470180000000  0.5258680000000 1.0
C      1  0.4600720000000  0.5470210000000  0.4608250000000 1.0
C      1  0.5045230000000  0.4324250000000  0.4747460000000 1.0
C      1  0.5254210000000  0.4324240000000  0.4964930000000 1.0
C      1  0.5111960000000  0.4324230000000  0.5230880000000 1.0
C      1  0.4815070000000  0.4324220000000  0.5177770000000 1.0
C      1  0.4773830000000  0.4324240000000  0.4879010000000 1.0
C      1  0.4224750000000  0.5093380000000  0.5061130000000 1.0
C      1  0.4702280000000  0.5093410000000  0.4281570000000 1.0
C      1  0.5591260000000  0.5093450000000  0.4494860000000 1.0
C      1  0.5663110000000  0.5093470000000  0.5406210000000 1.0
C      1  0.4818580000000  0.5093410000000  0.5756190000000 1.0
C      1  0.4750350000000  0.5603380000000  0.5127300000000 1.0
C      1  0.4801750000000  0.5603370000000  0.4801940000000 1.0
C      1  0.5127080000000  0.5603440000000  0.4750290000000 1.0
C      1  0.5276720000000  0.5603480000000  0.5043730000000 1.0
C      1  0.5043890000000  0.5603430000000  0.5276730000000 1.0
END
