TITL C-21450-4084-6 0.00435020013999302 125000 -301.604202536605 0 0 60 (C1) n - 1
REM
REM in /home/nfs/bkarasulu/CARBON/AIRSS/Generating-Clusters/TERSOFF/Higher-Symm/Only-C60
REM
REM
REM
REM
REM
REM ./C.cell (28575a23ae977d3b5fae324c64b13b57)
REM
REM compiler GCC version 9.2.1 20190827 (Red Hat 9.2.1-1)
REM options -cpp -mtune=generic -march=x86-64 -g -O0 -fpre-include=/usr/include/finclude/math-vector-fortran.h
REM seed 140071996 -1739720535 -1047492286 1363518720 -1793800573 -236966838 2006446923 1003387881 -1019597356 1193554048 -889736160 -1127211662 581849131 -1630993336 -1722360885 -560766453 -1752818205 1867909067 453698620 1792365447 -898174719 -161997806 -2064319139 -1487707437 133195883 1218177331 -1069646351 996818062 -1022619879 -678907757 -411898286 -1694463074 -1220222390
REM
CELL 1.54180   50.00000   50.00000   50.00000   90.00000   90.00000   90.00000
LATT -1
SFAC C  
C      1  0.5193400000000  0.5430950000000  0.4527590000000 1.0
C      1  0.5275200000000  0.4621610000000  0.4535840000000 1.0
C      1  0.4522120000000  0.4950530000000  0.4523560000000 1.0
C      1  0.5276000000000  0.4930930000000  0.4860020000000 1.0
C      1  0.4829800000000  0.4869960000000  0.4841650000000 1.0
C      1  0.4932000000000  0.5218040000000  0.4844100000000 1.0
C      1  0.4943430000000  0.4281180000000  0.5155320000000 1.0
C      1  0.4406160000000  0.5410600000000  0.5155810000000 1.0
C      1  0.5649670000000  0.5289520000000  0.5148280000000 1.0
C      1  0.5692080000000  0.4733840000000  0.5030270000000 1.0
C      1  0.4413890000000  0.4532440000000  0.5024680000000 1.0
C      1  0.4888160000000  0.5745050000000  0.5026680000000 1.0
C      1  0.4910650000000  0.5513930000000  0.4431560000000 1.0
C      1  0.5488490000000  0.4821100000000  0.4428630000000 1.0
C      1  0.4599720000000  0.4663010000000  0.4432130000000 1.0
C      1  0.5103900000000  0.4394040000000  0.5424680000000 1.0
C      1  0.4426930000000  0.5216290000000  0.5426570000000 1.0
C      1  0.5468900000000  0.5378040000000  0.5414740000000 1.0
C      1  0.5115640000000  0.5245400000000  0.5231900000000 1.0
C      1  0.5144860000000  0.4757640000000  0.5218890000000 1.0
C      1  0.4717110000000  0.4987740000000  0.5229560000000 1.0
C      1  0.5598050000000  0.5091180000000  0.4643220000000 1.0
C      1  0.4789590000000  0.4454520000000  0.4658880000000 1.0
C      1  0.4632830000000  0.5459270000000  0.4657430000000 1.0
C      1  0.4866040000000  0.4721460000000  0.5150520000000 1.0
C      1  0.4818620000000  0.5253260000000  0.5164350000000 1.0
C      1  0.5279340000000  0.5023000000000  0.5169450000000 1.0
C      1  0.4659850000000  0.4615410000000  0.5415020000000 1.0
C      1  0.4834490000000  0.5491310000000  0.5422980000000 1.0
C      1  0.5488810000000  0.4906130000000  0.5406330000000 1.0
C      1  0.4768660000000  0.4801240000000  0.5633250000000 1.0
C      1  0.4943390000000  0.5303670000000  0.5641060000000 1.0
C      1  0.5290330000000  0.4899030000000  0.5637760000000 1.0
C      1  0.4734150000000  0.5152720000000  0.4546080000000 1.0
C      1  0.5257240000000  0.5140640000000  0.4566460000000 1.0
C      1  0.4992310000000  0.4710000000000  0.4567580000000 1.0
C      1  0.5633900000000  0.4653110000000  0.5328910000000 1.0
C      1  0.4368350000000  0.4625800000000  0.5326620000000 1.0
C      1  0.4993320000000  0.5733250000000  0.5326640000000 1.0
C      1  0.4714950000000  0.4464460000000  0.4975370000000 1.0
C      1  0.4675100000000  0.5521840000000  0.4976750000000 1.0
C      1  0.5681720000000  0.5019820000000  0.4945600000000 1.0
C      1  0.5059140000000  0.4691290000000  0.5624340000000 1.0
C      1  0.4699730000000  0.5108780000000  0.5630470000000 1.0
C      1  0.5241130000000  0.5205170000000  0.5630220000000 1.0
C      1  0.4878870000000  0.4827360000000  0.4287760000000 1.0
C      1  0.4909260000000  0.5191440000000  0.4280430000000 1.0
C      1  0.5207420000000  0.4981300000000  0.4288250000000 1.0
C      1  0.5063750000000  0.4293790000000  0.4816500000000 1.0
C      1  0.4357570000000  0.5299200000000  0.4816680000000 1.0
C      1  0.5576890000000  0.5405070000000  0.4815480000000 1.0
C      1  0.5346470000000  0.4514540000000  0.5246740000000 1.0
C      1  0.4406330000000  0.4939980000000  0.5250310000000 1.0
C      1  0.5238410000000  0.5534160000000  0.5247440000000 1.0
C      1  0.5107030000000  0.5529060000000  0.4924540000000 1.0
C      1  0.5418230000000  0.4618490000000  0.4931720000000 1.0
C      1  0.4477550000000  0.4833600000000  0.4922980000000 1.0
C      1  0.5337230000000  0.5576280000000  0.4740560000000 1.0
C      1  0.5335410000000  0.4412140000000  0.4736360000000 1.0
C      1  0.4320440000000  0.5005450000000  0.4736540000000 1.0
END
