TITL C-21442-1735-16 0.00136304838479518 125000 -317.650929991929 0 0 60 (D3) n - 1
REM
REM in /home/nfs/bkarasulu/CARBON/AIRSS/Generating-Clusters/TERSOFF/Higher-Symm/Only-C60
REM
REM
REM
REM
REM
REM ./C.cell (28575a23ae977d3b5fae324c64b13b57)
REM
REM compiler GCC version 9.2.1 20190827 (Red Hat 9.2.1-1)
REM options -cpp -mtune=generic -march=x86-64 -g -O0 -fpre-include=/usr/include/finclude/math-vector-fortran.h
REM seed -294730935 -392557791 1467891812 -183039606 1862274942 526210017 -1738585086 1585221629 1275589807 1051037508 703878685 1289619430 -1526674286 108840581 -2002187366 -175416579 -815507610 -2009504517 -173072849 120517488 -357432580 -647485434 1415979896 964701517 1065045359 -467107194 854509486 1505778301 1137583223 -83904646 -1979296903 -108972185 -1272928554
REM
CELL 1.54180   50.00000   50.00000   50.00000   90.00000   90.00000   90.00000
LATT -1
SFAC C  
C      1  0.5477420000000  0.5328540000000  0.4860010000000 1.0
C      1  0.5045860000000  0.4422090000000  0.4859880000000 1.0
C      1  0.4476610000000  0.5249310000000  0.4859910000000 1.0
C      1  0.5477420000000  0.4671460000000  0.5139990000000 1.0
C      1  0.5045860000000  0.5577910000000  0.5140120000000 1.0
C      1  0.4476610000000  0.4750690000000  0.5140090000000 1.0
C      1  0.5264660000000  0.4503720000000  0.5281940000000 1.0
C      1  0.4438250000000  0.5018880000000  0.5281940000000 1.0
C      1  0.5297420000000  0.5477260000000  0.5282050000000 1.0
C      1  0.5264660000000  0.5496280000000  0.4718060000000 1.0
C      1  0.4438250000000  0.4981120000000  0.4718060000000 1.0
C      1  0.5297420000000  0.4522740000000  0.4717950000000 1.0
C      1  0.4749870000000  0.4927290000000  0.4860940000000 1.0
C      1  0.5062340000000  0.5253100000000  0.4860930000000 1.0
C      1  0.5188050000000  0.4819560000000  0.4860940000000 1.0
C      1  0.4749870000000  0.5072710000000  0.5139060000000 1.0
C      1  0.5062340000000  0.4746900000000  0.5139070000000 1.0
C      1  0.5188050000000  0.5180450000000  0.5139060000000 1.0
C      1  0.5058350000000  0.4327380000000  0.5137880000000 1.0
C      1  0.4388360000000  0.5285740000000  0.5138090000000 1.0
C      1  0.5553390000000  0.5386820000000  0.5138050000000 1.0
C      1  0.5058350000000  0.5672620000000  0.4862120000000 1.0
C      1  0.4388360000000  0.4714260000000  0.4861910000000 1.0
C      1  0.5553390000000  0.4613180000000  0.4861950000000 1.0
C      1  0.4948040000000  0.4665480000000  0.4437830000000 1.0
C      1  0.4736510000000  0.5212090000000  0.4438130000000 1.0
C      1  0.5315360000000  0.5122160000000  0.4438230000000 1.0
C      1  0.4948040000000  0.5334520000000  0.5562170000000 1.0
C      1  0.4736510000000  0.4787910000000  0.5561870000000 1.0
C      1  0.5315360000000  0.4877850000000  0.5561770000000 1.0
C      1  0.4535740000000  0.5501680000000  0.5293900000000 1.0
C      1  0.5666700000000  0.5151100000000  0.5293950000000 1.0
C      1  0.4797600000000  0.4347180000000  0.5294140000000 1.0
C      1  0.4535740000000  0.4498320000000  0.4706100000000 1.0
C      1  0.5666700000000  0.4848900000000  0.4706050000000 1.0
C      1  0.4797600000000  0.5652820000000  0.4705860000000 1.0
C      1  0.4754200000000  0.5333850000000  0.4757890000000 1.0
C      1  0.5411840000000  0.5045940000000  0.4758030000000 1.0
C      1  0.4833710000000  0.4620100000000  0.4757720000000 1.0
C      1  0.4754200000000  0.4666150000000  0.5242110000000 1.0
C      1  0.5411840000000  0.4954060000000  0.5241970000000 1.0
C      1  0.4833710000000  0.5379900000000  0.5242280000000 1.0
C      1  0.5204040000000  0.5422760000000  0.4429620000000 1.0
C      1  0.5264180000000  0.4611900000000  0.4429470000000 1.0
C      1  0.4531860000000  0.4965320000000  0.4429490000000 1.0
C      1  0.5204040000000  0.4577240000000  0.5570380000000 1.0
C      1  0.5264180000000  0.5388100000000  0.5570530000000 1.0
C      1  0.4531860000000  0.5034680000000  0.5570510000000 1.0
C      1  0.4623230000000  0.5329460000000  0.5601130000000 1.0
C      1  0.5473630000000  0.5161430000000  0.5601120000000 1.0
C      1  0.4902990000000  0.4509000000000  0.5600880000000 1.0
C      1  0.4623230000000  0.4670540000000  0.4398870000000 1.0
C      1  0.5473630000000  0.4838570000000  0.4398880000000 1.0
C      1  0.4902990000000  0.5491000000000  0.4399120000000 1.0
C      1  0.4576350000000  0.5799710000000  0.4854910000000 1.0
C      1  0.5904660000000  0.4966960000000  0.4854840000000 1.0
C      1  0.4518820000000  0.4232880000000  0.4854870000000 1.0
C      1  0.4576350000000  0.4200290000000  0.5145090000000 1.0
C      1  0.5904660000000  0.5033030000000  0.5145160000000 1.0
C      1  0.4518820000000  0.5767120000000  0.5145130000000 1.0
END
