TITL C-21443-6457-14 -0.000195947734939423 125000 -339.160789502854 0 0 60 (D4) n - 1
REM
REM in /home/nfs/bkarasulu/CARBON/AIRSS/Generating-Clusters/TERSOFF/Higher-Symm/Only-C60
REM
REM
REM
REM
REM
REM ./C.cell (28575a23ae977d3b5fae324c64b13b57)
REM
REM compiler GCC version 9.2.1 20190827 (Red Hat 9.2.1-1)
REM options -cpp -mtune=generic -march=x86-64 -g -O0 -fpre-include=/usr/include/finclude/math-vector-fortran.h
REM seed -107955385 -834869374 -798123184 -1771702984 -783288471 -2106442834 -1410840090 1128305712 492650197 1268021648 -957655783 -703946318 -1824402066 -755156680 -1199348187 -379106284 2073121432 -2004715345 1569088926 131539208 832189132 2062554719 -1674460878 -1177778573 -1615267105 1231381754 1574516639 1922926306 -913188999 1596053530 882073159 350326990 -947627683
REM
CELL 1.54180   50.00000   50.00000   50.00000   90.00000   90.00000   90.00000
LATT -1
SFAC C  
C      1  0.4622670000000  0.5692510000000  0.5102370000000 1.0
C      1  0.4622670000000  0.4897630000000  0.5692510000000 1.0
C      1  0.4622670000000  0.4307490000000  0.4897630000000 1.0
C      1  0.4622670000000  0.5102370000000  0.4307490000000 1.0
C      1  0.5351290000000  0.4307500000000  0.5102220000000 1.0
C      1  0.5351290000000  0.5102220000000  0.5692500000000 1.0
C      1  0.5351290000000  0.5692500000000  0.4897780000000 1.0
C      1  0.5351290000000  0.4897780000000  0.4307500000000 1.0
C      1  0.5143330000000  0.4664150000000  0.5402210000000 1.0
C      1  0.5143330000000  0.4597790000000  0.4664150000000 1.0
C      1  0.5143330000000  0.5335850000000  0.4597790000000 1.0
C      1  0.5143330000000  0.5402210000000  0.5335850000000 1.0
C      1  0.4830730000000  0.5336040000000  0.5402750000000 1.0
C      1  0.4830730000000  0.5402750000000  0.4663960000000 1.0
C      1  0.4830730000000  0.4663960000000  0.4597250000000 1.0
C      1  0.4830730000000  0.4597250000000  0.5336040000000 1.0
C      1  0.4826460000000  0.4293860000000  0.5376080000000 1.0
C      1  0.4826460000000  0.4623920000000  0.4293860000000 1.0
C      1  0.4826460000000  0.5706140000000  0.4623920000000 1.0
C      1  0.4826460000000  0.5376080000000  0.5706140000000 1.0
C      1  0.5147410000000  0.5705520000000  0.5375810000000 1.0
C      1  0.5147410000000  0.5375810000000  0.4294480000000 1.0
C      1  0.5147410000000  0.4294480000000  0.4624190000000 1.0
C      1  0.5147410000000  0.4624190000000  0.5705520000000 1.0
C      1  0.5544980000000  0.4789980000000  0.5112700000000 1.0
C      1  0.5544980000000  0.4887300000000  0.4789980000000 1.0
C      1  0.5544980000000  0.5210020000000  0.4887300000000 1.0
C      1  0.5544980000000  0.5112700000000  0.5210020000000 1.0
C      1  0.4429260000000  0.5209970000000  0.5112830000000 1.0
C      1  0.4429260000000  0.5112830000000  0.4790030000000 1.0
C      1  0.4429260000000  0.4790030000000  0.4887170000000 1.0
C      1  0.4429260000000  0.4887170000000  0.5209970000000 1.0
C      1  0.5374240000000  0.4765680000000  0.4569210000000 1.0
C      1  0.5374240000000  0.5430790000000  0.4765680000000 1.0
C      1  0.5374240000000  0.5234320000000  0.5430790000000 1.0
C      1  0.5374240000000  0.4569210000000  0.5234320000000 1.0
C      1  0.4599770000000  0.5234640000000  0.4569160000000 1.0
C      1  0.4599770000000  0.4569160000000  0.4765360000000 1.0
C      1  0.4599770000000  0.4765360000000  0.5430840000000 1.0
C      1  0.4599770000000  0.5430850000000  0.5234650000000 1.0
C      1  0.4851350000000  0.4934500000000  0.4225120000000 1.0
C      1  0.4851350000000  0.5774880000000  0.4934500000000 1.0
C      1  0.4851350000000  0.5065500000000  0.5774880000000 1.0
C      1  0.4851350000000  0.4225120000000  0.5065500000000 1.0
C      1  0.5122600000000  0.5065600000000  0.4225120000000 1.0
C      1  0.5122600000000  0.4225120000000  0.4934400000000 1.0
C      1  0.5122600000000  0.4934400000000  0.5774880000000 1.0
C      1  0.5122600000000  0.5774880000000  0.5065600000000 1.0
C      1  0.5108440000000  0.4691840000000  0.4933770000000 1.0
C      1  0.5108440000000  0.5066230000000  0.4691830000000 1.0
C      1  0.5108440000000  0.5308160000000  0.5066230000000 1.0
C      1  0.5108440000000  0.4933770000000  0.5308170000000 1.0
C      1  0.4865240000000  0.5308680000000  0.4933630000000 1.0
C      1  0.4865240000000  0.4933630000000  0.4691330000000 1.0
C      1  0.4865240000000  0.4691320000000  0.5066370000000 1.0
C      1  0.4865240000000  0.5066370000000  0.5308680000000 1.0
C      1  0.4986610000000  0.5648600000000  0.4350700000000 1.0
C      1  0.4986610000000  0.4350700000000  0.4351400000000 1.0
C      1  0.4986610000000  0.4351400000000  0.5649300000000 1.0
C      1  0.4986610000000  0.5649300000000  0.5648600000000 1.0
END
