TITL C-21453-3943-28 -2.65413409749873e-07 125000 -254.226393960902 0 0 60 (T23) n - 1
REM
REM in /home/nfs/bkarasulu/CARBON/AIRSS/Generating-Clusters/TERSOFF/Higher-Symm/Only-C60
REM
REM
REM
REM
REM
REM ./C.cell (28575a23ae977d3b5fae324c64b13b57)
REM
REM compiler GCC version 9.2.1 20190827 (Red Hat 9.2.1-1)
REM options -cpp -mtune=generic -march=x86-64 -g -O0 -fpre-include=/usr/include/finclude/math-vector-fortran.h
REM seed 455941203 1459372746 -78133650 -432298413 -1028484212 968488611 1178651070 1555723334 -1256454664 1931426232 1331564380 -257200129 1506819578 -182708856 -559630471 1669022261 -1025379614 -1257261148 -1758404739 -867780429 18824695 -1163546275 1999478519 1634195865 -1302535916 1109891736 -1613780604 -1475448744 1216427651 521052225 1592450237 498174319 -1745275978
REM
CELL 1.54180   50.00000   50.00000   50.00000   90.00000   90.00000   90.00000
LATT -1
SFAC C  
C      1  0.4825400000000  0.5643250000000  0.5359790000000 1.0
C      1  0.5359790000000  0.4825400000000  0.5643250000000 1.0
C      1  0.5643250000000  0.5359790000000  0.4825400000000 1.0
C      1  0.4825400000000  0.4356750000000  0.4640210000000 1.0
C      1  0.5174600000000  0.4356750000000  0.5359790000000 1.0
C      1  0.5174600000000  0.5643250000000  0.4640210000000 1.0
C      1  0.5359790000000  0.5174600000000  0.4356750000000 1.0
C      1  0.4640210000000  0.5174600000000  0.5643250000000 1.0
C      1  0.4640210000000  0.4825400000000  0.4356750000000 1.0
C      1  0.5643250000000  0.4640210000000  0.5174600000000 1.0
C      1  0.4356750000000  0.4640210000000  0.4825400000000 1.0
C      1  0.4356750000000  0.5359790000000  0.5174600000000 1.0
C      1  0.5143240000000  0.5109080000000  0.5690250000000 1.0
C      1  0.5690250000000  0.5143240000000  0.5109080000000 1.0
C      1  0.5109080000000  0.5690250000000  0.5143240000000 1.0
C      1  0.5143240000000  0.4890920000000  0.4309750000000 1.0
C      1  0.4856760000000  0.4890920000000  0.5690250000000 1.0
C      1  0.4856760000000  0.5109080000000  0.4309750000000 1.0
C      1  0.5690250000000  0.4856760000000  0.4890920000000 1.0
C      1  0.4309750000000  0.4856760000000  0.5109080000000 1.0
C      1  0.4309750000000  0.5143240000000  0.4890920000000 1.0
C      1  0.5109080000000  0.4309750000000  0.4856760000000 1.0
C      1  0.4890920000000  0.4309750000000  0.5143240000000 1.0
C      1  0.4890920000000  0.5690250000000  0.4856760000000 1.0
C      1  0.4918340000000  0.5364100000000  0.5561130000000 1.0
C      1  0.5561130000000  0.4918340000000  0.5364100000000 1.0
C      1  0.5364100000000  0.5561130000000  0.4918340000000 1.0
C      1  0.4918340000000  0.4635900000000  0.4438870000000 1.0
C      1  0.5081660000000  0.4635900000000  0.5561130000000 1.0
C      1  0.5081660000000  0.5364100000000  0.4438870000000 1.0
C      1  0.5561130000000  0.5081660000000  0.4635900000000 1.0
C      1  0.4438870000000  0.5081660000000  0.5364100000000 1.0
C      1  0.4438870000000  0.4918340000000  0.4635900000000 1.0
C      1  0.5364100000000  0.4438870000000  0.5081660000000 1.0
C      1  0.4635900000000  0.4438870000000  0.4918340000000 1.0
C      1  0.4635900000000  0.5561130000000  0.5081660000000 1.0
C      1  0.5213910000000  0.4504800000000  0.4588020000000 1.0
C      1  0.4588020000000  0.5213910000000  0.4504800000000 1.0
C      1  0.4504800000000  0.4588020000000  0.5213910000000 1.0
C      1  0.5213910000000  0.5495200000000  0.5411980000000 1.0
C      1  0.4786090000000  0.5495200000000  0.4588020000000 1.0
C      1  0.4786090000000  0.4504800000000  0.5411980000000 1.0
C      1  0.4588020000000  0.4786090000000  0.5495200000000 1.0
C      1  0.5411980000000  0.4786090000000  0.4504800000000 1.0
C      1  0.5411980000000  0.5213910000000  0.5495200000000 1.0
C      1  0.4504800000000  0.5411980000000  0.4786090000000 1.0
C      1  0.5495200000000  0.5411980000000  0.5213910000000 1.0
C      1  0.5495200000000  0.4588020000000  0.4786090000000 1.0
C      1  0.5332840000000  0.5087580000000  0.4888710000000 1.0
C      1  0.4888710000000  0.5332840000000  0.5087580000000 1.0
C      1  0.5087580000000  0.4888710000000  0.5332840000000 1.0
C      1  0.5332840000000  0.4912420000000  0.5111290000000 1.0
C      1  0.4667160000000  0.4912420000000  0.4888710000000 1.0
C      1  0.4667160000000  0.5087580000000  0.5111290000000 1.0
C      1  0.4888710000000  0.4667160000000  0.4912420000000 1.0
C      1  0.5111290000000  0.4667160000000  0.5087580000000 1.0
C      1  0.5111290000000  0.5332840000000  0.4912420000000 1.0
C      1  0.5087580000000  0.5111290000000  0.4667160000000 1.0
C      1  0.4912420000000  0.5111290000000  0.5332840000000 1.0
C      1  0.4912420000000  0.4888710000000  0.4667160000000 1.0
END
