TITL C-21445-1691-34 -0.00975916476468391 125000 -320.375114612887 0 0 60 (C4) n - 1
REM
REM in /home/nfs/bkarasulu/CARBON/AIRSS/Generating-Clusters/TERSOFF/Higher-Symm/Only-C60
REM
REM
REM
REM
REM
REM ./C.cell (28575a23ae977d3b5fae324c64b13b57)
REM
REM compiler GCC version 9.2.1 20190827 (Red Hat 9.2.1-1)
REM options -cpp -mtune=generic -march=x86-64 -g -O0 -fpre-include=/usr/include/finclude/math-vector-fortran.h
REM seed -961851480 -1532537332 2061433701 401642481 145149447 -2023963707 1520383549 -1174299838 -648317810 -2062891885 -765409860 -1181866822 1845704850 -1627354133 709679066 -265856405 -1435667179 -433898661 1901098923 308985368 -977710652 1228048702 -1817377550 -2027008191 2062193081 600460803 420057782 -1617738878 1447825734 -1148941614 367441998 2111656835 -1977863054
REM
CELL 1.54180   50.00000   50.00000   50.00000   90.00000   90.00000   90.00000
LATT -1
SFAC C  
C      1  0.4484530000000  0.4660280000000  0.4532010000000 1.0
C      1  0.4484530000000  0.4532010000000  0.5339720000000 1.0
C      1  0.4484530000000  0.5339720000000  0.5467990000000 1.0
C      1  0.4484530000000  0.5467990000000  0.4660280000000 1.0
C      1  0.4597010000000  0.5096570000000  0.5596150000000 1.0
C      1  0.4597010000000  0.5596150000000  0.4903430000000 1.0
C      1  0.4597000000000  0.4903430000000  0.4403850000000 1.0
C      1  0.4597010000000  0.4403850000000  0.5096570000000 1.0
C      1  0.4879080000000  0.5422480000000  0.5714520000000 1.0
C      1  0.4879070000000  0.5714520000000  0.4577520000000 1.0
C      1  0.4879080000000  0.4577520000000  0.4285480000000 1.0
C      1  0.4879080000000  0.4285470000000  0.5422480000000 1.0
C      1  0.5369390000000  0.4813630000000  0.5556180000000 1.0
C      1  0.5369400000000  0.5556170000000  0.5186370000000 1.0
C      1  0.5369430000000  0.5186340000000  0.4443760000000 1.0
C      1  0.5369390000000  0.4443830000000  0.4813630000000 1.0
C      1  0.5248580000000  0.5038850000000  0.5739110000000 1.0
C      1  0.5248620000000  0.5739620000000  0.4961390000000 1.0
C      1  0.5248590000000  0.4961140000000  0.4260880000000 1.0
C      1  0.5248580000000  0.4260890000000  0.5038840000000 1.0
C      1  0.4917850000000  0.4904790000000  0.4246180000000 1.0
C      1  0.4917850000000  0.4246180000000  0.5095220000000 1.0
C      1  0.4917850000000  0.5095220000000  0.5753820000000 1.0
C      1  0.4917850000000  0.5753820000000  0.4904780000000 1.0
C      1  0.5217230000000  0.5354300000000  0.4797300000000 1.0
C      1  0.5217160000000  0.4797440000000  0.4645450000000 1.0
C      1  0.5217160000000  0.4645440000000  0.5202560000000 1.0
C      1  0.5217160000000  0.5202560000000  0.5354550000000 1.0
C      1  0.5443790000000  0.4779220000000  0.4876300000000 1.0
C      1  0.5443780000000  0.4876310000000  0.5220780000000 1.0
C      1  0.5443780000000  0.5220780000000  0.5123700000000 1.0
C      1  0.5443780000000  0.5123710000000  0.4779220000000 1.0
C      1  0.4998820000000  0.4411670000000  0.4508750000000 1.0
C      1  0.4998820000000  0.4508750000000  0.5588320000000 1.0
C      1  0.4998820000000  0.5588320000000  0.5491250000000 1.0
C      1  0.4998820000000  0.5491250000000  0.4411680000000 1.0
C      1  0.5358950000000  0.5322090000000  0.5637510000000 1.0
C      1  0.5358950000000  0.5637510000000  0.4677910000000 1.0
C      1  0.5358940000000  0.4677910000000  0.4362490000000 1.0
C      1  0.5358950000000  0.4362490000000  0.5322090000000 1.0
C      1  0.5010190000000  0.5357180000000  0.5019740000000 1.0
C      1  0.5010080000000  0.5019500000000  0.4642720000000 1.0
C      1  0.5010200000000  0.4642820000000  0.4980290000000 1.0
C      1  0.5010190000000  0.4980300000000  0.5357190000000 1.0
C      1  0.4738080000000  0.5046850000000  0.4786900000000 1.0
C      1  0.4738070000000  0.4786900000000  0.4953160000000 1.0
C      1  0.4738070000000  0.4953160000000  0.5213100000000 1.0
C      1  0.4738060000000  0.5213100000000  0.5046840000000 1.0
C      1  0.4569450000000  0.5445490000000  0.5191600000000 1.0
C      1  0.4569450000000  0.5191600000000  0.4554510000000 1.0
C      1  0.4569450000000  0.4554510000000  0.4808400000000 1.0
C      1  0.4569450000000  0.4808400000000  0.5445490000000 1.0
C      1  0.4873850000000  0.5583290000000  0.5218420000000 1.0
C      1  0.4873850000000  0.5218420000000  0.4416720000000 1.0
C      1  0.4873850000000  0.4416710000000  0.4781580000000 1.0
C      1  0.4873850000000  0.4781580000000  0.5583290000000 1.0
C      1  0.5293270000000  0.4520940000000  0.5595910000000 1.0
C      1  0.5293270000000  0.5595910000000  0.5479060000000 1.0
C      1  0.5293260000000  0.5479030000000  0.4404170000000 1.0
C      1  0.5293270000000  0.4404100000000  0.4520940000000 1.0
END
