TITL C-21440-2611-1 0.000907886067313678 125000 -307.792699507043 0 0 60 (C3) n - 1
REM
REM in /home/nfs/bkarasulu/CARBON/AIRSS/Generating-Clusters/TERSOFF/Higher-Symm/Only-C60
REM
REM
REM
REM
REM
REM ./C.cell (28575a23ae977d3b5fae324c64b13b57)
REM
REM compiler GCC version 9.2.1 20190827 (Red Hat 9.2.1-1)
REM options -cpp -mtune=generic -march=x86-64 -g -O0 -fpre-include=/usr/include/finclude/math-vector-fortran.h
REM seed 539655422 1575316879 -2005993317 -119951875 415206076 1011891508 -1247671898 600074317 1849371587 1933943841 -25120007 1393128385 297349874 -1312612489 -614863337 -501869931 -635086043 972614774 621609336 1716414448 850078181 -178223473 -2006064077 -2078973407 1559146973 2033487161 316867723 -1831789405 -1826279669 1945083786 995700100 356273203 1750279454
REM
CELL 1.54180   50.00000   50.00000   50.00000   90.00000   90.00000   90.00000
LATT -1
SFAC C  
C      1  0.4757670000000  0.4776870000000  0.5000800000000 1.0
C      1  0.5120510000000  0.4776780000000  0.4789780000000 1.0
C      1  0.5121890000000  0.4776890000000  0.5209460000000 1.0
C      1  0.5698380000000  0.4849260000000  0.4592050000000 1.0
C      1  0.5003900000000  0.4849250000000  0.5808760000000 1.0
C      1  0.4297480000000  0.4849500000000  0.4599450000000 1.0
C      1  0.5430470000000  0.4605730000000  0.5576380000000 1.0
C      1  0.4285550000000  0.4605780000000  0.5084640000000 1.0
C      1  0.5283850000000  0.4605750000000  0.4338920000000 1.0
C      1  0.4827010000000  0.4664730000000  0.5629380000000 1.0
C      1  0.4541610000000  0.4664680000000  0.4535340000000 1.0
C      1  0.5631560000000  0.4664750000000  0.4835080000000 1.0
C      1  0.4808040000000  0.5784470000000  0.4929520000000 1.0
C      1  0.5157010000000  0.5784500000000  0.4869100000000 1.0
C      1  0.5034960000000  0.5784440000000  0.5201530000000 1.0
C      1  0.5247260000000  0.4433700000000  0.5415900000000 1.0
C      1  0.4516210000000  0.4433780000000  0.5006190000000 1.0
C      1  0.5236650000000  0.4433780000000  0.4577770000000 1.0
C      1  0.4740550000000  0.5413240000000  0.4574470000000 1.0
C      1  0.5498320000000  0.5413200000000  0.4988110000000 1.0
C      1  0.4761110000000  0.5413210000000  0.5437500000000 1.0
C      1  0.4854050000000  0.4924250000000  0.4718220000000 1.0
C      1  0.5317020000000  0.4924170000000  0.5014550000000 1.0
C      1  0.4828910000000  0.4924220000000  0.5267150000000 1.0
C      1  0.4435800000000  0.5399500000000  0.5004280000000 1.0
C      1  0.5278290000000  0.5399830000000  0.4509450000000 1.0
C      1  0.5285790000000  0.5399850000000  0.5486300000000 1.0
C      1  0.4975520000000  0.4482320000000  0.4758370000000 1.0
C      1  0.5221500000000  0.4482310000000  0.5099540000000 1.0
C      1  0.4803010000000  0.4482350000000  0.5141980000000 1.0
C      1  0.4943470000000  0.5158310000000  0.5462500000000 1.0
C      1  0.4627890000000  0.5158230000000  0.4719660000000 1.0
C      1  0.5428900000000  0.5158240000000  0.4817730000000 1.0
C      1  0.4613330000000  0.4842660000000  0.5491720000000 1.0
C      1  0.4767370000000  0.4842600000000  0.4419400000000 1.0
C      1  0.5619330000000  0.4842540000000  0.5088870000000 1.0
C      1  0.4987230000000  0.5029590000000  0.4313380000000 1.0
C      1  0.5601000000000  0.5029540000000  0.5332300000000 1.0
C      1  0.4411700000000  0.5029520000000  0.5354340000000 1.0
C      1  0.4937090000000  0.4470620000000  0.5429210000000 1.0
C      1  0.4659600000000  0.4470550000000  0.4731130000000 1.0
C      1  0.5403170000000  0.4470530000000  0.4839770000000 1.0
C      1  0.5069890000000  0.5192920000000  0.4808470000000 1.0
C      1  0.5130930000000  0.5193010000000  0.5156260000000 1.0
C      1  0.4799200000000  0.5193030000000  0.5035300000000 1.0
C      1  0.4828510000000  0.5102520000000  0.5764360000000 1.0
C      1  0.4423990000000  0.5102240000000  0.4469170000000 1.0
C      1  0.5747710000000  0.5102390000000  0.4766280000000 1.0
C      1  0.5324450000000  0.5562620000000  0.4775930000000 1.0
C      1  0.5031810000000  0.5562730000000  0.5393080000000 1.0
C      1  0.4643740000000  0.5562590000000  0.4831070000000 1.0
C      1  0.4499480000000  0.5321170000000  0.5299620000000 1.0
C      1  0.4990740000000  0.5321030000000  0.4416780000000 1.0
C      1  0.5509710000000  0.5321040000000  0.5283730000000 1.0
C      1  0.4296860000000  0.4903540000000  0.5115110000000 1.0
C      1  0.5252000000000  0.4903570000000  0.4333580000000 1.0
C      1  0.5451050000000  0.4903550000000  0.5551420000000 1.0
C      1  0.5449180000000  0.5082030000000  0.4472350000000 1.0
C      1  0.5232310000000  0.5081970000000  0.5652810000000 1.0
C      1  0.4318470000000  0.5082010000000  0.4874680000000 1.0
END
