TITL C-21443-6457-24 -5.93985160220093e-05 125000 -320.258584401204 0 0 60 (C3) n - 1
REM
REM in /home/nfs/bkarasulu/CARBON/AIRSS/Generating-Clusters/TERSOFF/Higher-Symm/Only-C60
REM
REM
REM
REM
REM
REM ./C.cell (28575a23ae977d3b5fae324c64b13b57)
REM
REM compiler GCC version 9.2.1 20190827 (Red Hat 9.2.1-1)
REM options -cpp -mtune=generic -march=x86-64 -g -O0 -fpre-include=/usr/include/finclude/math-vector-fortran.h
REM seed 1214484238 1266318368 476949045 1504431477 787882570 -1999931078 1084846950 1290766563 -1473301919 -432829759 1373728227 -2046706585 -1495088029 -839498114 -732822693 315038707 -848867701 388367501 -218550355 -577965658 1359967199 1782687188 -1608010186 -1674374850 -1563781436 -154122762 1967819482 2091539081 738160950 -1743498979 -1583963906 493458840 -356523422
REM
CELL 1.54180   50.00000   50.00000   50.00000   90.00000   90.00000   90.00000
LATT -1
SFAC C  
C      1  0.4592010000000  0.5376940000000  0.5281350000000 1.0
C      1  0.4592030000000  0.5055120000000  0.4532860000000 1.0
C      1  0.4592090000000  0.4567830000000  0.5185800000000 1.0
C      1  0.4629950000000  0.4608210000000  0.4672980000000 1.0
C      1  0.4629930000000  0.4912630000000  0.5502780000000 1.0
C      1  0.4629860000000  0.5479060000000  0.4824240000000 1.0
C      1  0.5013140000000  0.5333740000000  0.4456080000000 1.0
C      1  0.5013240000000  0.4362080000000  0.4982950000000 1.0
C      1  0.5013160000000  0.5304180000000  0.5560970000000 1.0
C      1  0.5525500000000  0.4436100000000  0.4989160000000 1.0
C      1  0.5525410000000  0.5272610000000  0.5493810000000 1.0
C      1  0.5525400000000  0.5291460000000  0.4517030000000 1.0
C      1  0.4745860000000  0.5645560000000  0.5277820000000 1.0
C      1  0.4745920000000  0.4917790000000  0.4302000000000 1.0
C      1  0.4745970000000  0.4436590000000  0.5420190000000 1.0
C      1  0.5276010000000  0.5127870000000  0.4865090000000 1.0
C      1  0.5276070000000  0.4819250000000  0.4956690000000 1.0
C      1  0.5276010000000  0.5052900000000  0.5178180000000 1.0
C      1  0.5025300000000  0.4769200000000  0.5803450000000 1.0
C      1  0.5025190000000  0.5811220000000  0.4798180000000 1.0
C      1  0.5025350000000  0.4419620000000  0.4398410000000 1.0
C      1  0.5505770000000  0.4694160000000  0.4826110000000 1.0
C      1  0.5505670000000  0.5002380000000  0.5351840000000 1.0
C      1  0.5505640000000  0.5303580000000  0.4822040000000 1.0
C      1  0.5016100000000  0.5076490000000  0.4251060000000 1.0
C      1  0.5016180000000  0.4313160000000  0.5308240000000 1.0
C      1  0.5016060000000  0.5610350000000  0.5440690000000 1.0
C      1  0.4698780000000  0.5200660000000  0.5535310000000 1.0
C      1  0.4698760000000  0.5363220000000  0.4558540000000 1.0
C      1  0.4698850000000  0.4436020000000  0.4906150000000 1.0
C      1  0.4271110000000  0.5113890000000  0.5216590000000 1.0
C      1  0.4271100000000  0.5130520000000  0.4793020000000 1.0
C      1  0.4271140000000  0.4755390000000  0.4990400000000 1.0
C      1  0.4788590000000  0.5030910000000  0.4798140000000 1.0
C      1  0.4788630000000  0.4809690000000  0.5074130000000 1.0
C      1  0.4788570000000  0.5159310000000  0.5127720000000 1.0
C      1  0.5277370000000  0.5187260000000  0.5668090000000 1.0
C      1  0.5277320000000  0.5485020000000  0.4503800000000 1.0
C      1  0.5277460000000  0.4327840000000  0.4828120000000 1.0
C      1  0.5118810000000  0.4847200000000  0.4481210000000 1.0
C      1  0.5118830000000  0.4627140000000  0.5391740000000 1.0
C      1  0.5118740000000  0.5525680000000  0.5127030000000 1.0
C      1  0.4395280000000  0.4832920000000  0.5281230000000 1.0
C      1  0.4395230000000  0.5327010000000  0.5004040000000 1.0
C      1  0.4395270000000  0.4839900000000  0.4714740000000 1.0
C      1  0.5420090000000  0.4717240000000  0.5475170000000 1.0
C      1  0.5420000000000  0.5552920000000  0.5007320000000 1.0
C      1  0.5420110000000  0.4729960000000  0.4517510000000 1.0
C      1  0.5053690000000  0.4667180000000  0.5085590000000 1.0
C      1  0.5053610000000  0.5240520000000  0.5245420000000 1.0
C      1  0.5053630000000  0.5092280000000  0.4668980000000 1.0
C      1  0.5543770000000  0.5011840000000  0.4387360000000 1.0
C      1  0.5543830000000  0.4463620000000  0.5296150000000 1.0
C      1  0.5543740000000  0.5524710000000  0.5316480000000 1.0
C      1  0.5278180000000  0.4432390000000  0.4541690000000 1.0
C      1  0.5278130000000  0.4886930000000  0.5720780000000 1.0
C      1  0.5278050000000  0.5680800000000  0.4737560000000 1.0
C      1  0.4824860000000  0.4642090000000  0.4446140000000 1.0
C      1  0.4824850000000  0.4699270000000  0.5586870000000 1.0
C      1  0.4824760000000  0.5658580000000  0.4966990000000 1.0
END
