TITL C-21445-1691-44 -0.000157458956486802 125000 -341.020548359027 0 0 60 (C1) n - 1
REM
REM in /home/nfs/bkarasulu/CARBON/AIRSS/Generating-Clusters/TERSOFF/Higher-Symm/Only-C60
REM
REM
REM
REM
REM
REM ./C.cell (28575a23ae977d3b5fae324c64b13b57)
REM
REM compiler GCC version 9.2.1 20190827 (Red Hat 9.2.1-1)
REM options -cpp -mtune=generic -march=x86-64 -g -O0 -fpre-include=/usr/include/finclude/math-vector-fortran.h
REM seed -1272951846 -1583750967 1190031761 1022678055 1364050818 509139273 -1310113567 1392411239 1260681264 1107048840 1068578118 2130124718 -696863608 -626017415 1247448378 1137140502 -49113435 -659616964 -1844084869 -783957083 -20484302 987773689 -1670631612 22703495 -2082859707 676805828 1672062205 2077191664 2028958835 -994637814 376201112 161353623 679615487
REM
CELL 1.54180   50.00000   50.00000   50.00000   90.00000   90.00000   90.00000
LATT -1
SFAC C  
C      1  0.5125670000000  0.5239600000000  0.5198940000000 1.0
C      1  0.4736070000000  0.5067060000000  0.4794050000000 1.0
C      1  0.4635550000000  0.5022310000000  0.5317650000000 1.0
C      1  0.5680970000000  0.4774250000000  0.5334350000000 1.0
C      1  0.5439090000000  0.5535920000000  0.5250180000000 1.0
C      1  0.4907930000000  0.4568630000000  0.5013200000000 1.0
C      1  0.4375020000000  0.4820460000000  0.4610660000000 1.0
C      1  0.5384710000000  0.4803010000000  0.4669510000000 1.0
C      1  0.5136110000000  0.5573520000000  0.5221930000000 1.0
C      1  0.5252850000000  0.4506870000000  0.4664890000000 1.0
C      1  0.4305340000000  0.4879720000000  0.4925580000000 1.0
C      1  0.5119660000000  0.5216740000000  0.4890250000000 1.0
C      1  0.4900800000000  0.4774440000000  0.4763980000000 1.0
C      1  0.4427920000000  0.4541540000000  0.4537640000000 1.0
C      1  0.5274560000000  0.4943740000000  0.5651940000000 1.0
C      1  0.5301320000000  0.4297560000000  0.5182910000000 1.0
C      1  0.5137770000000  0.4954800000000  0.4746710000000 1.0
C      1  0.4978480000000  0.5445340000000  0.4492140000000 1.0
C      1  0.4972370000000  0.4537690000000  0.5578230000000 1.0
C      1  0.4932030000000  0.4554340000000  0.4521350000000 1.0
C      1  0.4324600000000  0.4646450000000  0.5161090000000 1.0
C      1  0.4908550000000  0.5552530000000  0.5432290000000 1.0
C      1  0.5523810000000  0.4604640000000  0.5529810000000 1.0
C      1  0.5670790000000  0.5113240000000  0.5335410000000 1.0
C      1  0.4519600000000  0.5030050000000  0.4436100000000 1.0
C      1  0.4502520000000  0.5286970000000  0.4767930000000 1.0
C      1  0.5378500000000  0.5074230000000  0.5199890000000 1.0
C      1  0.5284480000000  0.4430320000000  0.5455270000000 1.0
C      1  0.4646980000000  0.5541830000000  0.5256390000000 1.0
C      1  0.5152360000000  0.4388200000000  0.4940450000000 1.0
C      1  0.4673650000000  0.4406470000000  0.4622940000000 1.0
C      1  0.5285540000000  0.5242610000000  0.5653540000000 1.0
C      1  0.5061960000000  0.4812410000000  0.5484120000000 1.0
C      1  0.4505520000000  0.4739580000000  0.5387120000000 1.0
C      1  0.5740230000000  0.5195510000000  0.5025480000000 1.0
C      1  0.4476000000000  0.5282450000000  0.5249650000000 1.0
C      1  0.4890400000000  0.4719340000000  0.4283100000000 1.0
C      1  0.5583110000000  0.5453600000000  0.4990890000000 1.0
C      1  0.5346150000000  0.4822940000000  0.5086180000000 1.0
C      1  0.5670340000000  0.4952430000000  0.4786480000000 1.0
C      1  0.4985060000000  0.5311230000000  0.5588630000000 1.0
C      1  0.5019450000000  0.5667350000000  0.4958660000000 1.0
C      1  0.4799690000000  0.4993540000000  0.4315480000000 1.0
C      1  0.5434380000000  0.5445190000000  0.4731740000000 1.0
C      1  0.4300690000000  0.5215840000000  0.4991350000000 1.0
C      1  0.4604050000000  0.4928380000000  0.5025150000000 1.0
C      1  0.4421550000000  0.4391800000000  0.5058140000000 1.0
C      1  0.5511290000000  0.5352760000000  0.5484360000000 1.0
C      1  0.4575460000000  0.5567170000000  0.4755360000000 1.0
C      1  0.4508440000000  0.5736320000000  0.4529730000000 1.0
C      1  0.4668260000000  0.4527310000000  0.5534690000000 1.0
C      1  0.5021150000000  0.5196120000000  0.4349780000000 1.0
C      1  0.5503140000000  0.5195500000000  0.4580280000000 1.0
C      1  0.5112770000000  0.4715550000000  0.5200110000000 1.0
C      1  0.5127320000000  0.5486910000000  0.4742100000000 1.0
C      1  0.4676130000000  0.4377550000000  0.4920120000000 1.0
C      1  0.5622830000000  0.4701760000000  0.5025240000000 1.0
C      1  0.5308560000000  0.5105380000000  0.4367550000000 1.0
C      1  0.4907880000000  0.5066660000000  0.5405410000000 1.0
C      1  0.4722590000000  0.5664340000000  0.4985900000000 1.0
END
