TITL C-21446-9947-36 -1.41054269176116e-06 125000 -341.233095928189 0 0 60 (S12) n - 1
REM
REM in /home/nfs/bkarasulu/CARBON/AIRSS/Generating-Clusters/TERSOFF/Higher-Symm/Only-C60
REM
REM
REM
REM
REM
REM ./C.cell (28575a23ae977d3b5fae324c64b13b57)
REM
REM compiler GCC version 9.2.1 20190827 (Red Hat 9.2.1-1)
REM options -cpp -mtune=generic -march=x86-64 -g -O0 -fpre-include=/usr/include/finclude/math-vector-fortran.h
REM seed -391729131 -763383074 571344030 -431547190 -1046462371 1569326565 637768375 -1706440163 -1160214448 -1164338283 -216765917 -11364862 1484773988 -90768982 -1239757754 558350686 -1931033530 1329515996 -603824899 588738262 -668099357 -331284379 -1038340405 1782278893 -333540253 735014349 628064379 -681216998 1667310909 262773010 -1066506983 534581772 1801432181
REM
CELL 1.54180   50.00000   50.00000   50.00000   90.00000   90.00000   90.00000
LATT -1
SFAC C  
C      1  0.5306620000000  0.5112910000000  0.5695920000000 1.0
C      1  0.5209090000000  0.5251100000000  0.4304080000000 1.0
C      1  0.5055530000000  0.5322000000000  0.5695920000000 1.0
C      1  0.4887090000000  0.5306620000000  0.4304080000000 1.0
C      1  0.4748900000000  0.5209090000000  0.5695920000000 1.0
C      1  0.4678000000000  0.5055530000000  0.4304080000000 1.0
C      1  0.4693380000000  0.4887090000000  0.5695920000000 1.0
C      1  0.4790910000000  0.4748900000000  0.4304080000000 1.0
C      1  0.4944470000000  0.4678000000000  0.5695920000000 1.0
C      1  0.5112910000000  0.4693380000000  0.4304080000000 1.0
C      1  0.5251100000000  0.4790910000000  0.5695920000000 1.0
C      1  0.5322000000000  0.4944470000000  0.4304080000000 1.0
C      1  0.5087230000000  0.4348060000000  0.4686090000000 1.0
C      1  0.5401510000000  0.4479020000000  0.5313910000000 1.0
C      1  0.5608210000000  0.4749570000000  0.4686090000000 1.0
C      1  0.5651940000000  0.5087230000000  0.5313910000000 1.0
C      1  0.5520980000000  0.5401510000000  0.4686090000000 1.0
C      1  0.5250430000000  0.5608210000000  0.5313910000000 1.0
C      1  0.4912770000000  0.5651940000000  0.4686090000000 1.0
C      1  0.4598490000000  0.5520980000000  0.5313910000000 1.0
C      1  0.4391790000000  0.5250430000000  0.4686090000000 1.0
C      1  0.4348060000000  0.4912770000000  0.5313910000000 1.0
C      1  0.4479020000000  0.4598490000000  0.4686090000000 1.0
C      1  0.4749570000000  0.4391790000000  0.5313910000000 1.0
C      1  0.5193160000000  0.5469410000000  0.5064600000000 1.0
C      1  0.4932580000000  0.5503090000000  0.4935400000000 1.0
C      1  0.4690060000000  0.5401980000000  0.5064600000000 1.0
C      1  0.4530590000000  0.5193160000000  0.4935400000000 1.0
C      1  0.4496910000000  0.4932580000000  0.5064600000000 1.0
C      1  0.4598020000000  0.4690060000000  0.4935400000000 1.0
C      1  0.4806840000000  0.4530590000000  0.5064600000000 1.0
C      1  0.5067420000000  0.4496910000000  0.4935400000000 1.0
C      1  0.5309940000000  0.4598020000000  0.5064600000000 1.0
C      1  0.5469410000000  0.4806840000000  0.4935400000000 1.0
C      1  0.5503090000000  0.5067420000000  0.5064600000000 1.0
C      1  0.5401980000000  0.5309940000000  0.4935400000000 1.0
C      1  0.4946810000000  0.4691590000000  0.6030000000000 1.0
C      1  0.5108140000000  0.4706320000000  0.3970000000000 1.0
C      1  0.5240490000000  0.4799740000000  0.6030000000000 1.0
C      1  0.5308410000000  0.4946810000000  0.3970000000000 1.0
C      1  0.5293680000000  0.5108140000000  0.6030000000000 1.0
C      1  0.5200260000000  0.5240490000000  0.3970000000000 1.0
C      1  0.5053190000000  0.5308410000000  0.6030000000000 1.0
C      1  0.4891860000000  0.5293680000000  0.3970000000000 1.0
C      1  0.4759510000000  0.5200260000000  0.6030000000000 1.0
C      1  0.4691590000000  0.5053190000000  0.3970000000000 1.0
C      1  0.4706320000000  0.4891860000000  0.6030000000000 1.0
C      1  0.4799740000000  0.4759510000000  0.3970000000000 1.0
C      1  0.5099740000000  0.5576610000000  0.5558880000000 1.0
C      1  0.4798070000000  0.5549230000000  0.4441120000000 1.0
C      1  0.4550510000000  0.5374680000000  0.5558880000000 1.0
C      1  0.4423390000000  0.5099740000000  0.4441120000000 1.0
C      1  0.4450770000000  0.4798070000000  0.5558880000000 1.0
C      1  0.4625320000000  0.4550510000000  0.4441120000000 1.0
C      1  0.4900260000000  0.4423390000000  0.5558880000000 1.0
C      1  0.5201930000000  0.4450770000000  0.4441120000000 1.0
C      1  0.5449490000000  0.4625320000000  0.5558880000000 1.0
C      1  0.5576610000000  0.4900260000000  0.4441120000000 1.0
C      1  0.5549230000000  0.5201930000000  0.5558880000000 1.0
C      1  0.5374680000000  0.5449490000000  0.4441120000000 1.0
END
