TITL C-21451-4170-18 -0.00461802850019603 125000 -343.604723306032 0 0 60 (D2h) n - 1
REM
REM in /home/nfs/bkarasulu/CARBON/AIRSS/Generating-Clusters/TERSOFF/Higher-Symm/Only-C60
REM
REM
REM
REM
REM
REM ./C.cell (28575a23ae977d3b5fae324c64b13b57)
REM
REM compiler GCC version 9.2.1 20190827 (Red Hat 9.2.1-1)
REM options -cpp -mtune=generic -march=x86-64 -g -O0 -fpre-include=/usr/include/finclude/math-vector-fortran.h
REM seed -460619815 -748644192 -1559995389 -333212640 1181013740 115040984 -149565543 1163613116 556296951 1810771145 -213833908 -1357000564 629241608 -1608940488 639822617 574165592 94418236 1241076117 -1924402440 -2062309743 -746933389 -1921905369 1070048022 1599487562 1777426686 -921744539 -200356370 -553133363 504441282 1660751841 -1995918651 983803156 -916942710
REM
CELL 1.54180   50.00000   50.00000   50.00000   90.00000   90.00000   90.00000
LATT -1
SFAC C  
C      1  0.5887420000000  0.4852900000000  0.4997980000000 1.0
C      1  0.5526550000000  0.5632680000000  0.4999900000000 1.0
C      1  0.4698910000000  0.5812900000000  0.4999840000000 1.0
C      1  0.4112580000000  0.5147100000000  0.4997980000000 1.0
C      1  0.4473450000000  0.4367320000000  0.4999910000000 1.0
C      1  0.5301090000000  0.4187100000000  0.4999840000000 1.0
C      1  0.5887420000000  0.5147100000000  0.4997980000000 1.0
C      1  0.5526550000000  0.4367320000000  0.4999850000000 1.0
C      1  0.4698910000000  0.4187100000000  0.4999880000000 1.0
C      1  0.4112580000000  0.4852900000000  0.4997980000000 1.0
C      1  0.4473450000000  0.5632680000000  0.4999850000000 1.0
C      1  0.5301090000000  0.5812900000000  0.4999870000000 1.0
C      1  0.5599660000000  0.5501250000000  0.5246900000000 1.0
C      1  0.4845270000000  0.5843800000000  0.5251550000000 1.0
C      1  0.4181690000000  0.5285660000000  0.5250080000000 1.0
C      1  0.4400350000000  0.4498750000000  0.5246900000000 1.0
C      1  0.5154730000000  0.4156200000000  0.5251550000000 1.0
C      1  0.5818310000000  0.4714350000000  0.5250080000000 1.0
C      1  0.5599690000000  0.4498760000000  0.5246910000000 1.0
C      1  0.4845270000000  0.4156200000000  0.5251520000000 1.0
C      1  0.4181670000000  0.4714370000000  0.5250080000000 1.0
C      1  0.4400310000000  0.5501240000000  0.5246910000000 1.0
C      1  0.5154730000000  0.5843800000000  0.5251520000000 1.0
C      1  0.5818330000000  0.5285630000000  0.5250080000000 1.0
C      1  0.5167420000000  0.4383500000000  0.5479670000000 1.0
C      1  0.5631420000000  0.4851320000000  0.5472300000000 1.0
C      1  0.5374020000000  0.5388770000000  0.5450410000000 1.0
C      1  0.4832580000000  0.5616500000000  0.5479670000000 1.0
C      1  0.4368580000000  0.5148680000000  0.5472300000000 1.0
C      1  0.4625980000000  0.4611230000000  0.5450410000000 1.0
C      1  0.5167420000000  0.5616500000000  0.5479670000000 1.0
C      1  0.5631420000000  0.5148700000000  0.5472300000000 1.0
C      1  0.5374020000000  0.4611230000000  0.5450410000000 1.0
C      1  0.4832580000000  0.4383500000000  0.5479670000000 1.0
C      1  0.4368580000000  0.4851300000000  0.5472300000000 1.0
C      1  0.4625990000000  0.5388770000000  0.5450410000000 1.0
C      1  0.5816960000000  0.5285700000000  0.4747690000000 1.0
C      1  0.5154940000000  0.5842640000000  0.4748000000000 1.0
C      1  0.4403870000000  0.5498950000000  0.4753820000000 1.0
C      1  0.4183040000000  0.4714300000000  0.4747690000000 1.0
C      1  0.4845060000000  0.4157360000000  0.4748000000000 1.0
C      1  0.5596130000000  0.4501060000000  0.4753820000000 1.0
C      1  0.5816980000000  0.4714340000000  0.4747700000000 1.0
C      1  0.5154940000000  0.4157350000000  0.4748020000000 1.0
C      1  0.4403830000000  0.4501100000000  0.4753770000000 1.0
C      1  0.4183010000000  0.5285650000000  0.4747700000000 1.0
C      1  0.4845060000000  0.5842650000000  0.4748030000000 1.0
C      1  0.5596170000000  0.5498900000000  0.4753780000000 1.0
C      1  0.4833420000000  0.4387090000000  0.4521740000000 1.0
C      1  0.5368740000000  0.4616850000000  0.4554730000000 1.0
C      1  0.5629190000000  0.5148200000000  0.4525410000000 1.0
C      1  0.5166580000000  0.5612910000000  0.4521740000000 1.0
C      1  0.4631260000000  0.5383150000000  0.4554730000000 1.0
C      1  0.4370810000000  0.4851800000000  0.4525410000000 1.0
C      1  0.4833410000000  0.5612900000000  0.4521740000000 1.0
C      1  0.5368750000000  0.5383140000000  0.4554730000000 1.0
C      1  0.5629190000000  0.4851790000000  0.4525400000000 1.0
C      1  0.5166590000000  0.4387100000000  0.4521740000000 1.0
C      1  0.4631250000000  0.4616860000000  0.4554730000000 1.0
C      1  0.4370810000000  0.5148210000000  0.4525400000000 1.0
END
