TITL C-21450-4084-23 0.000951269874336495 125000 -328.542173008442 0 0 60 (Ci) n - 1
REM
REM in /home/nfs/bkarasulu/CARBON/AIRSS/Generating-Clusters/TERSOFF/Higher-Symm/Only-C60
REM
REM
REM
REM
REM
REM ./C.cell (28575a23ae977d3b5fae324c64b13b57)
REM
REM compiler GCC version 9.2.1 20190827 (Red Hat 9.2.1-1)
REM options -cpp -mtune=generic -march=x86-64 -g -O0 -fpre-include=/usr/include/finclude/math-vector-fortran.h
REM seed 272061732 2135074714 -247439260 -830156801 255133257 1694014673 -1493411116 918224177 2124769055 1086565948 -701573230 45107775 1447903266 182287999 -1087929422 -1838741394 -1122965696 -1226128418 -848667789 356272190 -1704404373 90662314 130389088 1024120695 -1967558188 -1730682368 2101411018 -2071046117 80371389 1735793089 198343893 1121490030 -318765974
REM
CELL 1.54180   50.00000   50.00000   50.00000   90.00000   90.00000   90.00000
LATT -1
SFAC C  
C      1  0.5419400000000  0.5087240000000  0.4764510000000 1.0
C      1  0.5485210000000  0.4913180000000  0.5060380000000 1.0
C      1  0.5367300000000  0.5086980000000  0.5341930000000 1.0
C      1  0.5100160000000  0.4913200000000  0.5492180000000 1.0
C      1  0.4798330000000  0.5086940000000  0.5446180000000 1.0
C      1  0.4580600000000  0.4912760000000  0.5235490000000 1.0
C      1  0.4514790000000  0.5086820000000  0.4939620000000 1.0
C      1  0.4632700000000  0.4913030000000  0.4658070000000 1.0
C      1  0.4899840000000  0.5086800000000  0.4507820000000 1.0
C      1  0.5201670000000  0.4913060000000  0.4553820000000 1.0
C      1  0.4613600000000  0.4145150000000  0.4643530000000 1.0
C      1  0.4897060000000  0.5854920000000  0.4484270000000 1.0
C      1  0.5219600000000  0.4146390000000  0.4522560000000 1.0
C      1  0.5458300000000  0.5852550000000  0.4742780000000 1.0
C      1  0.5522040000000  0.4146590000000  0.5061130000000 1.0
C      1  0.5386500000000  0.5854980000000  0.5356560000000 1.0
C      1  0.5102940000000  0.4145080000000  0.5515730000000 1.0
C      1  0.4780400000000  0.5853610000000  0.5477440000000 1.0
C      1  0.4541710000000  0.4147450000000  0.5257230000000 1.0
C      1  0.4477960000000  0.5853410000000  0.4938870000000 1.0
C      1  0.5607420000000  0.4422190000000  0.5072310000000 1.0
C      1  0.5450310000000  0.5579570000000  0.5416280000000 1.0
C      1  0.5120710000000  0.4420300000000  0.5601510000000 1.0
C      1  0.4745050000000  0.5578010000000  0.5556230000000 1.0
C      1  0.4467190000000  0.4423210000000  0.5299100000000 1.0
C      1  0.4392580000000  0.5577810000000  0.4927690000000 1.0
C      1  0.4549630000000  0.4420380000000  0.4583660000000 1.0
C      1  0.4879290000000  0.5579700000000  0.4398490000000 1.0
C      1  0.5254950000000  0.4421990000000  0.4443770000000 1.0
C      1  0.5532810000000  0.5576790000000  0.4700900000000 1.0
C      1  0.4636370000000  0.4649990000000  0.5444810000000 1.0
C      1  0.4439780000000  0.5349990000000  0.5145360000000 1.0
C      1  0.4458490000000  0.4647990000000  0.4785410000000 1.0
C      1  0.4688330000000  0.5352770000000  0.4509700000000 1.0
C      1  0.5033640000000  0.4648300000000  0.4425100000000 1.0
C      1  0.5363630000000  0.5350010000000  0.4555190000000 1.0
C      1  0.5560220000000  0.4650010000000  0.4854640000000 1.0
C      1  0.5541510000000  0.5352010000000  0.5214590000000 1.0
C      1  0.5311670000000  0.4647230000000  0.5490300000000 1.0
C      1  0.4966360000000  0.5351700000000  0.5574900000000 1.0
C      1  0.5250530000000  0.4060700000000  0.5029610000000 1.0
C      1  0.5185490000000  0.5939090000000  0.5170980000000 1.0
C      1  0.5049540000000  0.4060670000000  0.5247290000000 1.0
C      1  0.4894440000000  0.5939210000000  0.5229150000000 1.0
C      1  0.4779930000000  0.4060980000000  0.5123720000000 1.0
C      1  0.4749470000000  0.5939300000000  0.4970390000000 1.0
C      1  0.4814470000000  0.4060830000000  0.4828990000000 1.0
C      1  0.4950460000000  0.5939330000000  0.4752710000000 1.0
C      1  0.5105550000000  0.4060790000000  0.4770850000000 1.0
C      1  0.5220060000000  0.5939030000000  0.4876280000000 1.0
C      1  0.4744220000000  0.4647020000000  0.4478270000000 1.0
C      1  0.5099240000000  0.5352040000000  0.4425260000000 1.0
C      1  0.5416050000000  0.4649860000000  0.4597480000000 1.0
C      1  0.5568470000000  0.5350020000000  0.4921220000000 1.0
C      1  0.5507590000000  0.4648470000000  0.5270790000000 1.0
C      1  0.5255780000000  0.5352980000000  0.5521740000000 1.0
C      1  0.4900760000000  0.4647960000000  0.5574740000000 1.0
C      1  0.4583950000000  0.5350140000000  0.5402510000000 1.0
C      1  0.4431530000000  0.4649980000000  0.5078780000000 1.0
C      1  0.4492410000000  0.5351530000000  0.4729210000000 1.0
END
