TITL C-21451-4170-53 2.22680665631989e-06 125000 -310.212292400905 0 0 60 (C3h) n - 1
REM
REM in /home/nfs/bkarasulu/CARBON/AIRSS/Generating-Clusters/TERSOFF/Higher-Symm/Only-C60
REM
REM
REM
REM
REM
REM ./C.cell (28575a23ae977d3b5fae324c64b13b57)
REM
REM compiler GCC version 9.2.1 20190827 (Red Hat 9.2.1-1)
REM options -cpp -mtune=generic -march=x86-64 -g -O0 -fpre-include=/usr/include/finclude/math-vector-fortran.h
REM seed 1697868101 1997402077 1613202327 -129188088 812543224 627001429 12109461 372670181 729540155 2095424865 -1729874303 -288209679 2118157503 -799526736 -1396006021 1815358889 104999977 603287538 75771433 279527466 -1170795255 -920024693 982659445 -601457294 -1301269481 -522581793 -2000159832 -1420903767 -718441864 1962531579 1300759126 -1025913086 4072889
REM
CELL 1.54180   50.00000   50.00000   50.00000   90.00000   90.00000   90.00000
LATT -1
SFAC C  
C      1  0.5069140000000  0.5457180000000  0.5717080000000 1.0
C      1  0.4569500000000  0.4831290000000  0.5717080000000 1.0
C      1  0.5361380000000  0.4711530000000  0.5717080000000 1.0
C      1  0.5069140000000  0.5457180000000  0.4282920000000 1.0
C      1  0.4569500000000  0.4831290000000  0.4282920000000 1.0
C      1  0.5361380000000  0.4711530000000  0.4282920000000 1.0
C      1  0.4669760000000  0.5021420000000  0.5147670000000 1.0
C      1  0.5146560000000  0.4703300000000  0.5147670000000 1.0
C      1  0.5183670000000  0.5275270000000  0.5147670000000 1.0
C      1  0.4669760000000  0.5021420000000  0.4852330000000 1.0
C      1  0.5146560000000  0.4703300000000  0.4852330000000 1.0
C      1  0.5183670000000  0.5275270000000  0.4852330000000 1.0
C      1  0.5412230000000  0.4648280000000  0.4716110000000 1.0
C      1  0.5098480000000  0.5532860000000  0.4716110000000 1.0
C      1  0.4489270000000  0.4818850000000  0.4716110000000 1.0
C      1  0.5412230000000  0.4648280000000  0.5283890000000 1.0
C      1  0.5098480000000  0.5532860000000  0.5283890000000 1.0
C      1  0.4489270000000  0.4818850000000  0.5283890000000 1.0
C      1  0.4568200000000  0.5268550000000  0.5699070000000 1.0
C      1  0.4983330000000  0.4491790000000  0.5699070000000 1.0
C      1  0.5448480000000  0.5239670000000  0.5699070000000 1.0
C      1  0.4568200000000  0.5268550000000  0.4300930000000 1.0
C      1  0.4983330000000  0.4491790000000  0.4300930000000 1.0
C      1  0.5448480000000  0.5239670000000  0.4300930000000 1.0
C      1  0.5235680000000  0.4471180000000  0.5498520000000 1.0
C      1  0.5340130000000  0.5468510000000  0.5498520000000 1.0
C      1  0.4424180000000  0.5060310000000  0.5498520000000 1.0
C      1  0.5235680000000  0.4471180000000  0.4501480000000 1.0
C      1  0.5340130000000  0.5468510000000  0.4501480000000 1.0
C      1  0.4424180000000  0.5060310000000  0.4501480000000 1.0
C      1  0.5596920000000  0.4475500000000  0.4859700000000 1.0
C      1  0.5155760000000  0.5779200000000  0.4859700000000 1.0
C      1  0.4247300000000  0.4745290000000  0.4859700000000 1.0
C      1  0.5596920000000  0.4475500000000  0.5140300000000 1.0
C      1  0.5155760000000  0.5779200000000  0.5140300000000 1.0
C      1  0.4247300000000  0.4745290000000  0.5140300000000 1.0
C      1  0.4275250000000  0.5164270000000  0.5180780000000 1.0
C      1  0.5220110000000  0.4290210000000  0.5180780000000 1.0
C      1  0.5504640000000  0.5545520000000  0.5180790000000 1.0
C      1  0.4275250000000  0.5164270000000  0.4819220000000 1.0
C      1  0.5220110000000  0.4290210000000  0.4819220000000 1.0
C      1  0.5504640000000  0.5545520000000  0.4819210000000 1.0
C      1  0.4815760000000  0.5497490000000  0.5343550000000 1.0
C      1  0.4661280000000  0.4591690000000  0.5343550000000 1.0
C      1  0.5522970000000  0.4910810000000  0.5343550000000 1.0
C      1  0.4815760000000  0.5497490000000  0.4656450000000 1.0
C      1  0.4661280000000  0.4591690000000  0.4656450000000 1.0
C      1  0.5522970000000  0.4910810000000  0.4656450000000 1.0
C      1  0.4653730000000  0.5341250000000  0.5163810000000 1.0
C      1  0.4877600000000  0.4529500000000  0.5163800000000 1.0
C      1  0.5468660000000  0.5129250000000  0.5163800000000 1.0
C      1  0.4653730000000  0.5341250000000  0.4836190000000 1.0
C      1  0.4877600000000  0.4529500000000  0.4836200000000 1.0
C      1  0.5468660000000  0.5129250000000  0.4836200000000 1.0
C      1  0.5501440000000  0.4961250000000  0.4377470000000 1.0
C      1  0.4782850000000  0.5453620000000  0.4377460000000 1.0
C      1  0.4715730000000  0.4585140000000  0.4377460000000 1.0
C      1  0.5501440000000  0.4961250000000  0.5622530000000 1.0
C      1  0.4782850000000  0.5453620000000  0.5622540000000 1.0
C      1  0.4715730000000  0.4585140000000  0.5622540000000 1.0
END
