TITL C-21449-9478-14 0.000147440150410782 125000 -328.502450106342 0 0 60 (C1) n - 1
REM
REM in /home/nfs/bkarasulu/CARBON/AIRSS/Generating-Clusters/TERSOFF/Higher-Symm/Only-C60
REM
REM
REM
REM
REM
REM ./C.cell (28575a23ae977d3b5fae324c64b13b57)
REM
REM compiler GCC version 9.2.1 20190827 (Red Hat 9.2.1-1)
REM options -cpp -mtune=generic -march=x86-64 -g -O0 -fpre-include=/usr/include/finclude/math-vector-fortran.h
REM seed -95341403 -733689389 -1706771372 -1414602357 1528784820 -1405855706 1970176385 -1453118556 -1878970808 679074156 -429266273 2098491992 -1897269434 1837720949 1967147173 -751729759 931300403 -2094558789 -738155224 1109656948 1429930950 1500152179 -1013329890 500684482 336881049 -345739787 -285612323 -1577745058 -438679139 1588104853 -976576434 -1281757709 1755548406
REM
CELL 1.54180   50.00000   50.00000   50.00000   90.00000   90.00000   90.00000
LATT -1
SFAC C  
C      1  0.4543420000000  0.5277760000000  0.5201040000000 1.0
C      1  0.5421990000000  0.5528810000000  0.5075010000000 1.0
C      1  0.5122920000000  0.4999350000000  0.5610430000000 1.0
C      1  0.4765810000000  0.5559840000000  0.4977160000000 1.0
C      1  0.5005300000000  0.4202060000000  0.5146260000000 1.0
C      1  0.5241150000000  0.5757360000000  0.5080310000000 1.0
C      1  0.5188850000000  0.4979990000000  0.4731960000000 1.0
C      1  0.4584560000000  0.4990170000000  0.5125870000000 1.0
C      1  0.5584250000000  0.5119650000000  0.4755510000000 1.0
C      1  0.4420910000000  0.5456400000000  0.4953590000000 1.0
C      1  0.5009930000000  0.5768740000000  0.4900570000000 1.0
C      1  0.4952500000000  0.4807800000000  0.4756850000000 1.0
C      1  0.5071490000000  0.4347970000000  0.5397540000000 1.0
C      1  0.5436090000000  0.4922290000000  0.4557750000000 1.0
C      1  0.5293240000000  0.4730190000000  0.5133140000000 1.0
C      1  0.5007700000000  0.4362330000000  0.4655830000000 1.0
C      1  0.5216970000000  0.5298420000000  0.5510620000000 1.0
C      1  0.5313980000000  0.4491800000000  0.4592900000000 1.0
C      1  0.5319490000000  0.4756370000000  0.5618790000000 1.0
C      1  0.5657660000000  0.4978680000000  0.5001790000000 1.0
C      1  0.4634800000000  0.4793170000000  0.4471590000000 1.0
C      1  0.4289770000000  0.4887900000000  0.5205200000000 1.0
C      1  0.5649620000000  0.5129820000000  0.5257230000000 1.0
C      1  0.5281030000000  0.5292100000000  0.4311950000000 1.0
C      1  0.5709340000000  0.4626480000000  0.5289990000000 1.0
C      1  0.4853490000000  0.4411430000000  0.5576890000000 1.0
C      1  0.4671420000000  0.5365350000000  0.5461210000000 1.0
C      1  0.5171500000000  0.5232840000000  0.4888700000000 1.0
C      1  0.4806680000000  0.4917470000000  0.5677070000000 1.0
C      1  0.4589600000000  0.5116730000000  0.5616180000000 1.0
C      1  0.5063190000000  0.5685640000000  0.4593830000000 1.0
C      1  0.5547500000000  0.4501780000000  0.4783710000000 1.0
C      1  0.4483500000000  0.5597990000000  0.4669020000000 1.0
C      1  0.4361050000000  0.5157430000000  0.4760630000000 1.0
C      1  0.4869170000000  0.5248490000000  0.4690440000000 1.0
C      1  0.5567790000000  0.4686180000000  0.5020990000000 1.0
C      1  0.5018300000000  0.4693430000000  0.5021760000000 1.0
C      1  0.4738240000000  0.4668850000000  0.5520110000000 1.0
C      1  0.4635860000000  0.4528300000000  0.4978190000000 1.0
C      1  0.5455860000000  0.5344320000000  0.5314680000000 1.0
C      1  0.4677040000000  0.5029700000000  0.4827420000000 1.0
C      1  0.4471360000000  0.4670270000000  0.4760340000000 1.0
C      1  0.4785120000000  0.5535450000000  0.4633570000000 1.0
C      1  0.4961240000000  0.5036260000000  0.5305220000000 1.0
C      1  0.4766000000000  0.4754660000000  0.5227030000000 1.0
C      1  0.5245940000000  0.4742500000000  0.4360250000000 1.0
C      1  0.4948270000000  0.5351380000000  0.5118650000000 1.0
C      1  0.4859170000000  0.4320600000000  0.4914300000000 1.0
C      1  0.5259810000000  0.4576090000000  0.5384420000000 1.0
C      1  0.4856450000000  0.5067400000000  0.4441750000000 1.0
C      1  0.5224800000000  0.5036740000000  0.5146540000000 1.0
C      1  0.4438920000000  0.5047800000000  0.4481440000000 1.0
C      1  0.5427200000000  0.5384910000000  0.4797740000000 1.0
C      1  0.4329940000000  0.4995140000000  0.5507680000000 1.0
C      1  0.4266210000000  0.4873780000000  0.4879360000000 1.0
C      1  0.5114910000000  0.5038710000000  0.4313430000000 1.0
C      1  0.4969450000000  0.5445110000000  0.5421940000000 1.0
C      1  0.4930850000000  0.4634000000000  0.4498100000000 1.0
C      1  0.5616860000000  0.4745130000000  0.5546590000000 1.0
C      1  0.5294550000000  0.5492690000000  0.4541900000000 1.0
END
