TITL C-21444-1711-4 3.00490605915132e-08 125000 -340.359096091012 0 0 60 (C5) n - 1
REM
REM in /home/nfs/bkarasulu/CARBON/AIRSS/Generating-Clusters/TERSOFF/Higher-Symm/Only-C60
REM
REM
REM
REM
REM
REM ./C.cell (28575a23ae977d3b5fae324c64b13b57)
REM
REM compiler GCC version 9.2.1 20190827 (Red Hat 9.2.1-1)
REM options -cpp -mtune=generic -march=x86-64 -g -O0 -fpre-include=/usr/include/finclude/math-vector-fortran.h
REM seed 734502029 580866988 -239803670 406492281 -1347167166 -1922580940 -1516625494 -793339736 1095971007 1154722966 -1640015436 1561084869 310018396 361855517 1139294409 -1452076314 184383057 -1823348778 -1095816734 1125993869 -1165956712 -737494828 -1013062910 -919899558 -1658494176 1627313289 77603201 1766980148 -312281065 -1924948496 63397404 1079684307 -712811566
REM
CELL 1.54180   50.00000   50.00000   50.00000   90.00000   90.00000   90.00000
LATT -1
SFAC C  
C      1  0.5373550000000  0.5494970000000  0.4666980000000 1.0
C      1  0.5432150000000  0.5494980000000  0.5252350000000 1.0
C      1  0.4893540000000  0.5494980000000  0.5488970000000 1.0
C      1  0.4502050000000  0.5494970000000  0.5049840000000 1.0
C      1  0.4798720000000  0.5494970000000  0.4541820000000 1.0
C      1  0.5237540000000  0.4227400000000  0.5121070000000 1.0
C      1  0.4958270000000  0.4227410000000  0.5263330000000 1.0
C      1  0.4736670000000  0.4227400000000  0.5041690000000 1.0
C      1  0.4878990000000  0.4227400000000  0.4762450000000 1.0
C      1  0.5188540000000  0.4227400000000  0.4811510000000 1.0
C      1  0.5227080000000  0.5268280000000  0.4537400000000 1.0
C      1  0.5510130000000  0.5268280000000  0.5073010000000 1.0
C      1  0.5088190000000  0.5268290000000  0.5507720000000 1.0
C      1  0.4544380000000  0.5268290000000  0.5240770000000 1.0
C      1  0.4630210000000  0.5268280000000  0.4641080000000 1.0
C      1  0.4778390000000  0.5116790000000  0.5117500000000 1.0
C      1  0.4819770000000  0.5116790000000  0.4825550000000 1.0
C      1  0.5110220000000  0.5116790000000  0.4774680000000 1.0
C      1  0.5248350000000  0.5116790000000  0.5035190000000 1.0
C      1  0.5043270000000  0.5116800000000  0.5247070000000 1.0
C      1  0.4401850000000  0.5354570000000  0.4812390000000 1.0
C      1  0.4993580000000  0.5354560000000  0.4373150000000 1.0
C      1  0.5594180000000  0.5354570000000  0.4800190000000 1.0
C      1  0.5373640000000  0.5354580000000  0.5503350000000 1.0
C      1  0.4636740000000  0.5354580000000  0.5510890000000 1.0
C      1  0.4370230000000  0.4966080000000  0.5206080000000 1.0
C      1  0.4609400000000  0.4966070000000  0.4464740000000 1.0
C      1  0.5388360000000  0.4966070000000  0.4463110000000 1.0
C      1  0.5630620000000  0.4966080000000  0.5203450000000 1.0
C      1  0.5001390000000  0.4966080000000  0.5662630000000 1.0
C      1  0.4326410000000  0.4904970000000  0.4644010000000 1.0
C      1  0.5130410000000  0.4904970000000  0.4249370000000 1.0
C      1  0.5754190000000  0.4904980000000  0.4892070000000 1.0
C      1  0.5335710000000  0.4904990000000  0.5683930000000 1.0
C      1  0.4453280000000  0.4904980000000  0.5530620000000 1.0
C      1  0.5513910000000  0.5096580000000  0.5519330000000 1.0
C      1  0.4664900000000  0.5096590000000  0.5649230000000 1.0
C      1  0.4278990000000  0.5096580000000  0.4881920000000 1.0
C      1  0.4889490000000  0.5096570000000  0.4277790000000 1.0
C      1  0.5652720000000  0.5096570000000  0.4671730000000 1.0
C      1  0.4444690000000  0.4681830000000  0.5052010000000 1.0
C      1  0.4778940000000  0.4681820000000  0.4487940000000 1.0
C      1  0.5418690000000  0.4681820000000  0.4631520000000 1.0
C      1  0.5479830000000  0.4681830000000  0.5284330000000 1.0
C      1  0.4877860000000  0.4681830000000  0.5544210000000 1.0
C      1  0.4982610000000  0.4654820000000  0.4279470000000 1.0
C      1  0.5679890000000  0.4654820000000  0.4760810000000 1.0
C      1  0.5437590000000  0.4654830000000  0.5572710000000 1.0
C      1  0.4590550000000  0.4654830000000  0.5593150000000 1.0
C      1  0.4309360000000  0.4654820000000  0.4793890000000 1.0
C      1  0.5223610000000  0.5672950000000  0.5132710000000 1.0
C      1  0.4942880000000  0.5672950000000  0.5253670000000 1.0
C      1  0.4741080000000  0.5672950000000  0.5024060000000 1.0
C      1  0.4897100000000  0.5672950000000  0.4761180000000 1.0
C      1  0.5195320000000  0.5672950000000  0.4828330000000 1.0
C      1  0.5254310000000  0.4560750000000  0.5134000000000 1.0
C      1  0.4951150000000  0.4560750000000  0.5283280000000 1.0
C      1  0.4715500000000  0.4560750000000  0.5041080000000 1.0
C      1  0.4873020000000  0.4560750000000  0.4742120000000 1.0
C      1  0.5206020000000  0.4560750000000  0.4799540000000 1.0
END
