TITL C-21446-9947-54 0.00335521231137601 125000 -321.651492421857 0 0 60 (D2) n - 1
REM
REM in /home/nfs/bkarasulu/CARBON/AIRSS/Generating-Clusters/TERSOFF/Higher-Symm/Only-C60
REM
REM
REM
REM
REM
REM ./C.cell (28575a23ae977d3b5fae324c64b13b57)
REM
REM compiler GCC version 9.2.1 20190827 (Red Hat 9.2.1-1)
REM options -cpp -mtune=generic -march=x86-64 -g -O0 -fpre-include=/usr/include/finclude/math-vector-fortran.h
REM seed 2118509126 -435404243 -493353229 -136365170 -529148699 -1821254847 -1486998806 -711236458 1944706335 694810732 834835261 -779645730 1975122343 -1090355207 1355035613 -2139000193 -1545426836 -844725042 -367499306 -2028385971 1572428597 433070337 844122620 -1125602063 2021616693 941009786 -2074441255 693776404 -1544370979 1485799064 -1961606894 1160875825 -532977728
REM
CELL 1.54180   50.00000   50.00000   50.00000   90.00000   90.00000   90.00000
LATT -1
SFAC C  
C      1  0.5227950000000  0.4523140000000  0.5175220000000 1.0
C      1  0.4772240000000  0.5476870000000  0.5175600000000 1.0
C      1  0.5228040000000  0.5476850000000  0.4824960000000 1.0
C      1  0.4772010000000  0.4523150000000  0.4824860000000 1.0
C      1  0.4528170000000  0.5244540000000  0.4498500000000 1.0
C      1  0.5471630000000  0.4755660000000  0.4498690000000 1.0
C      1  0.4528290000000  0.4755580000000  0.5501390000000 1.0
C      1  0.5471650000000  0.5244350000000  0.5501330000000 1.0
C      1  0.5252230000000  0.5033070000000  0.5591600000000 1.0
C      1  0.4747770000000  0.4966930000000  0.5591590000000 1.0
C      1  0.5252230000000  0.4966930000000  0.4408410000000 1.0
C      1  0.4747770000000  0.5033070000000  0.4408400000000 1.0
C      1  0.5317540000000  0.5559840000000  0.4536640000000 1.0
C      1  0.4682460000000  0.4440170000000  0.4536640000000 1.0
C      1  0.5317530000000  0.4440170000000  0.5463360000000 1.0
C      1  0.4682500000000  0.5559830000000  0.5463350000000 1.0
C      1  0.4985870000000  0.5208960000000  0.5648830000000 1.0
C      1  0.5014160000000  0.4791030000000  0.5648810000000 1.0
C      1  0.4985830000000  0.4790800000000  0.4351190000000 1.0
C      1  0.5014170000000  0.5209200000000  0.4351190000000 1.0
C      1  0.4939120000000  0.4202020000000  0.5143540000000 1.0
C      1  0.5060860000000  0.5797980000000  0.5143540000000 1.0
C      1  0.4939120000000  0.5797980000000  0.4856460000000 1.0
C      1  0.5060880000000  0.4202020000000  0.4856460000000 1.0
C      1  0.4849970000000  0.5586370000000  0.4656320000000 1.0
C      1  0.5150030000000  0.4413620000000  0.4656320000000 1.0
C      1  0.4849970000000  0.4413620000000  0.5343680000000 1.0
C      1  0.5150050000000  0.5586360000000  0.5343700000000 1.0
C      1  0.4602830000000  0.5442140000000  0.4702320000000 1.0
C      1  0.5397170000000  0.4557860000000  0.4702320000000 1.0
C      1  0.4602830000000  0.4557860000000  0.5297680000000 1.0
C      1  0.5397170000000  0.5442150000000  0.5297670000000 1.0
C      1  0.4761400000000  0.4987960000000  0.4736020000000 1.0
C      1  0.5238800000000  0.5011840000000  0.4735830000000 1.0
C      1  0.4761280000000  0.5011920000000  0.5264090000000 1.0
C      1  0.5238780000000  0.4988150000000  0.5264150000000 1.0
C      1  0.5041980000000  0.5485210000000  0.4448330000000 1.0
C      1  0.4957970000000  0.4514780000000  0.4448430000000 1.0
C      1  0.5042070000000  0.4514780000000  0.5551490000000 1.0
C      1  0.4957700000000  0.5485240000000  0.5551130000000 1.0
C      1  0.4455340000000  0.5363300000000  0.5459140000000 1.0
C      1  0.5544660000000  0.4636700000000  0.5459140000000 1.0
C      1  0.4455340000000  0.4636700000000  0.4540860000000 1.0
C      1  0.5544660000000  0.5363300000000  0.4540860000000 1.0
C      1  0.5461610000000  0.5418270000000  0.5006930000000 1.0
C      1  0.4538380000000  0.4581740000000  0.5006930000000 1.0
C      1  0.5461620000000  0.4581730000000  0.4993060000000 1.0
C      1  0.4538360000000  0.5418260000000  0.4993050000000 1.0
C      1  0.5545730000000  0.4808720000000  0.5207210000000 1.0
C      1  0.4454270000000  0.5191280000000  0.5207210000000 1.0
C      1  0.5545730000000  0.5191290000000  0.4792790000000 1.0
C      1  0.4454270000000  0.4808720000000  0.4792790000000 1.0
C      1  0.4210120000000  0.4939300000000  0.4872800000000 1.0
C      1  0.5789880000000  0.5060710000000  0.4872800000000 1.0
C      1  0.4210120000000  0.5060710000000  0.5127200000000 1.0
C      1  0.5789880000000  0.4939300000000  0.5127200000000 1.0
C      1  0.5012660000000  0.5227520000000  0.4846020000000 1.0
C      1  0.4987340000000  0.4772480000000  0.4846020000000 1.0
C      1  0.5012660000000  0.4772480000000  0.5153980000000 1.0
C      1  0.4987340000000  0.5227520000000  0.5153970000000 1.0
END
