TITL C-21449-9478-43 0.00298765507251011 125000 -323.731517301243 0 0 60 (C1) n - 1
REM
REM in /home/nfs/bkarasulu/CARBON/AIRSS/Generating-Clusters/TERSOFF/Higher-Symm/Only-C60
REM
REM
REM
REM
REM
REM ./C.cell (28575a23ae977d3b5fae324c64b13b57)
REM
REM compiler GCC version 9.2.1 20190827 (Red Hat 9.2.1-1)
REM options -cpp -mtune=generic -march=x86-64 -g -O0 -fpre-include=/usr/include/finclude/math-vector-fortran.h
REM seed 44226909 -2016090688 -306065022 -1679036054 1573127341 -1624562347 -903570980 -645520781 -171207420 -1749689875 1532645792 -406771713 1871853484 -2068186585 -810877044 -28695866 -606878809 -371865814 -1371511339 -263249806 275694403 -222258534 -38445872 -458967322 -557645992 -1611762976 -1536477476 -1878957081 -394549842 1755708658 1701796152 805009515 1296911016
REM
CELL 1.54180   50.00000   50.00000   50.00000   90.00000   90.00000   90.00000
LATT -1
SFAC C  
C      1  0.5291130000000  0.5108930000000  0.4518180000000 1.0
C      1  0.4157820000000  0.4936250000000  0.5163100000000 1.0
C      1  0.5028660000000  0.4974100000000  0.4292920000000 1.0
C      1  0.4985000000000  0.4674650000000  0.4352760000000 1.0
C      1  0.5235000000000  0.5712690000000  0.5304630000000 1.0
C      1  0.5342680000000  0.4356230000000  0.4907440000000 1.0
C      1  0.5199050000000  0.5461000000000  0.4506220000000 1.0
C      1  0.4926800000000  0.5490050000000  0.4406440000000 1.0
C      1  0.5558460000000  0.5107620000000  0.5509540000000 1.0
C      1  0.5248640000000  0.4333120000000  0.4626680000000 1.0
C      1  0.5446360000000  0.5061550000000  0.5041980000000 1.0
C      1  0.4971620000000  0.5089960000000  0.4690740000000 1.0
C      1  0.5244940000000  0.4563780000000  0.4438000000000 1.0
C      1  0.4594530000000  0.5403700000000  0.5466080000000 1.0
C      1  0.4680620000000  0.4548050000000  0.5563280000000 1.0
C      1  0.5053460000000  0.5589980000000  0.5513010000000 1.0
C      1  0.4919170000000  0.4565270000000  0.4843990000000 1.0
C      1  0.5700370000000  0.5119430000000  0.4872110000000 1.0
C      1  0.4798520000000  0.5114410000000  0.5240300000000 1.0
C      1  0.4340940000000  0.4941660000000  0.5434800000000 1.0
C      1  0.5396260000000  0.5453710000000  0.4885590000000 1.0
C      1  0.4779660000000  0.5618910000000  0.5381100000000 1.0
C      1  0.4372410000000  0.5094230000000  0.4960130000000 1.0
C      1  0.4942920000000  0.5284570000000  0.5058570000000 1.0
C      1  0.4404450000000  0.4589340000000  0.5023270000000 1.0
C      1  0.4424190000000  0.4938580000000  0.4407200000000 1.0
C      1  0.4508740000000  0.4828620000000  0.4876680000000 1.0
C      1  0.5091850000000  0.5274270000000  0.5627220000000 1.0
C      1  0.4802580000000  0.5164210000000  0.5573360000000 1.0
C      1  0.5406480000000  0.4790330000000  0.5147230000000 1.0
C      1  0.4822490000000  0.5211660000000  0.4413930000000 1.0
C      1  0.5251010000000  0.5298400000000  0.5105070000000 1.0
C      1  0.5140160000000  0.4691760000000  0.5277370000000 1.0
C      1  0.5509100000000  0.4588860000000  0.4948430000000 1.0
C      1  0.4849980000000  0.4354000000000  0.5078220000000 1.0
C      1  0.4784490000000  0.5635300000000  0.4611450000000 1.0
C      1  0.5185350000000  0.4433940000000  0.5457430000000 1.0
C      1  0.5637860000000  0.4701110000000  0.4707320000000 1.0
C      1  0.5315890000000  0.5007940000000  0.5720130000000 1.0
C      1  0.5435190000000  0.4780170000000  0.4503700000000 1.0
C      1  0.4486590000000  0.5177280000000  0.5261260000000 1.0
C      1  0.4532240000000  0.5197250000000  0.4475440000000 1.0
C      1  0.4510490000000  0.4729030000000  0.4583610000000 1.0
C      1  0.4640070000000  0.4844210000000  0.5521860000000 1.0
C      1  0.5528190000000  0.5278480000000  0.4691370000000 1.0
C      1  0.4867470000000  0.4817280000000  0.5268820000000 1.0
C      1  0.4484140000000  0.5300560000000  0.4762210000000 1.0
C      1  0.5165050000000  0.4281390000000  0.5130930000000 1.0
C      1  0.4719800000000  0.5492690000000  0.4867130000000 1.0
C      1  0.4777220000000  0.4584510000000  0.4551550000000 1.0
C      1  0.5361850000000  0.4660610000000  0.5631710000000 1.0
C      1  0.5540030000000  0.4811360000000  0.5419200000000 1.0
C      1  0.5106640000000  0.5767900000000  0.5034630000000 1.0
C      1  0.4872420000000  0.4395970000000  0.5409280000000 1.0
C      1  0.4816190000000  0.5689510000000  0.5087840000000 1.0
C      1  0.5327410000000  0.5291410000000  0.5403000000000 1.0
C      1  0.5840770000000  0.4895790000000  0.4763450000000 1.0
C      1  0.5251420000000  0.5678100000000  0.4771020000000 1.0
C      1  0.4835670000000  0.4868840000000  0.4855740000000 1.0
C      1  0.4551490000000  0.4345460000000  0.5054360000000 1.0
END
