TITL C-21449-9478-28 0.00104910566075453 125000 -358.797665332659 0 0 60 (C1) n - 1
REM
REM in /home/nfs/bkarasulu/CARBON/AIRSS/Generating-Clusters/TERSOFF/Higher-Symm/Only-C60
REM
REM
REM
REM
REM
REM ./C.cell (28575a23ae977d3b5fae324c64b13b57)
REM
REM compiler GCC version 9.2.1 20190827 (Red Hat 9.2.1-1)
REM options -cpp -mtune=generic -march=x86-64 -g -O0 -fpre-include=/usr/include/finclude/math-vector-fortran.h
REM seed 824847770 1127752078 763602528 1875891717 -1142157116 -1650616569 1898024675 -1354252863 -1067429910 -2084276869 1259913636 -883639036 1995191374 -829543408 -1746312169 165313045 -173705228 -1676493718 -1545876933 1916858376 -2107888281 -1857870944 1933215240 -1577588009 -763916224 -1155399607 1248789766 1660683808 1964196373 1985697958 -983559510 1281375373 -327984437
REM
CELL 1.54180   50.00000   50.00000   50.00000   90.00000   90.00000   90.00000
LATT -1
SFAC C  
C      1  0.5405510000000  0.5145640000000  0.5748660000000 1.0
C      1  0.4593310000000  0.5141980000000  0.4250730000000 1.0
C      1  0.4588570000000  0.4852250000000  0.5745140000000 1.0
C      1  0.5407750000000  0.4846270000000  0.4256620000000 1.0
C      1  0.5748550000000  0.5153280000000  0.5411150000000 1.0
C      1  0.4252430000000  0.5148780000000  0.4587710000000 1.0
C      1  0.5746380000000  0.4856760000000  0.4594980000000 1.0
C      1  0.4254200000000  0.4854540000000  0.5403340000000 1.0
C      1  0.4852330000000  0.5279040000000  0.5694780000000 1.0
C      1  0.5149530000000  0.5279400000000  0.4306960000000 1.0
C      1  0.5152530000000  0.4710620000000  0.5683080000000 1.0
C      1  0.4853010000000  0.4712810000000  0.4316640000000 1.0
C      1  0.5687740000000  0.5287160000000  0.4854470000000 1.0
C      1  0.4311990000000  0.5287310000000  0.5145130000000 1.0
C      1  0.5691890000000  0.4721540000000  0.5153000000000 1.0
C      1  0.4310090000000  0.4720700000000  0.4850390000000 1.0
C      1  0.4933030000000  0.4684390000000  0.5480360000000 1.0
C      1  0.5068550000000  0.4681980000000  0.4523060000000 1.0
C      1  0.5065900000000  0.5319880000000  0.5488750000000 1.0
C      1  0.4933620000000  0.5316610000000  0.4511220000000 1.0
C      1  0.5486370000000  0.4687330000000  0.4938380000000 1.0
C      1  0.4516450000000  0.4686040000000  0.5064020000000 1.0
C      1  0.5482920000000  0.5322260000000  0.5070970000000 1.0
C      1  0.4516510000000  0.5320110000000  0.4928190000000 1.0
C      1  0.4718630000000  0.5117280000000  0.4913250000000 1.0
C      1  0.5282050000000  0.5118290000000  0.5087750000000 1.0
C      1  0.5283680000000  0.4890280000000  0.4920810000000 1.0
C      1  0.4717530000000  0.4890180000000  0.5081950000000 1.0
C      1  0.4919160000000  0.5117290000000  0.4717090000000 1.0
C      1  0.5081230000000  0.5118960000000  0.5284180000000 1.0
C      1  0.4914320000000  0.4891710000000  0.5282130000000 1.0
C      1  0.5087130000000  0.4889910000000  0.4720300000000 1.0
C      1  0.5351850000000  0.4615880000000  0.4436350000000 1.0
C      1  0.4649780000000  0.4621320000000  0.5568200000000 1.0
C      1  0.4650230000000  0.5377330000000  0.4423150000000 1.0
C      1  0.5349620000000  0.5381340000000  0.5575950000000 1.0
C      1  0.4429720000000  0.4620850000000  0.5347240000000 1.0
C      1  0.5573130000000  0.4622700000000  0.4655730000000 1.0
C      1  0.4429220000000  0.5381100000000  0.4643910000000 1.0
C      1  0.5570480000000  0.5384720000000  0.5354930000000 1.0
C      1  0.5057330000000  0.5250600000000  0.4028600000000 1.0
C      1  0.4948420000000  0.5235200000000  0.5970210000000 1.0
C      1  0.4947990000000  0.4739200000000  0.4038590000000 1.0
C      1  0.5063720000000  0.4725120000000  0.5962870000000 1.0
C      1  0.4033360000000  0.5263350000000  0.5053880000000 1.0
C      1  0.5965510000000  0.5256310000000  0.4947350000000 1.0
C      1  0.4033170000000  0.4750780000000  0.4945780000000 1.0
C      1  0.5970100000000  0.4744850000000  0.5059810000000 1.0
C      1  0.5404090000000  0.5122340000000  0.4369360000000 1.0
C      1  0.4592330000000  0.5128570000000  0.5631190000000 1.0
C      1  0.4594550000000  0.4869160000000  0.4372120000000 1.0
C      1  0.5406940000000  0.4873160000000  0.5627330000000 1.0
C      1  0.4371630000000  0.5128950000000  0.5402220000000 1.0
C      1  0.5627160000000  0.5131330000000  0.4595130000000 1.0
C      1  0.4368510000000  0.4874370000000  0.4592850000000 1.0
C      1  0.5633570000000  0.4878510000000  0.5407970000000 1.0
C      1  0.4989160000000  0.4994690000000  0.3899390000000 1.0
C      1  0.4975700000000  0.4971100000000  0.6098620000000 1.0
C      1  0.3897940000000  0.5008920000000  0.4991530000000 1.0
C      1  0.6101870000000  0.4997650000000  0.4984560000000 1.0
END
