TITL C-21449-9478-10 0.00538328422373518 125000 -330.511170653712 0 0 60 (C1) n - 1
REM
REM in /home/nfs/bkarasulu/CARBON/AIRSS/Generating-Clusters/TERSOFF/Higher-Symm/Only-C60
REM
REM
REM
REM
REM
REM ./C.cell (28575a23ae977d3b5fae324c64b13b57)
REM
REM compiler GCC version 9.2.1 20190827 (Red Hat 9.2.1-1)
REM options -cpp -mtune=generic -march=x86-64 -g -O0 -fpre-include=/usr/include/finclude/math-vector-fortran.h
REM seed 623137789 119174724 1200106458 416473605 -1083383946 -536015112 -1623376398 -1651494283 127402460 -13559955 -2062386832 -1612980103 2056442287 -1797730057 805724088 -480818617 -2106643419 -46840321 -245545134 1043882922 -1409362572 1787152610 -1444588264 465771835 -1855162363 -231948145 -1356575441 1266789075 1946277141 -296514559 -239069931 -1579436507 -1531173233
REM
CELL 1.54180   50.00000   50.00000   50.00000   90.00000   90.00000   90.00000
LATT -1
SFAC C  
C      1  0.5092780000000  0.4706400000000  0.5516440000000 1.0
C      1  0.4662570000000  0.5090790000000  0.5519160000000 1.0
C      1  0.5220410000000  0.5275340000000  0.5517530000000 1.0
C      1  0.4678460000000  0.5052280000000  0.4990910000000 1.0
C      1  0.5164500000000  0.5294840000000  0.4991610000000 1.0
C      1  0.5151950000000  0.4751930000000  0.4992740000000 1.0
C      1  0.4441390000000  0.4405460000000  0.5239470000000 1.0
C      1  0.4740250000000  0.5813860000000  0.5236630000000 1.0
C      1  0.5806060000000  0.4848780000000  0.5242420000000 1.0
C      1  0.4924570000000  0.5318980000000  0.4568010000000 1.0
C      1  0.5309860000000  0.4986570000000  0.4567190000000 1.0
C      1  0.4785030000000  0.4754090000000  0.4715500000000 1.0
C      1  0.4424840000000  0.5350250000000  0.5140500000000 1.0
C      1  0.5549730000000  0.5355190000000  0.5146150000000 1.0
C      1  0.5012680000000  0.4381260000000  0.5133140000000 1.0
C      1  0.5351330000000  0.4672220000000  0.5373850000000 1.0
C      1  0.4508260000000  0.4891280000000  0.5366970000000 1.0
C      1  0.5121840000000  0.5513270000000  0.5376020000000 1.0
C      1  0.5188390000000  0.4499500000000  0.4540260000000 1.0
C      1  0.4468930000000  0.5123560000000  0.4559010000000 1.0
C      1  0.5388720000000  0.5468420000000  0.4580730000000 1.0
C      1  0.5379160000000  0.4705530000000  0.4622450000000 1.0
C      1  0.4513010000000  0.4844980000000  0.4622060000000 1.0
C      1  0.5110620000000  0.5537980000000  0.4627510000000 1.0
C      1  0.4388260000000  0.4737150000000  0.4870190000000 1.0
C      1  0.5058080000000  0.5684220000000  0.4875220000000 1.0
C      1  0.5539170000000  0.4653610000000  0.4865070000000 1.0
C      1  0.4634000000000  0.4623900000000  0.5315400000000 1.0
C      1  0.4819340000000  0.5551740000000  0.5352950000000 1.0
C      1  0.5536960000000  0.4913570000000  0.5352170000000 1.0
C      1  0.4810800000000  0.4373840000000  0.4892020000000 1.0
C      1  0.4573150000000  0.5495260000000  0.4894340000000 1.0
C      1  0.5626050000000  0.5167540000000  0.4905890000000 1.0
C      1  0.5289660000000  0.5006000000000  0.5104260000000 1.0
C      1  0.4830830000000  0.4776000000000  0.5047720000000 1.0
C      1  0.4869720000000  0.5290370000000  0.5109450000000 1.0
C      1  0.4768820000000  0.5721450000000  0.4958540000000 1.0
C      1  0.5717250000000  0.4881330000000  0.4963520000000 1.0
C      1  0.4503870000000  0.4453990000000  0.4954000000000 1.0
C      1  0.4642810000000  0.5334380000000  0.4652270000000 1.0
C      1  0.5484610000000  0.5204700000000  0.4653660000000 1.0
C      1  0.4910470000000  0.4495990000000  0.4624020000000 1.0
C      1  0.4377250000000  0.5008920000000  0.5100770000000 1.0
C      1  0.5284950000000  0.5572800000000  0.5105140000000 1.0
C      1  0.5325010000000  0.4502100000000  0.5094260000000 1.0
C      1  0.5490250000000  0.5208180000000  0.5412310000000 1.0
C      1  0.4905260000000  0.4519480000000  0.5384870000000 1.0
C      1  0.4587370000000  0.5361830000000  0.5411560000000 1.0
C      1  0.4960430000000  0.4910900000000  0.6614780000000 1.0
C      1  0.5031960000000  0.4952660000000  0.3243510000000 1.0
C      1  0.4970940000000  0.4967780000000  0.6106510000000 1.0
C      1  0.4987480000000  0.5017850000000  0.5580020000000 1.0
C      1  0.4993630000000  0.5028000000000  0.5265490000000 1.0
C      1  0.4985810000000  0.4943080000000  0.3751510000000 1.0
C      1  0.4889700000000  0.5049780000000  0.3999300000000 1.0
C      1  0.4927320000000  0.4927430000000  0.4254710000000 1.0
C      1  0.5004790000000  0.5066370000000  0.6375580000000 1.0
C      1  0.5047600000000  0.5110340000000  0.5869130000000 1.0
C      1  0.5040260000000  0.5059850000000  0.4480650000000 1.0
C      1  0.4954420000000  0.5069690000000  0.3495270000000 1.0
END
