TITL C-21454-5660-20 9.9682575034127e-08 125000 -235.611291008791 0 0 60 (Th) n - 1
REM
REM in /home/nfs/bkarasulu/CARBON/AIRSS/Generating-Clusters/TERSOFF/Higher-Symm/Only-C60
REM
REM
REM
REM
REM
REM ./C.cell (28575a23ae977d3b5fae324c64b13b57)
REM
REM compiler GCC version 9.2.1 20190827 (Red Hat 9.2.1-1)
REM options -cpp -mtune=generic -march=x86-64 -g -O0 -fpre-include=/usr/include/finclude/math-vector-fortran.h
REM seed 196988880 506781318 1972794261 573032198 -2016047487 866971596 -1901436469 -1628314327 492308043 2122715244 -975911069 -587816651 -1461522333 -860163085 -623446242 -2073819301 1722574040 1020300415 -998518325 -2068596713 1510597712 1315117827 60886629 132047956 -1696545518 162449728 -1848583897 -16217347 1641880515 -417941640 1321015094 -1596423663 -282332052
REM
CELL 1.54180   50.00000   50.00000   50.00000   90.00000   90.00000   90.00000
LATT -1
SFAC C  
C      1  0.4500400000000  0.5229490000000  0.5470700000000 1.0
C      1  0.5470700000000  0.4500400000000  0.5229490000000 1.0
C      1  0.5229490000000  0.5470700000000  0.4500400000000 1.0
C      1  0.5499600000000  0.5229490000000  0.4529300000000 1.0
C      1  0.4500400000000  0.4770510000000  0.4529300000000 1.0
C      1  0.5499600000000  0.4770510000000  0.5470700000000 1.0
C      1  0.4529300000000  0.4500400000000  0.4770510000000 1.0
C      1  0.5470700000000  0.5499600000000  0.4770510000000 1.0
C      1  0.4529300000000  0.5499600000000  0.5229490000000 1.0
C      1  0.4770510000000  0.5470700000000  0.5499600000000 1.0
C      1  0.5229490000000  0.4529300000000  0.5499600000000 1.0
C      1  0.4770510000000  0.4529300000000  0.4500400000000 1.0
C      1  0.5643380000000  0.5000000000000  0.5248960000000 1.0
C      1  0.5248960000000  0.5643380000000  0.5000000000000 1.0
C      1  0.5000000000000  0.5248960000000  0.5643380000000 1.0
C      1  0.4356620000000  0.5000000000000  0.4751040000000 1.0
C      1  0.5643380000000  0.5000000000000  0.4751040000000 1.0
C      1  0.4356620000000  0.5000000000000  0.5248960000000 1.0
C      1  0.4751040000000  0.5643380000000  0.5000000000000 1.0
C      1  0.5248960000000  0.4356620000000  0.5000000000000 1.0
C      1  0.4751040000000  0.4356620000000  0.5000000000000 1.0
C      1  0.5000000000000  0.5248960000000  0.4356620000000 1.0
C      1  0.5000000000000  0.4751040000000  0.4356620000000 1.0
C      1  0.5000000000000  0.4751040000000  0.5643380000000 1.0
C      1  0.5257370000000  0.5000000000000  0.5600330000000 1.0
C      1  0.5600330000000  0.5257370000000  0.5000000000000 1.0
C      1  0.5000000000000  0.5600330000000  0.5257370000000 1.0
C      1  0.4742630000000  0.5000000000000  0.4399670000000 1.0
C      1  0.5257370000000  0.5000000000000  0.4399670000000 1.0
C      1  0.4742630000000  0.5000000000000  0.5600330000000 1.0
C      1  0.4399670000000  0.5257370000000  0.5000000000000 1.0
C      1  0.5600330000000  0.4742630000000  0.5000000000000 1.0
C      1  0.4399670000000  0.4742630000000  0.5000000000000 1.0
C      1  0.5000000000000  0.5600330000000  0.4742630000000 1.0
C      1  0.5000000000000  0.4399670000000  0.4742630000000 1.0
C      1  0.5000000000000  0.4399670000000  0.5257370000000 1.0
C      1  0.5470700000000  0.5499600000000  0.5229490000000 1.0
C      1  0.5229490000000  0.5470700000000  0.5499600000000 1.0
C      1  0.5499600000000  0.5229490000000  0.5470700000000 1.0
C      1  0.4529300000000  0.5499600000000  0.4770510000000 1.0
C      1  0.5470700000000  0.4500400000000  0.4770510000000 1.0
C      1  0.4529300000000  0.4500400000000  0.5229490000000 1.0
C      1  0.4770510000000  0.5470700000000  0.4500400000000 1.0
C      1  0.5229490000000  0.4529300000000  0.4500400000000 1.0
C      1  0.4770510000000  0.4529300000000  0.5499600000000 1.0
C      1  0.4500400000000  0.5229490000000  0.4529300000000 1.0
C      1  0.5499600000000  0.4770510000000  0.4529300000000 1.0
C      1  0.4500400000000  0.4770510000000  0.5470700000000 1.0
C      1  0.5000000000000  0.4723920000000  0.5207880000000 1.0
C      1  0.5207880000000  0.5000000000000  0.4723920000000 1.0
C      1  0.4723920000000  0.5207880000000  0.5000000000000 1.0
C      1  0.5000000000000  0.4723920000000  0.4792120000000 1.0
C      1  0.5000000000000  0.5276080000000  0.4792120000000 1.0
C      1  0.5000000000000  0.5276080000000  0.5207880000000 1.0
C      1  0.4792120000000  0.5000000000000  0.5276080000000 1.0
C      1  0.5207880000000  0.5000000000000  0.5276080000000 1.0
C      1  0.4792120000000  0.5000000000000  0.4723920000000 1.0
C      1  0.5276080000000  0.5207880000000  0.5000000000000 1.0
C      1  0.4723920000000  0.4792120000000  0.5000000000000 1.0
C      1  0.5276080000000  0.4792120000000  0.5000000000000 1.0
END
