TITL C-21444-1711-2 -3.25838881977043e-07 125000 -312.176322423165 0 0 60 (C4) n - 1
REM
REM in /home/nfs/bkarasulu/CARBON/AIRSS/Generating-Clusters/TERSOFF/Higher-Symm/Only-C60
REM
REM
REM
REM
REM
REM ./C.cell (28575a23ae977d3b5fae324c64b13b57)
REM
REM compiler GCC version 9.2.1 20190827 (Red Hat 9.2.1-1)
REM options -cpp -mtune=generic -march=x86-64 -g -O0 -fpre-include=/usr/include/finclude/math-vector-fortran.h
REM seed -1580474489 1433028120 1841786478 954030332 -1865945386 -692032876 669430604 -1798909926 -3782676 2075727705 1762317957 -606656579 679686422 824373947 1643561684 -1715993016 -2017205694 -694929334 -1554094478 -1341544715 1590912099 1930258973 -1505873188 -624494893 1747266083 -56406244 1887247720 -623293888 -365092344 -1786775434 34581243 -1810516719 -607838696
REM
CELL 1.54180   50.00000   50.00000   50.00000   90.00000   90.00000   90.00000
LATT -1
SFAC C  
C      1  0.4805970000000  0.4866640000000  0.5714510000000 1.0
C      1  0.4866640000000  0.5194040000000  0.5714510000000 1.0
C      1  0.5194040000000  0.5133360000000  0.5714510000000 1.0
C      1  0.5133360000000  0.4805960000000  0.5714510000000 1.0
C      1  0.4494050000000  0.5437460000000  0.4740990000000 1.0
C      1  0.5437450000000  0.5505950000000  0.4740990000000 1.0
C      1  0.5505950000000  0.4562550000000  0.4740990000000 1.0
C      1  0.4562540000000  0.4494050000000  0.4740990000000 1.0
C      1  0.5081180000000  0.5632300000000  0.5249290000000 1.0
C      1  0.5632300000000  0.4918820000000  0.5249290000000 1.0
C      1  0.4918820000000  0.4367700000000  0.5249290000000 1.0
C      1  0.4367700000000  0.5081180000000  0.5249290000000 1.0
C      1  0.5089580000000  0.4401740000000  0.4607010000000 1.0
C      1  0.4401730000000  0.4910420000000  0.4607010000000 1.0
C      1  0.4910420000000  0.5598260000000  0.4607010000000 1.0
C      1  0.5598260000000  0.5089580000000  0.4607010000000 1.0
C      1  0.5654950000000  0.5114360000000  0.4963030000000 1.0
C      1  0.5114360000000  0.4345050000000  0.4963030000000 1.0
C      1  0.4345050000000  0.4885640000000  0.4963030000000 1.0
C      1  0.4885640000000  0.5654950000000  0.4963030000000 1.0
C      1  0.5171050000000  0.5193480000000  0.4317210000000 1.0
C      1  0.5193480000000  0.4828950000000  0.4317210000000 1.0
C      1  0.4828950000000  0.4806520000000  0.4317210000000 1.0
C      1  0.4806520000000  0.5171050000000  0.4317210000000 1.0
C      1  0.5325140000000  0.5424450000000  0.5268640000000 1.0
C      1  0.5424450000000  0.4674860000000  0.5268640000000 1.0
C      1  0.4674860000000  0.4575550000000  0.5268640000000 1.0
C      1  0.4575550000000  0.5325150000000  0.5268640000000 1.0
C      1  0.4917030000000  0.4645690000000  0.4574540000000 1.0
C      1  0.4645690000000  0.5082970000000  0.4574540000000 1.0
C      1  0.5082970000000  0.5354300000000  0.4574540000000 1.0
C      1  0.5354300000000  0.4917030000000  0.4574540000000 1.0
C      1  0.5288940000000  0.4793160000000  0.4834540000000 1.0
C      1  0.4793160000000  0.4711060000000  0.4834530000000 1.0
C      1  0.4711060000000  0.5206840000000  0.4834530000000 1.0
C      1  0.5206840000000  0.5288940000000  0.4834540000000 1.0
C      1  0.5091480000000  0.4360990000000  0.5488990000000 1.0
C      1  0.4360990000000  0.4908520000000  0.5488990000000 1.0
C      1  0.4908520000000  0.5639010000000  0.5488990000000 1.0
C      1  0.5639010000000  0.5091480000000  0.5488990000000 1.0
C      1  0.4670590000000  0.5482840000000  0.4452430000000 1.0
C      1  0.5482830000000  0.5329410000000  0.4452430000000 1.0
C      1  0.5329410000000  0.4517160000000  0.4452430000000 1.0
C      1  0.4517160000000  0.4670590000000  0.4452430000000 1.0
C      1  0.4730230000000  0.5412200000000  0.5553230000000 1.0
C      1  0.5412200000000  0.5269770000000  0.5553230000000 1.0
C      1  0.5269770000000  0.4587800000000  0.5553230000000 1.0
C      1  0.4587800000000  0.4730230000000  0.5553230000000 1.0
C      1  0.4875540000000  0.5188150000000  0.5230520000000 1.0
C      1  0.5188150000000  0.5124460000000  0.5230520000000 1.0
C      1  0.5124460000000  0.4811850000000  0.5230520000000 1.0
C      1  0.4811850000000  0.4875540000000  0.5230520000000 1.0
C      1  0.5420010000000  0.4448870000000  0.5034970000000 1.0
C      1  0.4448870000000  0.4579990000000  0.5034970000000 1.0
C      1  0.4579990000000  0.5551130000000  0.5034970000000 1.0
C      1  0.5551130000000  0.5420010000000  0.5034970000000 1.0
C      1  0.4943630000000  0.5345550000000  0.4970100000000 1.0
C      1  0.5345550000000  0.5056370000000  0.4970100000000 1.0
C      1  0.5056370000000  0.4654450000000  0.4970100000000 1.0
C      1  0.4654450000000  0.4943630000000  0.4970100000000 1.0
END
