TITL C-21447-2359-52 0.000435098620261392 125000 -310.728538914729 0 0 60 (C6h) n - 1
REM
REM in /home/nfs/bkarasulu/CARBON/AIRSS/Generating-Clusters/TERSOFF/Higher-Symm/Only-C60
REM
REM
REM
REM
REM
REM ./C.cell (28575a23ae977d3b5fae324c64b13b57)
REM
REM compiler GCC version 9.2.1 20190827 (Red Hat 9.2.1-1)
REM options -cpp -mtune=generic -march=x86-64 -g -O0 -fpre-include=/usr/include/finclude/math-vector-fortran.h
REM seed -2031913617 1007708232 1814994181 1421477316 -1490275300 -978036681 -1005022695 884958049 2022235050 927078229 -205346752 -1475001124 -644031771 813772039 -2077286754 -1053542531 764747666 1965572439 -574999532 1858870909 -1683983710 -455836680 -470725848 745565820 -1521762312 -801029691 1875371553 -303892353 2038507921 -320787967 -1099702518 -672126579 1211606477
REM
CELL 1.54180   50.00000   50.00000   50.00000   90.00000   90.00000   90.00000
LATT -1
SFAC C  
C      1  0.4714150000000  0.5550000000000  0.4837540000000 1.0
C      1  0.4997840000000  0.5549990000000  0.4671220000000 1.0
C      1  0.5283560000000  0.5549920000000  0.4833770000000 1.0
C      1  0.5285850000000  0.5550000000000  0.5162460000000 1.0
C      1  0.5002160000000  0.5549990000000  0.5328780000000 1.0
C      1  0.4716440000000  0.5549920000000  0.5166230000000 1.0
C      1  0.4714150000000  0.4450000000000  0.4837540000000 1.0
C      1  0.4997840000000  0.4450010000000  0.4671220000000 1.0
C      1  0.5283560000000  0.4450080000000  0.4833770000000 1.0
C      1  0.5285850000000  0.4450000000000  0.5162460000000 1.0
C      1  0.5002160000000  0.4450010000000  0.5328780000000 1.0
C      1  0.4716440000000  0.4450080000000  0.5166230000000 1.0
C      1  0.4976680000000  0.5374010000000  0.5622230000000 1.0
C      1  0.4449360000000  0.5374020000000  0.5290860000000 1.0
C      1  0.4472890000000  0.5374010000000  0.4668650000000 1.0
C      1  0.5023320000000  0.5374010000000  0.4377770000000 1.0
C      1  0.5550640000000  0.5374020000000  0.4709140000000 1.0
C      1  0.5527110000000  0.5374010000000  0.5331350000000 1.0
C      1  0.4976680000000  0.4625990000000  0.5622230000000 1.0
C      1  0.4449360000000  0.4625980000000  0.5290860000000 1.0
C      1  0.4472890000000  0.4625990000000  0.4668650000000 1.0
C      1  0.5023320000000  0.4625990000000  0.4377770000000 1.0
C      1  0.5550640000000  0.4625980000000  0.4709140000000 1.0
C      1  0.5527110000000  0.4625990000000  0.5331350000000 1.0
C      1  0.5174910000000  0.4842440000000  0.5258620000000 1.0
C      1  0.4863690000000  0.4842440000000  0.5280720000000 1.0
C      1  0.4688660000000  0.4842460000000  0.5022250000000 1.0
C      1  0.4825090000000  0.4842440000000  0.4741380000000 1.0
C      1  0.5136310000000  0.4842440000000  0.4719280000000 1.0
C      1  0.5311340000000  0.4842460000000  0.4977750000000 1.0
C      1  0.5174910000000  0.5157560000000  0.5258620000000 1.0
C      1  0.4863690000000  0.5157560000000  0.5280720000000 1.0
C      1  0.4688660000000  0.5157540000000  0.5022250000000 1.0
C      1  0.4825090000000  0.5157560000000  0.4741380000000 1.0
C      1  0.5136310000000  0.5157560000000  0.4719280000000 1.0
C      1  0.5311340000000  0.5157540000000  0.4977750000000 1.0
C      1  0.4254780000000  0.4818540000000  0.4793670000000 1.0
C      1  0.4806110000000  0.4818480000000  0.4251470000000 1.0
C      1  0.5551410000000  0.4818490000000  0.4457790000000 1.0
C      1  0.5745220000000  0.4818540000000  0.5206330000000 1.0
C      1  0.5193890000000  0.4818480000000  0.5748530000000 1.0
C      1  0.4448590000000  0.4818490000000  0.5542210000000 1.0
C      1  0.4254780000000  0.5181460000000  0.4793670000000 1.0
C      1  0.4806110000000  0.5181520000000  0.4251470000000 1.0
C      1  0.5551410000000  0.5181510000000  0.4457790000000 1.0
C      1  0.5745220000000  0.5181460000000  0.5206330000000 1.0
C      1  0.5193890000000  0.5181520000000  0.5748530000000 1.0
C      1  0.4448590000000  0.5181510000000  0.5542210000000 1.0
C      1  0.5383100000000  0.5164840000000  0.5506510000000 1.0
C      1  0.4753020000000  0.5164880000000  0.5585070000000 1.0
C      1  0.4369850000000  0.5165180000000  0.5078580000000 1.0
C      1  0.4616900000000  0.5164840000000  0.4493490000000 1.0
C      1  0.5246980000000  0.5164880000000  0.4414930000000 1.0
C      1  0.5630150000000  0.5165180000000  0.4921420000000 1.0
C      1  0.5383100000000  0.4835160000000  0.5506510000000 1.0
C      1  0.4753020000000  0.4835120000000  0.5585070000000 1.0
C      1  0.4369850000000  0.4834820000000  0.5078580000000 1.0
C      1  0.4616900000000  0.4835160000000  0.4493490000000 1.0
C      1  0.5246980000000  0.4835120000000  0.4414930000000 1.0
C      1  0.5630150000000  0.4834820000000  0.4921420000000 1.0
END
