TITL C-21453-3943-30 -2.34050646274715e-07 125000 -335.306680995629 0 0 60 (S4) n - 1
REM
REM in /home/nfs/bkarasulu/CARBON/AIRSS/Generating-Clusters/TERSOFF/Higher-Symm/Only-C60
REM
REM
REM
REM
REM
REM ./C.cell (28575a23ae977d3b5fae324c64b13b57)
REM
REM compiler GCC version 9.2.1 20190827 (Red Hat 9.2.1-1)
REM options -cpp -mtune=generic -march=x86-64 -g -O0 -fpre-include=/usr/include/finclude/math-vector-fortran.h
REM seed -352617781 1967343575 1897995828 -1655402522 1574860302 -148764092 -888061672 -41272363 -867202835 -1149356123 1482080975 -1161933668 -154215182 -491519919 -1773919788 1584788023 1634459278 -158997264 -499810779 -1345457255 1153715518 359679490 -1843140779 866919422 1956951162 962749235 1888834191 -204455270 156352792 -143710908 -2096181943 -1076492584 247357739
REM
CELL 1.54180   50.00000   50.00000   50.00000   90.00000   90.00000   90.00000
LATT -1
SFAC C  
C      1  0.5729940000000  0.4882900000000  0.4674130000000 1.0
C      1  0.5325870000000  0.5117100000000  0.5729940000000 1.0
C      1  0.4270060000000  0.4882900000000  0.5325870000000 1.0
C      1  0.4674130000000  0.5117100000000  0.4270060000000 1.0
C      1  0.4277030000000  0.4884440000000  0.4644180000000 1.0
C      1  0.5355820000000  0.5115560000000  0.4277030000000 1.0
C      1  0.5722970000000  0.4884440000000  0.5355820000000 1.0
C      1  0.4644180000000  0.5115560000000  0.5722970000000 1.0
C      1  0.4795210000000  0.5274120000000  0.5477810000000 1.0
C      1  0.4522190000000  0.4725880000000  0.4795210000000 1.0
C      1  0.5204790000000  0.5274120000000  0.4522190000000 1.0
C      1  0.5477810000000  0.4725880000000  0.5204790000000 1.0
C      1  0.4807110000000  0.5073940000000  0.5238920000000 1.0
C      1  0.4761080000000  0.4926060000000  0.4807110000000 1.0
C      1  0.5192890000000  0.5073940000000  0.4761080000000 1.0
C      1  0.5238920000000  0.4926060000000  0.5192890000000 1.0
C      1  0.5016020000000  0.5496420000000  0.4483120000000 1.0
C      1  0.5516880000000  0.4503580000000  0.5016020000000 1.0
C      1  0.4983980000000  0.5496420000000  0.5516880000000 1.0
C      1  0.4483120000000  0.4503580000000  0.4983980000000 1.0
C      1  0.5028570000000  0.4793260000000  0.4838600000000 1.0
C      1  0.5161400000000  0.5206740000000  0.5028570000000 1.0
C      1  0.4971430000000  0.4793260000000  0.5161400000000 1.0
C      1  0.4838600000000  0.5206740000000  0.4971430000000 1.0
C      1  0.5711200000000  0.5299240000000  0.5018010000000 1.0
C      1  0.4981990000000  0.4700760000000  0.5711200000000 1.0
C      1  0.4288800000000  0.5299240000000  0.4981990000000 1.0
C      1  0.5018010000000  0.4700760000000  0.4288800000000 1.0
C      1  0.5548960000000  0.5308250000000  0.4517150000000 1.0
C      1  0.5482850000000  0.4691750000000  0.5548960000000 1.0
C      1  0.4451040000000  0.5308250000000  0.5482850000000 1.0
C      1  0.4517150000000  0.4691750000000  0.4451040000000 1.0
C      1  0.5272230000000  0.5468630000000  0.5111160000000 1.0
C      1  0.4888840000000  0.4531370000000  0.5272230000000 1.0
C      1  0.4727770000000  0.5468630000000  0.4888840000000 1.0
C      1  0.5111160000000  0.4531370000000  0.4727770000000 1.0
C      1  0.5670820000000  0.4269790000000  0.5094160000000 1.0
C      1  0.4905840000000  0.5730210000000  0.5670820000000 1.0
C      1  0.4329180000000  0.4269790000000  0.4905840000000 1.0
C      1  0.5094160000000  0.5730210000000  0.4329180000000 1.0
C      1  0.4748820000000  0.5479270000000  0.4601060000000 1.0
C      1  0.5398940000000  0.4520730000000  0.4748820000000 1.0
C      1  0.5251180000000  0.5479270000000  0.5398940000000 1.0
C      1  0.4601060000000  0.4520730000000  0.5251180000000 1.0
C      1  0.5531990000000  0.5529340000000  0.5007660000000 1.0
C      1  0.4992340000000  0.4470660000000  0.5531990000000 1.0
C      1  0.4468010000000  0.5529340000000  0.4992340000000 1.0
C      1  0.5007660000000  0.4470660000000  0.4468010000000 1.0
C      1  0.5704200000000  0.5169980000000  0.4729760000000 1.0
C      1  0.5270240000000  0.4830020000000  0.5704200000000 1.0
C      1  0.4295800000000  0.5169980000000  0.5270240000000 1.0
C      1  0.4729760000000  0.4830020000000  0.4295800000000 1.0
C      1  0.4558750000000  0.5286760000000  0.4488160000000 1.0
C      1  0.5511840000000  0.4713240000000  0.4558750000000 1.0
C      1  0.5441250000000  0.5286760000000  0.5511840000000 1.0
C      1  0.4488160000000  0.4713240000000  0.5441250000000 1.0
C      1  0.5665890000000  0.5170470000000  0.5314990000000 1.0
C      1  0.4685010000000  0.4829530000000  0.5665890000000 1.0
C      1  0.4334110000000  0.5170470000000  0.4685010000000 1.0
C      1  0.5314990000000  0.4829530000000  0.4334110000000 1.0
END
