TITL C-21441-2359-13 -2.63675339016354e-07 125000 -319.714048026575 0 0 60 (C3) n - 1
REM
REM in /home/nfs/bkarasulu/CARBON/AIRSS/Generating-Clusters/TERSOFF/Higher-Symm/Only-C60
REM
REM
REM
REM
REM
REM ./C.cell (28575a23ae977d3b5fae324c64b13b57)
REM
REM compiler GCC version 9.2.1 20190827 (Red Hat 9.2.1-1)
REM options -cpp -mtune=generic -march=x86-64 -g -O0 -fpre-include=/usr/include/finclude/math-vector-fortran.h
REM seed 756145303 -532552607 -908242437 -1297437551 1902011744 734857802 36841446 393968194 -1511627859 283708463 -1460067123 496373937 269763460 -1517865086 -322219153 -443735752 1012279444 684084733 160092232 -866216480 -2104494548 -242477136 830568546 -1807874124 564942566 1467682139 -1587972274 -1387370386 983059148 -1398754833 -1072100980 1951378755 809222067
REM
CELL 1.54180   50.00000   50.00000   50.00000   90.00000   90.00000   90.00000
LATT -1
SFAC C  
C      1  0.5728780000000  0.5019130000000  0.4385760000000 1.0
C      1  0.4103670000000  0.5019130000000  0.4675980000000 1.0
C      1  0.5167560000000  0.5019130000000  0.5938260000000 1.0
C      1  0.4271220000000  0.5019130000000  0.4385760000000 1.0
C      1  0.5896330000000  0.5019130000000  0.4675980000000 1.0
C      1  0.4832440000000  0.5019130000000  0.5938260000000 1.0
C      1  0.5170410000000  0.4739540000000  0.5782500000000 1.0
C      1  0.5592460000000  0.4739540000000  0.4461170000000 1.0
C      1  0.4237130000000  0.4739540000000  0.4756330000000 1.0
C      1  0.4829590000000  0.4739540000000  0.5782500000000 1.0
C      1  0.4407540000000  0.4739540000000  0.4461170000000 1.0
C      1  0.5762870000000  0.4739540000000  0.4756330000000 1.0
C      1  0.5234660000000  0.4742910000000  0.5425600000000 1.0
C      1  0.5251250000000  0.4742910000000  0.4583980000000 1.0
C      1  0.4514090000000  0.4742910000000  0.4990420000000 1.0
C      1  0.4765340000000  0.4742910000000  0.5425600000000 1.0
C      1  0.4748750000000  0.4742910000000  0.4583980000000 1.0
C      1  0.5485910000000  0.4742910000000  0.4990420000000 1.0
C      1  0.5490160000000  0.4685530000000  0.5645890000000 1.0
C      1  0.5314280000000  0.4685530000000  0.4252570000000 1.0
C      1  0.4195570000000  0.4685530000000  0.5101540000000 1.0
C      1  0.4509840000000  0.4685530000000  0.5645890000000 1.0
C      1  0.4685720000000  0.4685530000000  0.4252570000000 1.0
C      1  0.5804430000000  0.4685530000000  0.5101540000000 1.0
C      1  0.5723570000000  0.5272690000000  0.4756940000000 1.0
C      1  0.4427710000000  0.5272690000000  0.4494900000000 1.0
C      1  0.4848710000000  0.5272690000000  0.5748170000000 1.0
C      1  0.4276430000000  0.5272690000000  0.4756940000000 1.0
C      1  0.5572290000000  0.5272690000000  0.4494900000000 1.0
C      1  0.5151290000000  0.5272690000000  0.5748170000000 1.0
C      1  0.4853160000000  0.4515530000000  0.4745500000000 1.0
C      1  0.4853020000000  0.4515530000000  0.5254420000000 1.0
C      1  0.5293820000000  0.4515530000000  0.5000080000000 1.0
C      1  0.5146840000000  0.4515530000000  0.4745500000000 1.0
C      1  0.5146980000000  0.4515530000000  0.5254420000000 1.0
C      1  0.4706180000000  0.4515530000000  0.5000080000000 1.0
C      1  0.5280610000000  0.5268890000000  0.4515700000000 1.0
C      1  0.4440280000000  0.5268890000000  0.4999130000000 1.0
C      1  0.5279110000000  0.5268890000000  0.5485160000000 1.0
C      1  0.4719390000000  0.5268890000000  0.4515700000000 1.0
C      1  0.5559720000000  0.5268890000000  0.4999130000000 1.0
C      1  0.4720890000000  0.5268890000000  0.5485160000000 1.0
C      1  0.4660010000000  0.5019970000000  0.5004420000000 1.0
C      1  0.5173820000000  0.5019970000000  0.5292230000000 1.0
C      1  0.5166170000000  0.5019970000000  0.4703350000000 1.0
C      1  0.5339990000000  0.5019970000000  0.5004420000000 1.0
C      1  0.4826180000000  0.5019970000000  0.5292230000000 1.0
C      1  0.4833830000000  0.5019970000000  0.4703350000000 1.0
C      1  0.5709710000000  0.5294220000000  0.5247290000000 1.0
C      1  0.4859300000000  0.5294220000000  0.4261730000000 1.0
C      1  0.4430990000000  0.5294220000000  0.5490990000000 1.0
C      1  0.4290290000000  0.5294220000000  0.5247290000000 1.0
C      1  0.5140700000000  0.5294220000000  0.4261730000000 1.0
C      1  0.5569010000000  0.5294220000000  0.5490990000000 1.0
C      1  0.5296620000000  0.5441600000000  0.4999110000000 1.0
C      1  0.4850920000000  0.5441600000000  0.4743570000000 1.0
C      1  0.4852460000000  0.5441600000000  0.5257320000000 1.0
C      1  0.4703380000000  0.5441600000000  0.4999110000000 1.0
C      1  0.5149080000000  0.5441600000000  0.4743570000000 1.0
C      1  0.5147540000000  0.5441600000000  0.5257320000000 1.0
END
