TITL C-21446-9947-11 0.000935536493798307 125000 -309.529286626214 0 0 60 (Cs) n - 1
REM
REM in /home/nfs/bkarasulu/CARBON/AIRSS/Generating-Clusters/TERSOFF/Higher-Symm/Only-C60
REM
REM
REM
REM
REM
REM ./C.cell (28575a23ae977d3b5fae324c64b13b57)
REM
REM compiler GCC version 9.2.1 20190827 (Red Hat 9.2.1-1)
REM options -cpp -mtune=generic -march=x86-64 -g -O0 -fpre-include=/usr/include/finclude/math-vector-fortran.h
REM seed -717149134 -2026273959 849777377 1099745396 -1270984271 2053637740 588466195 -1253502889 259164149 -1172751392 -625338930 -1436923778 -308374148 -45993734 -1827590569 -2054538896 -1507157902 -1247003839 1544460098 1516823443 1946167222 -1301928441 -502557573 -170732805 -1117980908 -1047780913 208302695 320945356 737429050 977974115 -491805158 1946559500 -2070534123
REM
CELL 1.54180   50.00000   50.00000   50.00000   90.00000   90.00000   90.00000
LATT -1
SFAC C  
C      1  0.4622830000000  0.5606010000000  0.5237440000000 1.0
C      1  0.4622870000000  0.5606120000000  0.4736850000000 1.0
C      1  0.5792840000000  0.5080120000000  0.4736270000000 1.0
C      1  0.5792840000000  0.5080270000000  0.5237810000000 1.0
C      1  0.4877700000000  0.5348980000000  0.5524080000000 1.0
C      1  0.4877880000000  0.5349220000000  0.4450110000000 1.0
C      1  0.4405950000000  0.4848350000000  0.5399670000000 1.0
C      1  0.4405590000000  0.4849090000000  0.4573540000000 1.0
C      1  0.4661080000000  0.4940360000000  0.4455250000000 1.0
C      1  0.4661040000000  0.4939980000000  0.5518560000000 1.0
C      1  0.4380360000000  0.5170260000000  0.5308190000000 1.0
C      1  0.4380470000000  0.5170440000000  0.4665970000000 1.0
C      1  0.5151150000000  0.4674100000000  0.4517590000000 1.0
C      1  0.5151280000000  0.4674090000000  0.5456730000000 1.0
C      1  0.5576560000000  0.5163650000000  0.5423710000000 1.0
C      1  0.5576440000000  0.5163790000000  0.4550570000000 1.0
C      1  0.5322500000000  0.5639100000000  0.4777730000000 1.0
C      1  0.5322490000000  0.5639000000000  0.5196510000000 1.0
C      1  0.5299190000000  0.5171070000000  0.5318280000000 1.0
C      1  0.5299130000000  0.5171130000000  0.4656110000000 1.0
C      1  0.4632450000000  0.4596940000000  0.4694560000000 1.0
C      1  0.4633720000000  0.4597280000000  0.5278060000000 1.0
C      1  0.4990100000000  0.4300350000000  0.4777440000000 1.0
C      1  0.4990400000000  0.4300180000000  0.5197160000000 1.0
C      1  0.5084900000000  0.5416990000000  0.5283420000000 1.0
C      1  0.5084920000000  0.5417120000000  0.4690850000000 1.0
C      1  0.5131410000000  0.4981780000000  0.4485290000000 1.0
C      1  0.5131450000000  0.4981700000000  0.5489010000000 1.0
C      1  0.4910090000000  0.5699800000000  0.4732690000000 1.0
C      1  0.4910090000000  0.5699690000000  0.5241650000000 1.0
C      1  0.4877890000000  0.4975160000000  0.5332720000000 1.0
C      1  0.4877790000000  0.4975380000000  0.4641420000000 1.0
C      1  0.4716850000000  0.4983720000000  0.4162870000000 1.0
C      1  0.4716380000000  0.4983350000000  0.5811060000000 1.0
C      1  0.5282010000000  0.4654450000000  0.5196890000000 1.0
C      1  0.5281900000000  0.4654450000000  0.4777430000000 1.0
C      1  0.4969300000000  0.5136090000000  0.5725410000000 1.0
C      1  0.4969690000000  0.5136370000000  0.4248790000000 1.0
C      1  0.4906170000000  0.4494000000000  0.5423950000000 1.0
C      1  0.4906160000000  0.4493710000000  0.4550240000000 1.0
C      1  0.4570570000000  0.5388800000000  0.4525560000000 1.0
C      1  0.4570470000000  0.5388610000000  0.5448630000000 1.0
C      1  0.4339940000000  0.4669540000000  0.4986900000000 1.0
C      1  0.5549480000000  0.5536960000000  0.4987090000000 1.0
C      1  0.4914060000000  0.5300450000000  0.4987110000000 1.0
C      1  0.5780430000000  0.4843750000000  0.4987160000000 1.0
C      1  0.4863890000000  0.4942270000000  0.4987100000000 1.0
C      1  0.4426700000000  0.4369890000000  0.4988950000000 1.0
C      1  0.5576720000000  0.4327680000000  0.4986900000000 1.0
C      1  0.4607760000000  0.5441180000000  0.4987110000000 1.0
C      1  0.5199320000000  0.4866120000000  0.4987160000000 1.0
C      1  0.5660260000000  0.5245470000000  0.4987050000000 1.0
C      1  0.5088250000000  0.5822740000000  0.4987180000000 1.0
C      1  0.5270240000000  0.4388490000000  0.4987220000000 1.0
C      1  0.4772990000000  0.4607320000000  0.4985830000000 1.0
C      1  0.5356570000000  0.5120680000000  0.4987160000000 1.0
C      1  0.5798930000000  0.4537570000000  0.4987380000000 1.0
C      1  0.4380840000000  0.5216980000000  0.4987050000000 1.0
C      1  0.4746290000000  0.4261530000000  0.4987590000000 1.0
C      1  0.4509060000000  0.4932630000000  0.4987040000000 1.0
END
