TITL C-21443-6457-36 -1.84561642083971e-06 125000 -299.959129994309 0 0 60 (C1) n - 1
REM
REM in /home/nfs/bkarasulu/CARBON/AIRSS/Generating-Clusters/TERSOFF/Higher-Symm/Only-C60
REM
REM
REM
REM
REM
REM ./C.cell (28575a23ae977d3b5fae324c64b13b57)
REM
REM compiler GCC version 9.2.1 20190827 (Red Hat 9.2.1-1)
REM options -cpp -mtune=generic -march=x86-64 -g -O0 -fpre-include=/usr/include/finclude/math-vector-fortran.h
REM seed -865994976 785955211 -1429577792 -1312250142 216422522 1271484263 1687924707 -20180612 719577885 1977546430 -2084323471 1288842841 2034851620 82447918 -1897704028 -1940273 -840907098 -805818566 -1978577592 1021846453 1135674043 303495960 -1651118721 1401411622 486402514 -1653031435 425245910 2086723422 -1361805267 1722353278 -1356249826 1976713602 -1059780462
REM
CELL 1.54180   50.00000   50.00000   50.00000   90.00000   90.00000   90.00000
LATT -1
SFAC C  
C      1  0.5363080000000  0.4792420000000  0.4492620000000 1.0
C      1  0.5355220000000  0.5540380000000  0.5076470000000 1.0
C      1  0.5358780000000  0.4665190000000  0.5429460000000 1.0
C      1  0.4486600000000  0.5347780000000  0.5457180000000 1.0
C      1  0.4495090000000  0.4437760000000  0.5081660000000 1.0
C      1  0.4481000000000  0.5200390000000  0.4506720000000 1.0
C      1  0.4984460000000  0.4887590000000  0.4643820000000 1.0
C      1  0.4980480000000  0.5353090000000  0.5081950000000 1.0
C      1  0.4981550000000  0.4747690000000  0.5266550000000 1.0
C      1  0.4995710000000  0.5159020000000  0.4467180000000 1.0
C      1  0.5001550000000  0.5384530000000  0.5403970000000 1.0
C      1  0.5007300000000  0.4453020000000  0.5131740000000 1.0
C      1  0.4725380000000  0.5139080000000  0.4320420000000 1.0
C      1  0.4742430000000  0.5528770000000  0.5471660000000 1.0
C      1  0.4740500000000  0.4330060000000  0.5233500000000 1.0
C      1  0.5044130000000  0.4443260000000  0.4828790000000 1.0
C      1  0.5029880000000  0.5421680000000  0.4614070000000 1.0
C      1  0.5031500000000  0.5130410000000  0.5557160000000 1.0
C      1  0.4322190000000  0.4961310000000  0.5111690000000 1.0
C      1  0.4332960000000  0.4792160000000  0.4796870000000 1.0
C      1  0.4342810000000  0.5289240000000  0.5000580000000 1.0
C      1  0.5474970000000  0.4395830000000  0.5013930000000 1.0
C      1  0.5463730000000  0.5291920000000  0.4471430000000 1.0
C      1  0.5466200000000  0.5314400000000  0.5517960000000 1.0
C      1  0.5663700000000  0.5426720000000  0.4815170000000 1.0
C      1  0.5666150000000  0.4949650000000  0.5460570000000 1.0
C      1  0.5672010000000  0.4628370000000  0.4725050000000 1.0
C      1  0.4798980000000  0.4480700000000  0.4661900000000 1.0
C      1  0.4784640000000  0.5536240000000  0.4742970000000 1.0
C      1  0.4784760000000  0.4966830000000  0.5588450000000 1.0
C      1  0.4612370000000  0.4837250000000  0.4329510000000 1.0
C      1  0.4633870000000  0.5690070000000  0.5216370000000 1.0
C      1  0.4620970000000  0.4507780000000  0.5475820000000 1.0
C      1  0.5265540000000  0.4370970000000  0.5269840000000 1.0
C      1  0.5254640000000  0.5082590000000  0.4324180000000 1.0
C      1  0.5258460000000  0.5546620000000  0.5410800000000 1.0
C      1  0.5730110000000  0.4878580000000  0.5161210000000 1.0
C      1  0.5731400000000  0.4924610000000  0.4811880000000 1.0
C      1  0.5727310000000  0.5203670000000  0.5026800000000 1.0
C      1  0.5479740000000  0.4698640000000  0.5120410000000 1.0
C      1  0.5478630000000  0.5044810000000  0.4676340000000 1.0
C      1  0.5474560000000  0.5254480000000  0.5202150000000 1.0
C      1  0.4849300000000  0.5635220000000  0.5012280000000 1.0
C      1  0.4846980000000  0.4687540000000  0.5544390000000 1.0
C      1  0.4844380000000  0.4680830000000  0.4450860000000 1.0
C      1  0.4366690000000  0.5495360000000  0.5213430000000 1.0
C      1  0.4361210000000  0.4646630000000  0.5283550000000 1.0
C      1  0.4354010000000  0.4919740000000  0.4530240000000 1.0
C      1  0.5345170000000  0.5517400000000  0.4716190000000 1.0
C      1  0.5346540000000  0.4988870000000  0.5589070000000 1.0
C      1  0.5357370000000  0.4493200000000  0.4694960000000 1.0
C      1  0.5215710000000  0.5162530000000  0.4887110000000 1.0
C      1  0.5211180000000  0.5009470000000  0.5197560000000 1.0
C      1  0.5215000000000  0.4818360000000  0.4908900000000 1.0
C      1  0.4746750000000  0.5181180000000  0.4964090000000 1.0
C      1  0.4734280000000  0.4916390000000  0.5174560000000 1.0
C      1  0.4744850000000  0.4855610000000  0.4843310000000 1.0
C      1  0.4540970000000  0.5334030000000  0.4758300000000 1.0
C      1  0.4526510000000  0.5052260000000  0.5405670000000 1.0
C      1  0.4547760000000  0.4569840000000  0.4828700000000 1.0
END
