TITL C-21441-2359-51 0.00174774445157463 125000 -313.992867439415 0 0 60 (C2) n - 1
REM
REM in /home/nfs/bkarasulu/CARBON/AIRSS/Generating-Clusters/TERSOFF/Higher-Symm/Only-C60
REM
REM
REM
REM
REM
REM ./C.cell (28575a23ae977d3b5fae324c64b13b57)
REM
REM compiler GCC version 9.2.1 20190827 (Red Hat 9.2.1-1)
REM options -cpp -mtune=generic -march=x86-64 -g -O0 -fpre-include=/usr/include/finclude/math-vector-fortran.h
REM seed 1443370179 -95616069 2009007046 183063868 -539923256 31415734 -1082737560 -1761424777 732577895 -162597345 677148726 -1060210625 1693831308 990137954 -525603318 748487728 -1551468330 959347709 -1155091957 1973344704 -1916677513 644499220 1266700180 2133796314 1033746789 754747829 -918490490 224984212 -1175828233 -1487777640 1106543144 -324212024 -607575980
REM
CELL 1.54180   50.00000   50.00000   50.00000   90.00000   90.00000   90.00000
LATT -1
SFAC C  
C      1  0.5478090000000  0.5379560000000  0.5163020000000 1.0
C      1  0.4522010000000  0.4620290000000  0.5163140000000 1.0
C      1  0.4422230000000  0.5163380000000  0.5145580000000 1.0
C      1  0.5577670000000  0.4836730000000  0.5145500000000 1.0
C      1  0.4454010000000  0.5458500000000  0.5036460000000 1.0
C      1  0.5545930000000  0.4541490000000  0.5036550000000 1.0
C      1  0.4764300000000  0.4815820000000  0.5130170000000 1.0
C      1  0.5236100000000  0.5184480000000  0.5130070000000 1.0
C      1  0.5208110000000  0.4746230000000  0.4386200000000 1.0
C      1  0.4791900000000  0.5253790000000  0.4386230000000 1.0
C      1  0.4233000000000  0.5204780000000  0.4623640000000 1.0
C      1  0.5767000000000  0.4795200000000  0.4623650000000 1.0
C      1  0.5097460000000  0.5645210000000  0.5150570000000 1.0
C      1  0.4902770000000  0.4354480000000  0.5150080000000 1.0
C      1  0.4969830000000  0.5249570000000  0.5205650000000 1.0
C      1  0.5030340000000  0.4750200000000  0.5205390000000 1.0
C      1  0.5014510000000  0.5352540000000  0.5497970000000 1.0
C      1  0.4984130000000  0.4647910000000  0.5498500000000 1.0
C      1  0.4359980000000  0.4715770000000  0.4690350000000 1.0
C      1  0.5639990000000  0.5284290000000  0.4690360000000 1.0
C      1  0.5710320000000  0.5237410000000  0.5265910000000 1.0
C      1  0.4290410000000  0.4762510000000  0.5266600000000 1.0
C      1  0.4712290000000  0.4468880000000  0.5392270000000 1.0
C      1  0.5287730000000  0.5531100000000  0.5392320000000 1.0
C      1  0.5078130000000  0.5210850000000  0.4397680000000 1.0
C      1  0.4921870000000  0.4789170000000  0.4397630000000 1.0
C      1  0.5177430000000  0.5511850000000  0.4823610000000 1.0
C      1  0.4822630000000  0.4488160000000  0.4823720000000 1.0
C      1  0.4622400000000  0.5173270000000  0.5572680000000 1.0
C      1  0.5377490000000  0.4826260000000  0.5572760000000 1.0
C      1  0.5582570000000  0.4567170000000  0.4719840000000 1.0
C      1  0.4417470000000  0.5432820000000  0.4719810000000 1.0
C      1  0.4610020000000  0.5046100000000  0.4284280000000 1.0
C      1  0.5390000000000  0.4953870000000  0.4284260000000 1.0
C      1  0.5277080000000  0.4544620000000  0.5474720000000 1.0
C      1  0.4722450000000  0.5455900000000  0.5475520000000 1.0
C      1  0.5140610000000  0.4504360000000  0.4840430000000 1.0
C      1  0.4859040000000  0.5495410000000  0.4840020000000 1.0
C      1  0.4665860000000  0.5038430000000  0.4788600000000 1.0
C      1  0.5334120000000  0.4961380000000  0.4788150000000 1.0
C      1  0.4853060000000  0.4927240000000  0.5672690000000 1.0
C      1  0.5146980000000  0.5072710000000  0.5672750000000 1.0
C      1  0.4369770000000  0.4967160000000  0.4438770000000 1.0
C      1  0.5630230000000  0.5032810000000  0.4438740000000 1.0
C      1  0.5301620000000  0.4673420000000  0.4660230000000 1.0
C      1  0.4698360000000  0.5326660000000  0.4660220000000 1.0
C      1  0.5262610000000  0.4405410000000  0.5157540000000 1.0
C      1  0.4736880000000  0.5595080000000  0.5157390000000 1.0
C      1  0.5667100000000  0.4992790000000  0.4854880000000 1.0
C      1  0.4332920000000  0.5007240000000  0.4854910000000 1.0
C      1  0.4727610000000  0.5096830000000  0.5093920000000 1.0
C      1  0.5273090000000  0.4902920000000  0.5094520000000 1.0
C      1  0.5212910000000  0.5219630000000  0.4656750000000 1.0
C      1  0.4787010000000  0.4780380000000  0.4656820000000 1.0
C      1  0.5416740000000  0.5244870000000  0.5565910000000 1.0
C      1  0.4583950000000  0.4754940000000  0.5564990000000 1.0
C      1  0.4519020000000  0.4532820000000  0.4876530000000 1.0
C      1  0.5481040000000  0.5467170000000  0.4876580000000 1.0
C      1  0.4368450000000  0.5014720000000  0.5433010000000 1.0
C      1  0.5631370000000  0.4985490000000  0.5433000000000 1.0
END
