TITL C-21442-1735-48 -1.56945714344037e-07 125000 -322.151681335442 0 0 60 (C2v) n - 1
REM
REM in /home/nfs/bkarasulu/CARBON/AIRSS/Generating-Clusters/TERSOFF/Higher-Symm/Only-C60
REM
REM
REM
REM
REM
REM ./C.cell (28575a23ae977d3b5fae324c64b13b57)
REM
REM compiler GCC version 9.2.1 20190827 (Red Hat 9.2.1-1)
REM options -cpp -mtune=generic -march=x86-64 -g -O0 -fpre-include=/usr/include/finclude/math-vector-fortran.h
REM seed -1477738111 1615364041 616301424 483582374 372817338 1430737610 1831010007 -1263777167 -1035886917 -2053579379 390750283 151032399 40428990 526160375 329127074 -706390786 -1237392711 -835804895 1439414347 -1533992474 1437292247 -1095651173 1023064020 -1548779001 -1662353522 -1769368163 -986835152 -2076378145 1242633918 -1570012151 513130236 1868532515 535045992
REM
CELL 1.54180   50.00000   50.00000   50.00000   90.00000   90.00000   90.00000
LATT -1
SFAC C  
C      1  0.4809000000000  0.5608270000000  0.4437440000000 1.0
C      1  0.4809000000000  0.4391730000000  0.5562560000000 1.0
C      1  0.4809000000000  0.5608270000000  0.5562560000000 1.0
C      1  0.4809000000000  0.4391730000000  0.4437440000000 1.0
C      1  0.4821980000000  0.4843890000000  0.5724570000000 1.0
C      1  0.4821980000000  0.5156110000000  0.4275430000000 1.0
C      1  0.4821980000000  0.4843890000000  0.4275430000000 1.0
C      1  0.4821980000000  0.5156110000000  0.5724570000000 1.0
C      1  0.5479960000000  0.4437020000000  0.4643760000000 1.0
C      1  0.5479960000000  0.5562980000000  0.5356240000000 1.0
C      1  0.5479960000000  0.4437020000000  0.5356240000000 1.0
C      1  0.5479960000000  0.5562980000000  0.4643760000000 1.0
C      1  0.5116640000000  0.5180770000000  0.4400080000000 1.0
C      1  0.5116640000000  0.4819230000000  0.5599920000000 1.0
C      1  0.5116640000000  0.5180770000000  0.5599920000000 1.0
C      1  0.5116640000000  0.4819230000000  0.4400080000000 1.0
C      1  0.5311870000000  0.4842710000000  0.4846550000000 1.0
C      1  0.5311870000000  0.5157290000000  0.5153450000000 1.0
C      1  0.5311870000000  0.4842710000000  0.5153450000000 1.0
C      1  0.5311870000000  0.5157290000000  0.4846550000000 1.0
C      1  0.4507870000000  0.5549570000000  0.4840890000000 1.0
C      1  0.4507870000000  0.4450430000000  0.5159110000000 1.0
C      1  0.4507870000000  0.5549570000000  0.5159110000000 1.0
C      1  0.4507870000000  0.4450430000000  0.4840890000000 1.0
C      1  0.4774010000000  0.4271870000000  0.5156150000000 1.0
C      1  0.4774010000000  0.5728130000000  0.4843850000000 1.0
C      1  0.4774010000000  0.4271870000000  0.4843850000000 1.0
C      1  0.4774010000000  0.5728130000000  0.5156150000000 1.0
C      1  0.5054140000000  0.4731740000000  0.5281770000000 1.0
C      1  0.5054140000000  0.5268260000000  0.4718230000000 1.0
C      1  0.5054140000000  0.4731740000000  0.4718230000000 1.0
C      1  0.5054140000000  0.5268260000000  0.5281770000000 1.0
C      1  0.5294800000000  0.5728560000000  0.4846450000000 1.0
C      1  0.5294800000000  0.4271440000000  0.5153550000000 1.0
C      1  0.5294800000000  0.5728560000000  0.5153550000000 1.0
C      1  0.5294800000000  0.4271440000000  0.4846450000000 1.0
C      1  0.5249040000000  0.4502050000000  0.5573830000000 1.0
C      1  0.5249040000000  0.5497950000000  0.4426170000000 1.0
C      1  0.5249040000000  0.4502050000000  0.4426170000000 1.0
C      1  0.5249040000000  0.5497950000000  0.5573830000000 1.0
C      1  0.5547090000000  0.5301810000000  0.4750400000000 1.0
C      1  0.5547090000000  0.4698190000000  0.5249600000000 1.0
C      1  0.5547090000000  0.5301810000000  0.5249600000000 1.0
C      1  0.5547090000000  0.4698190000000  0.4750400000000 1.0
C      1  0.4566610000000  0.4701040000000  0.5306130000000 1.0
C      1  0.4566610000000  0.5298960000000  0.4693870000000 1.0
C      1  0.4566610000000  0.4701040000000  0.4693870000000 1.0
C      1  0.4566610000000  0.5298960000000  0.5306130000000 1.0
C      1  0.5024610000000  0.4373950000000  0.5322210000000 1.0
C      1  0.5024610000000  0.5626050000000  0.4677790000000 1.0
C      1  0.5024610000000  0.4373950000000  0.4677790000000 1.0
C      1  0.5024610000000  0.5626050000000  0.5322210000000 1.0
C      1  0.4649730000000  0.5357970000000  0.4410200000000 1.0
C      1  0.4649730000000  0.4642030000000  0.5589800000000 1.0
C      1  0.4649730000000  0.5357970000000  0.5589800000000 1.0
C      1  0.4649730000000  0.4642030000000  0.4410200000000 1.0
C      1  0.4792650000000  0.5157340000000  0.5165530000000 1.0
C      1  0.4792650000000  0.4842660000000  0.4834470000000 1.0
C      1  0.4792650000000  0.5157340000000  0.4834470000000 1.0
C      1  0.4792650000000  0.4842660000000  0.5165530000000 1.0
END
