TITL C-21448-1263-37 -7.8954242498242e-06 125000 -317.771320431027 0 0 60 (C1) n - 1
REM
REM in /home/nfs/bkarasulu/CARBON/AIRSS/Generating-Clusters/TERSOFF/Higher-Symm/Only-C60
REM
REM
REM
REM
REM
REM ./C.cell (28575a23ae977d3b5fae324c64b13b57)
REM
REM compiler GCC version 9.2.1 20190827 (Red Hat 9.2.1-1)
REM options -cpp -mtune=generic -march=x86-64 -g -O0 -fpre-include=/usr/include/finclude/math-vector-fortran.h
REM seed 970869024 -1042836474 664797097 436778766 1479129591 776640407 1179635675 805991786 974793298 -1493728678 -93840263 1455252545 1655982930 -948057136 -266597106 -104135982 1776747450 -1072484194 478199358 1025933598 -825992047 1148565920 1035649368 -1097970321 -100755573 -1136177234 -1253549238 1190280002 -2031230760 -779403051 -1266405099 748162495 1804833420
REM
CELL 1.54180   50.00000   50.00000   50.00000   90.00000   90.00000   90.00000
LATT -1
SFAC C  
C      1  0.4824020000000  0.5362970000000  0.5569560000000 1.0
C      1  0.5410620000000  0.4729390000000  0.5244540000000 1.0
C      1  0.5136680000000  0.5221610000000  0.5240670000000 1.0
C      1  0.5420660000000  0.5451250000000  0.4752420000000 1.0
C      1  0.4354340000000  0.5387840000000  0.4922170000000 1.0
C      1  0.5256340000000  0.4819080000000  0.4975260000000 1.0
C      1  0.4673450000000  0.4954740000000  0.5186410000000 1.0
C      1  0.5320270000000  0.4506070000000  0.4452770000000 1.0
C      1  0.5219780000000  0.4403740000000  0.4708400000000 1.0
C      1  0.4743270000000  0.4923610000000  0.4579950000000 1.0
C      1  0.5498880000000  0.5579730000000  0.4505110000000 1.0
C      1  0.5352020000000  0.4816570000000  0.4390010000000 1.0
C      1  0.5478030000000  0.5558520000000  0.5023920000000 1.0
C      1  0.4771220000000  0.5191120000000  0.5038330000000 1.0
C      1  0.5637340000000  0.4665940000000  0.4896730000000 1.0
C      1  0.5313030000000  0.5140430000000  0.4344060000000 1.0
C      1  0.4416770000000  0.4526550000000  0.5297560000000 1.0
C      1  0.4979010000000  0.4490060000000  0.5132060000000 1.0
C      1  0.5313060000000  0.5303600000000  0.5648200000000 1.0
C      1  0.5103740000000  0.5519270000000  0.5533410000000 1.0
C      1  0.4343420000000  0.4781930000000  0.4865720000000 1.0
C      1  0.4829730000000  0.4765700000000  0.4330420000000 1.0
C      1  0.4736940000000  0.5682540000000  0.5030400000000 1.0
C      1  0.4561320000000  0.4999910000000  0.5489190000000 1.0
C      1  0.5093700000000  0.4773050000000  0.4220870000000 1.0
C      1  0.5165170000000  0.4575200000000  0.5593260000000 1.0
C      1  0.5425730000000  0.4429000000000  0.4951880000000 1.0
C      1  0.5614820000000  0.5124120000000  0.5231920000000 1.0
C      1  0.4371680000000  0.4917950000000  0.5123650000000 1.0
C      1  0.5062620000000  0.5294770000000  0.4399810000000 1.0
C      1  0.4279860000000  0.4795480000000  0.5394870000000 1.0
C      1  0.5330350000000  0.5103740000000  0.5072750000000 1.0
C      1  0.5261050000000  0.4426330000000  0.5273260000000 1.0
C      1  0.4593200000000  0.5439910000000  0.5100530000000 1.0
C      1  0.4785110000000  0.4689180000000  0.4789050000000 1.0
C      1  0.4884080000000  0.4678560000000  0.5689630000000 1.0
C      1  0.4930290000000  0.5164510000000  0.4776070000000 1.0
C      1  0.5577020000000  0.5209140000000  0.5527750000000 1.0
C      1  0.4564310000000  0.5383790000000  0.4455270000000 1.0
C      1  0.5058610000000  0.4619380000000  0.4877720000000 1.0
C      1  0.4588420000000  0.5437000000000  0.5402690000000 1.0
C      1  0.5696070000000  0.5393520000000  0.5128820000000 1.0
C      1  0.5290130000000  0.5183540000000  0.4770260000000 1.0
C      1  0.5445110000000  0.4889310000000  0.4689370000000 1.0
C      1  0.5194370000000  0.5551270000000  0.5186330000000 1.0
C      1  0.4808120000000  0.4676100000000  0.5277480000000 1.0
C      1  0.4781240000000  0.5179430000000  0.4383860000000 1.0
C      1  0.4443710000000  0.4960360000000  0.4652290000000 1.0
C      1  0.4516400000000  0.4512480000000  0.4951530000000 1.0
C      1  0.4662360000000  0.4525920000000  0.5514100000000 1.0
C      1  0.4790110000000  0.4296820000000  0.4971910000000 1.0
C      1  0.4378410000000  0.5255440000000  0.4656400000000 1.0
C      1  0.5296710000000  0.4832270000000  0.5505990000000 1.0
C      1  0.5009720000000  0.5646050000000  0.4957270000000 1.0
C      1  0.4741810000000  0.5598780000000  0.4552910000000 1.0
C      1  0.5012330000000  0.5501200000000  0.4668620000000 1.0
C      1  0.4840940000000  0.5028310000000  0.5660440000000 1.0
C      1  0.5710510000000  0.4816220000000  0.5171160000000 1.0
C      1  0.4968270000000  0.4226330000000  0.4740550000000 1.0
C      1  0.5133780000000  0.5083350000000  0.5522440000000 1.0
END
