TITL C-21442-1735-49 -0.00102302721262757 125000 -322.053442968496 0 0 60 (C1) n - 1
REM
REM in /home/nfs/bkarasulu/CARBON/AIRSS/Generating-Clusters/TERSOFF/Higher-Symm/Only-C60
REM
REM
REM
REM
REM
REM ./C.cell (28575a23ae977d3b5fae324c64b13b57)
REM
REM compiler GCC version 9.2.1 20190827 (Red Hat 9.2.1-1)
REM options -cpp -mtune=generic -march=x86-64 -g -O0 -fpre-include=/usr/include/finclude/math-vector-fortran.h
REM seed 1789193542 256595672 -1102125461 -1621412396 -1601892223 2072938079 1252032799 -875652093 -1147260796 661868545 -1335127489 -1058235829 -2073522948 1782341319 -1753984351 327646325 -537864729 -364974694 -2128836870 -1702853130 -1436572501 -226878147 64503792 47722699 1103736649 -264473285 -1284757168 -809270474 919595283 1522886673 -2090591517 -1534111896 -1493862250
REM
CELL 1.54180   50.00000   50.00000   50.00000   90.00000   90.00000   90.00000
LATT -1
SFAC C  
C      1  0.4472910000000  0.5240830000000  0.4623230000000 1.0
C      1  0.4863310000000  0.5584590000000  0.4585630000000 1.0
C      1  0.5388720000000  0.5524220000000  0.4568200000000 1.0
C      1  0.5659410000000  0.5063050000000  0.4537840000000 1.0
C      1  0.5422190000000  0.4593860000000  0.4585120000000 1.0
C      1  0.4945780000000  0.4410050000000  0.4593460000000 1.0
C      1  0.4484830000000  0.4709850000000  0.4614990000000 1.0
C      1  0.5336430000000  0.5772530000000  0.5276060000000 1.0
C      1  0.5800760000000  0.5216890000000  0.5281460000000 1.0
C      1  0.5671130000000  0.4499640000000  0.5309080000000 1.0
C      1  0.5022850000000  0.4149120000000  0.5272260000000 1.0
C      1  0.4369730000000  0.4430600000000  0.5300000000000 1.0
C      1  0.4181480000000  0.5162840000000  0.5324450000000 1.0
C      1  0.4608130000000  0.5757880000000  0.5262830000000 1.0
C      1  0.5085620000000  0.4610780000000  0.5070900000000 1.0
C      1  0.4744190000000  0.4664760000000  0.5078950000000 1.0
C      1  0.4593520000000  0.4989010000000  0.5089190000000 1.0
C      1  0.4759740000000  0.5307680000000  0.5035920000000 1.0
C      1  0.5110300000000  0.5377050000000  0.4986810000000 1.0
C      1  0.5378110000000  0.5142280000000  0.4996100000000 1.0
C      1  0.5356150000000  0.4805620000000  0.5034660000000 1.0
C      1  0.5240040000000  0.4808130000000  0.4474490000000 1.0
C      1  0.4962560000000  0.4673630000000  0.4457450000000 1.0
C      1  0.4716170000000  0.4835350000000  0.4477280000000 1.0
C      1  0.4711220000000  0.5134110000000  0.4478770000000 1.0
C      1  0.4942070000000  0.5337540000000  0.4435900000000 1.0
C      1  0.5251980000000  0.5318430000000  0.4403390000000 1.0
C      1  0.5408880000000  0.5060160000000  0.4365100000000 1.0
C      1  0.4482500000000  0.4630710000000  0.4898790000000 1.0
C      1  0.4393190000000  0.5161500000000  0.4894130000000 1.0
C      1  0.4765650000000  0.5581180000000  0.4860180000000 1.0
C      1  0.5322380000000  0.5567520000000  0.4849290000000 1.0
C      1  0.5653000000000  0.5095610000000  0.4838300000000 1.0
C      1  0.5480540000000  0.4566800000000  0.4873780000000 1.0
C      1  0.4975740000000  0.4374820000000  0.4882630000000 1.0
C      1  0.4373470000000  0.4935080000000  0.5332620000000 1.0
C      1  0.4556720000000  0.5465120000000  0.5264000000000 1.0
C      1  0.5079490000000  0.5623740000000  0.5235690000000 1.0
C      1  0.5525230000000  0.5322830000000  0.5239670000000 1.0
C      1  0.5586480000000  0.4782310000000  0.5270610000000 1.0
C      1  0.5193080000000  0.4390500000000  0.5289740000000 1.0
C      1  0.4665330000000  0.4413840000000  0.5275160000000 1.0
C      1  0.4848090000000  0.5777430000000  0.5089090000000 1.0
C      1  0.5508350000000  0.5604210000000  0.5100300000000 1.0
C      1  0.5793240000000  0.4972170000000  0.5110370000000 1.0
C      1  0.5470860000000  0.4365060000000  0.5133610000000 1.0
C      1  0.4795770000000  0.4191980000000  0.5075630000000 1.0
C      1  0.4284110000000  0.4676580000000  0.5153660000000 1.0
C      1  0.4297000000000  0.5353920000000  0.5128880000000 1.0
C      1  0.4658800000000  0.4998110000000  0.5503940000000 1.0
C      1  0.4733610000000  0.5293800000000  0.5468410000000 1.0
C      1  0.5030360000000  0.5379040000000  0.5437720000000 1.0
C      1  0.5293800000000  0.5200670000000  0.5437830000000 1.0
C      1  0.5340200000000  0.4887340000000  0.5459040000000 1.0
C      1  0.5091120000000  0.4647370000000  0.5521880000000 1.0
C      1  0.4829100000000  0.4462100000000  0.5522620000000 1.0
C      1  0.4912320000000  0.4875950000000  0.5399390000000 1.0
C      1  0.5022600000000  0.5014330000000  0.5178850000000 1.0
C      1  0.4962720000000  0.4969680000000  0.4891330000000 1.0
C      1  0.5131350000000  0.5022120000000  0.4677560000000 1.0
END
