TITL C-21450-4084-22 -1.14253752443052e-07 125000 -293.918963863512 0 0 60 (Td) n - 1
REM
REM in /home/nfs/bkarasulu/CARBON/AIRSS/Generating-Clusters/TERSOFF/Higher-Symm/Only-C60
REM
REM
REM
REM
REM
REM ./C.cell (28575a23ae977d3b5fae324c64b13b57)
REM
REM compiler GCC version 9.2.1 20190827 (Red Hat 9.2.1-1)
REM options -cpp -mtune=generic -march=x86-64 -g -O0 -fpre-include=/usr/include/finclude/math-vector-fortran.h
REM seed -451796091 589814798 -1857758494 -91498835 -239185513 -1444383438 -1718549389 -1324323121 1167782229 1509645691 -118107489 1951745562 343655505 -1028508561 -253690371 -691847490 -1016129836 1930860915 103299663 1176079687 632197620 -240059626 1223621236 -1084111241 1474409915 -396710991 142195525 -1573683364 -1347934626 -1836538763 851287296 770409934 -884992095
REM
CELL 1.54180   50.00000   50.00000   50.00000   90.00000   90.00000   90.00000
LATT -1
SFAC C  
C      1  0.4324220000000  0.5417240000000  0.5024880000000 1.0
C      1  0.5417240000000  0.5024880000000  0.4324220000000 1.0
C      1  0.5024880000000  0.4324220000000  0.5417240000000 1.0
C      1  0.5675780000000  0.4582760000000  0.5024880000000 1.0
C      1  0.4324220000000  0.4582760000000  0.4975120000000 1.0
C      1  0.5675780000000  0.5417240000000  0.4975120000000 1.0
C      1  0.4582760000000  0.4975120000000  0.4324220000000 1.0
C      1  0.5417240000000  0.4975120000000  0.5675780000000 1.0
C      1  0.4582760000000  0.5024880000000  0.5675780000000 1.0
C      1  0.4975120000000  0.5675780000000  0.5417240000000 1.0
C      1  0.5024880000000  0.5675780000000  0.4582760000000 1.0
C      1  0.4975120000000  0.4324220000000  0.4582760000000 1.0
C      1  0.5417240000000  0.4324220000000  0.5024880000000 1.0
C      1  0.5024880000000  0.5417240000000  0.4324220000000 1.0
C      1  0.4324220000000  0.5024880000000  0.5417240000000 1.0
C      1  0.4582760000000  0.5675780000000  0.5024880000000 1.0
C      1  0.4582760000000  0.4324220000000  0.4975120000000 1.0
C      1  0.5417240000000  0.5675780000000  0.4975120000000 1.0
C      1  0.4975120000000  0.4582760000000  0.4324220000000 1.0
C      1  0.4975120000000  0.5417240000000  0.5675780000000 1.0
C      1  0.5024880000000  0.4582760000000  0.5675780000000 1.0
C      1  0.5675780000000  0.4975120000000  0.5417240000000 1.0
C      1  0.5675780000000  0.5024880000000  0.4582760000000 1.0
C      1  0.4324220000000  0.4975120000000  0.4582760000000 1.0
C      1  0.4780340000000  0.4575660000000  0.5001580000000 1.0
C      1  0.4575660000000  0.5001580000000  0.4780340000000 1.0
C      1  0.5001580000000  0.4780340000000  0.4575660000000 1.0
C      1  0.5219660000000  0.5424340000000  0.5001580000000 1.0
C      1  0.4780340000000  0.5424340000000  0.4998420000000 1.0
C      1  0.5219660000000  0.4575660000000  0.4998420000000 1.0
C      1  0.5424340000000  0.4998420000000  0.4780340000000 1.0
C      1  0.4575660000000  0.4998420000000  0.5219660000000 1.0
C      1  0.5424340000000  0.5001580000000  0.5219660000000 1.0
C      1  0.4998420000000  0.5219660000000  0.4575660000000 1.0
C      1  0.5001580000000  0.5219660000000  0.5424340000000 1.0
C      1  0.4998420000000  0.4780340000000  0.5424340000000 1.0
C      1  0.4575660000000  0.4780340000000  0.5001580000000 1.0
C      1  0.5001580000000  0.4575660000000  0.4780340000000 1.0
C      1  0.4780340000000  0.5001580000000  0.4575660000000 1.0
C      1  0.5424340000000  0.5219660000000  0.5001580000000 1.0
C      1  0.5424340000000  0.4780340000000  0.4998420000000 1.0
C      1  0.4575660000000  0.5219660000000  0.4998420000000 1.0
C      1  0.4998420000000  0.5424340000000  0.4780340000000 1.0
C      1  0.4998420000000  0.4575660000000  0.5219660000000 1.0
C      1  0.5001580000000  0.5424340000000  0.5219660000000 1.0
C      1  0.5219660000000  0.4998420000000  0.4575660000000 1.0
C      1  0.5219660000000  0.5001580000000  0.5424340000000 1.0
C      1  0.4780340000000  0.4998420000000  0.5424340000000 1.0
C      1  0.5113140000000  0.4186360000000  0.5113140000000 1.0
C      1  0.4886860000000  0.5813640000000  0.5113140000000 1.0
C      1  0.5113140000000  0.5813640000000  0.4886860000000 1.0
C      1  0.4886860000000  0.4186360000000  0.4886860000000 1.0
C      1  0.4186360000000  0.5113140000000  0.5113140000000 1.0
C      1  0.5813640000000  0.4886860000000  0.5113140000000 1.0
C      1  0.5813640000000  0.5113140000000  0.4886860000000 1.0
C      1  0.4186360000000  0.4886860000000  0.4886860000000 1.0
C      1  0.5113140000000  0.5113140000000  0.4186360000000 1.0
C      1  0.4886860000000  0.4886860000000  0.4186360000000 1.0
C      1  0.5113140000000  0.4886860000000  0.5813640000000 1.0
C      1  0.4886860000000  0.5113140000000  0.5813640000000 1.0
END
