TITL C-21442-1735-44 -0.000148161679985532 125000 -319.736223274943 0 0 60 (C1) n - 1
REM
REM in /home/nfs/bkarasulu/CARBON/AIRSS/Generating-Clusters/TERSOFF/Higher-Symm/Only-C60
REM
REM
REM
REM
REM
REM ./C.cell (28575a23ae977d3b5fae324c64b13b57)
REM
REM compiler GCC version 9.2.1 20190827 (Red Hat 9.2.1-1)
REM options -cpp -mtune=generic -march=x86-64 -g -O0 -fpre-include=/usr/include/finclude/math-vector-fortran.h
REM seed -609824933 1401135452 528365110 -1828160089 -1317127182 1512794757 1883080643 -2050358876 -905447548 1060879762 185717006 -937744694 462375405 -412902642 382866049 -573649563 -204485888 27196924 -1430408660 982692285 1776260359 1195840598 95849286 -919335052 338093430 2055148124 -1982820268 1936929428 -1686371919 -1076655777 1024599077 915003983 1060722414
REM
CELL 1.54180   50.00000   50.00000   50.00000   90.00000   90.00000   90.00000
LATT -1
SFAC C  
C      1  0.5165020000000  0.5199940000000  0.5235890000000 1.0
C      1  0.5572440000000  0.5097460000000  0.5029930000000 1.0
C      1  0.5325970000000  0.4420320000000  0.5159910000000 1.0
C      1  0.4758440000000  0.5412420000000  0.4441270000000 1.0
C      1  0.4656180000000  0.4592660000000  0.5406120000000 1.0
C      1  0.4505010000000  0.4693280000000  0.4648710000000 1.0
C      1  0.4238950000000  0.4846170000000  0.4751300000000 1.0
C      1  0.5184300000000  0.5320440000000  0.4793570000000 1.0
C      1  0.5499510000000  0.4976570000000  0.4581020000000 1.0
C      1  0.5651800000000  0.4793310000000  0.5100030000000 1.0
C      1  0.5020240000000  0.4194350000000  0.5338200000000 1.0
C      1  0.4258920000000  0.5104080000000  0.4937140000000 1.0
C      1  0.4796440000000  0.5399790000000  0.5272540000000 1.0
C      1  0.4653350000000  0.5235540000000  0.5669290000000 1.0
C      1  0.5102020000000  0.4622600000000  0.5199710000000 1.0
C      1  0.4569130000000  0.5523970000000  0.4887270000000 1.0
C      1  0.4804600000000  0.4960010000000  0.5719430000000 1.0
C      1  0.5026980000000  0.4363110000000  0.4804360000000 1.0
C      1  0.4810180000000  0.5589460000000  0.5043480000000 1.0
C      1  0.4825140000000  0.5464000000000  0.5561440000000 1.0
C      1  0.4784130000000  0.5066440000000  0.4894660000000 1.0
C      1  0.4948730000000  0.4626390000000  0.4353380000000 1.0
C      1  0.4536890000000  0.5208720000000  0.4523160000000 1.0
C      1  0.4653230000000  0.4461090000000  0.5145910000000 1.0
C      1  0.4433510000000  0.4906780000000  0.5118470000000 1.0
C      1  0.5070610000000  0.5114420000000  0.4350110000000 1.0
C      1  0.4585120000000  0.4933600000000  0.4440210000000 1.0
C      1  0.4505570000000  0.5238730000000  0.4816910000000 1.0
C      1  0.4425470000000  0.5081160000000  0.5436410000000 1.0
C      1  0.4696700000000  0.4883640000000  0.5444290000000 1.0
C      1  0.5501280000000  0.5576880000000  0.5097970000000 1.0
C      1  0.5597020000000  0.4493430000000  0.5127060000000 1.0
C      1  0.5485530000000  0.5293220000000  0.4660470000000 1.0
C      1  0.4836730000000  0.4896930000000  0.4296490000000 1.0
C      1  0.5235880000000  0.5514150000000  0.5278290000000 1.0
C      1  0.4200880000000  0.5233980000000  0.5238340000000 1.0
C      1  0.5143640000000  0.4382390000000  0.5546180000000 1.0
C      1  0.4921030000000  0.4753510000000  0.4916810000000 1.0
C      1  0.5132370000000  0.5458180000000  0.5593610000000 1.0
C      1  0.5359860000000  0.5100840000000  0.5440300000000 1.0
C      1  0.5199700000000  0.4699150000000  0.5502060000000 1.0
C      1  0.5322930000000  0.4933690000000  0.4352670000000 1.0
C      1  0.4851860000000  0.5107380000000  0.5211940000000 1.0
C      1  0.5258500000000  0.5188010000000  0.5711270000000 1.0
C      1  0.5082280000000  0.5601180000000  0.4897650000000 1.0
C      1  0.5487530000000  0.4832470000000  0.5394700000000 1.0
C      1  0.5455100000000  0.4721610000000  0.4804360000000 1.0
C      1  0.4838130000000  0.4552730000000  0.4628300000000 1.0
C      1  0.4953560000000  0.5202300000000  0.4656940000000 1.0
C      1  0.4883050000000  0.4284980000000  0.5082640000000 1.0
C      1  0.5208110000000  0.4874780000000  0.4881280000000 1.0
C      1  0.5483230000000  0.5613410000000  0.4773330000000 1.0
C      1  0.5194160000000  0.5687620000000  0.4591790000000 1.0
C      1  0.4598510000000  0.4697450000000  0.4968580000000 1.0
C      1  0.5091530000000  0.4922960000000  0.5709790000000 1.0
C      1  0.5280690000000  0.5126300000000  0.4986920000000 1.0
C      1  0.5691900000000  0.5344660000000  0.5130340000000 1.0
C      1  0.5237230000000  0.4655110000000  0.4308130000000 1.0
C      1  0.5327250000000  0.4440750000000  0.4740650000000 1.0
C      1  0.5075930000000  0.5479500000000  0.4367060000000 1.0
END
