TITL C-21445-1691-7 0.000199101694551378 125000 -316.273301465495 0 0 60 (C1) n - 1
REM
REM in /home/nfs/bkarasulu/CARBON/AIRSS/Generating-Clusters/TERSOFF/Higher-Symm/Only-C60
REM
REM
REM
REM
REM
REM ./C.cell (28575a23ae977d3b5fae324c64b13b57)
REM
REM compiler GCC version 9.2.1 20190827 (Red Hat 9.2.1-1)
REM options -cpp -mtune=generic -march=x86-64 -g -O0 -fpre-include=/usr/include/finclude/math-vector-fortran.h
REM seed 675453069 -1138772986 -1555256286 1818300141 -1408712339 -396889311 -960881254 824588566 -2051022696 1330369214 400107720 -1322079850 -1807756897 1807450781 903235401 -632910729 1467080168 -2061418691 -224794531 384768104 -1896574496 -1591560826 -215678759 -325956056 713589117 -1229223507 1287867502 36942171 -170258951 -407165708 1996621732 891017140 -1285671297
REM
CELL 1.54180   50.00000   50.00000   50.00000   90.00000   90.00000   90.00000
LATT -1
SFAC C  
C      1  0.5179930000000  0.4741360000000  0.4364780000000 1.0
C      1  0.4283470000000  0.5336160000000  0.5289350000000 1.0
C      1  0.5733980000000  0.5027920000000  0.5302920000000 1.0
C      1  0.5065930000000  0.4597830000000  0.5532380000000 1.0
C      1  0.5019920000000  0.5454430000000  0.4483490000000 1.0
C      1  0.5553730000000  0.5308720000000  0.5167150000000 1.0
C      1  0.4819710000000  0.4652840000000  0.5035990000000 1.0
C      1  0.5226130000000  0.5502240000000  0.4729810000000 1.0
C      1  0.5068290000000  0.4371850000000  0.4680530000000 1.0
C      1  0.4605660000000  0.4948930000000  0.4328600000000 1.0
C      1  0.4661150000000  0.4673310000000  0.4496470000000 1.0
C      1  0.5676300000000  0.5230640000000  0.4830360000000 1.0
C      1  0.5313780000000  0.5157230000000  0.5028360000000 1.0
C      1  0.5350470000000  0.5575210000000  0.5026360000000 1.0
C      1  0.4277840000000  0.4876250000000  0.4983420000000 1.0
C      1  0.5409470000000  0.5045480000000  0.5650360000000 1.0
C      1  0.4333630000000  0.5171550000000  0.4994380000000 1.0
C      1  0.5550610000000  0.4569810000000  0.4628390000000 1.0
C      1  0.5388690000000  0.4658510000000  0.5474820000000 1.0
C      1  0.4724080000000  0.5523380000000  0.4977310000000 1.0
C      1  0.4577180000000  0.4603790000000  0.5276500000000 1.0
C      1  0.5132540000000  0.4915300000000  0.5692520000000 1.0
C      1  0.5292470000000  0.4496810000000  0.4473700000000 1.0
C      1  0.4767080000000  0.4960260000000  0.5388150000000 1.0
C      1  0.5105430000000  0.4941630000000  0.4591940000000 1.0
C      1  0.5654850000000  0.4914110000000  0.4657210000000 1.0
C      1  0.5044790000000  0.5181540000000  0.4360890000000 1.0
C      1  0.5208130000000  0.4352520000000  0.4958360000000 1.0
C      1  0.5507910000000  0.5407040000000  0.4653910000000 1.0
C      1  0.4917200000000  0.4681830000000  0.4686910000000 1.0
C      1  0.4753920000000  0.4677400000000  0.5518570000000 1.0
C      1  0.4747410000000  0.5580340000000  0.4499520000000 1.0
C      1  0.4754050000000  0.4295470000000  0.4700360000000 1.0
C      1  0.5288240000000  0.4786030000000  0.5223030000000 1.0
C      1  0.4942320000000  0.5338050000000  0.4879380000000 1.0
C      1  0.4632230000000  0.5151870000000  0.5150060000000 1.0
C      1  0.4557010000000  0.5540090000000  0.4729380000000 1.0
C      1  0.4387860000000  0.5295250000000  0.4721250000000 1.0
C      1  0.4849020000000  0.5099050000000  0.4722600000000 1.0
C      1  0.5400050000000  0.5302920000000  0.5496280000000 1.0
C      1  0.4970250000000  0.5455430000000  0.5315870000000 1.0
C      1  0.4823330000000  0.5086780000000  0.4195230000000 1.0
C      1  0.5109420000000  0.5378470000000  0.5557140000000 1.0
C      1  0.4947230000000  0.5171190000000  0.5702760000000 1.0
C      1  0.5475300000000  0.4478170000000  0.4911940000000 1.0
C      1  0.5732660000000  0.4850040000000  0.5075410000000 1.0
C      1  0.5046500000000  0.5212200000000  0.5123260000000 1.0
C      1  0.4354620000000  0.5053070000000  0.5449160000000 1.0
C      1  0.4551730000000  0.5052890000000  0.4634230000000 1.0
C      1  0.4590630000000  0.4489800000000  0.4867210000000 1.0
C      1  0.5614690000000  0.4872740000000  0.5544670000000 1.0
C      1  0.4351760000000  0.4798230000000  0.5261160000000 1.0
C      1  0.4417260000000  0.4730160000000  0.4736190000000 1.0
C      1  0.5024720000000  0.4460480000000  0.5199200000000 1.0
C      1  0.4649940000000  0.5198640000000  0.5566890000000 1.0
C      1  0.5350250000000  0.4971400000000  0.4781370000000 1.0
C      1  0.5002690000000  0.4910120000000  0.5189520000000 1.0
C      1  0.5133940000000  0.5669780000000  0.5197450000000 1.0
C      1  0.5465100000000  0.4759520000000  0.4997700000000 1.0
C      1  0.4625500000000  0.5455940000000  0.5307900000000 1.0
END
