TITL C-21445-1691-32 -2.62080112281347e-07 125000 -314.014533360676 0 0 60 (D5h) n - 1
REM
REM in /home/nfs/bkarasulu/CARBON/AIRSS/Generating-Clusters/TERSOFF/Higher-Symm/Only-C60
REM
REM
REM
REM
REM
REM ./C.cell (28575a23ae977d3b5fae324c64b13b57)
REM
REM compiler GCC version 9.2.1 20190827 (Red Hat 9.2.1-1)
REM options -cpp -mtune=generic -march=x86-64 -g -O0 -fpre-include=/usr/include/finclude/math-vector-fortran.h
REM seed 1489743847 1218463207 -1912974502 -1297560544 422732791 -1154194265 -623210957 -1043391145 -847979506 -103402624 709446213 -2003351711 830207676 1272626928 1154384223 -1788920596 -1473203123 1383722711 -334843101 -53795383 -846810734 -970465818 481706624 -1410737861 1947127824 1694682788 -1708915416 1781120961 -305533142 255910880 -2128384557 -1196916710 1335003805
REM
CELL 1.54180   50.00000   50.00000   50.00000   90.00000   90.00000   90.00000
LATT -1
SFAC C  
C      1  0.5297310000000  0.5012410000000  0.4468230000000 1.0
C      1  0.5297310000000  0.4498090000000  0.4823870000000 1.0
C      1  0.5297310000000  0.4677390000000  0.5422910000000 1.0
C      1  0.5297310000000  0.5302520000000  0.5437500000000 1.0
C      1  0.5297310000000  0.5509580000000  0.4847480000000 1.0
C      1  0.4702690000000  0.5012410000000  0.4468230000000 1.0
C      1  0.4702690000000  0.4498090000000  0.4823870000000 1.0
C      1  0.4702690000000  0.4677390000000  0.5422910000000 1.0
C      1  0.4702690000000  0.5302520000000  0.5437500000000 1.0
C      1  0.4702690000000  0.5509580000000  0.4847480000000 1.0
C      1  0.5764700000000  0.4705560000000  0.5088130000000 1.0
C      1  0.5764700000000  0.4992830000000  0.5307260000000 1.0
C      1  0.5764700000000  0.5290000000000  0.5101770000000 1.0
C      1  0.5764700000000  0.5186400000000  0.4755640000000 1.0
C      1  0.5764700000000  0.4825200000000  0.4747210000000 1.0
C      1  0.4235300000000  0.4705560000000  0.5088130000000 1.0
C      1  0.4235300000000  0.4992830000000  0.5307260000000 1.0
C      1  0.4235300000000  0.5290000000000  0.5101770000000 1.0
C      1  0.4235300000000  0.5186400000000  0.4755640000000 1.0
C      1  0.4235300000000  0.4825200000000  0.4747210000000 1.0
C      1  0.5163270000000  0.4839090000000  0.5210940000000 1.0
C      1  0.5163270000000  0.5150890000000  0.5218220000000 1.0
C      1  0.5163270000000  0.5254170000000  0.4923930000000 1.0
C      1  0.5163270000000  0.5006190000000  0.4734770000000 1.0
C      1  0.5163270000000  0.4749660000000  0.4912150000000 1.0
C      1  0.4836730000000  0.4839090000000  0.5210940000000 1.0
C      1  0.4836730000000  0.5150890000000  0.5218220000000 1.0
C      1  0.4836730000000  0.5254170000000  0.4923930000000 1.0
C      1  0.4836730000000  0.5006190000000  0.4734770000000 1.0
C      1  0.4836730000000  0.4749660000000  0.4912150000000 1.0
C      1  0.4409320000000  0.4696540000000  0.5397820000000 1.0
C      1  0.4409320000000  0.5284570000000  0.5411540000000 1.0
C      1  0.4409320000000  0.5479340000000  0.4856530000000 1.0
C      1  0.4409320000000  0.5011670000000  0.4499790000000 1.0
C      1  0.4409320000000  0.4527880000000  0.4834320000000 1.0
C      1  0.5590680000000  0.4696540000000  0.5397820000000 1.0
C      1  0.5590680000000  0.5284570000000  0.5411540000000 1.0
C      1  0.5590680000000  0.5479340000000  0.4856530000000 1.0
C      1  0.5590680000000  0.5011670000000  0.4499790000000 1.0
C      1  0.5590680000000  0.4527880000000  0.4834320000000 1.0
C      1  0.5161930000000  0.5147840000000  0.5667660000000 1.0
C      1  0.5161930000000  0.5680670000000  0.5065710000000 1.0
C      1  0.5161930000000  0.5272830000000  0.4372950000000 1.0
C      1  0.5161930000000  0.4487950000000  0.4546750000000 1.0
C      1  0.5161930000000  0.4410700000000  0.5346920000000 1.0
C      1  0.4838070000000  0.5147840000000  0.5667660000000 1.0
C      1  0.4838070000000  0.5680670000000  0.5065710000000 1.0
C      1  0.4838070000000  0.5272830000000  0.4372950000000 1.0
C      1  0.4838070000000  0.4487950000000  0.4546750000000 1.0
C      1  0.4838070000000  0.4410700000000  0.5346920000000 1.0
C      1  0.4838070000000  0.4756720000000  0.4360910000000 1.0
C      1  0.4838070000000  0.4317010000000  0.5033890000000 1.0
C      1  0.4838070000000  0.4821170000000  0.5660040000000 1.0
C      1  0.4838070000000  0.5572470000000  0.5374040000000 1.0
C      1  0.4838070000000  0.5532630000000  0.4571130000000 1.0
C      1  0.5161930000000  0.4756720000000  0.4360910000000 1.0
C      1  0.5161930000000  0.4317010000000  0.5033890000000 1.0
C      1  0.5161930000000  0.4821170000000  0.5660040000000 1.0
C      1  0.5161930000000  0.5572470000000  0.5374040000000 1.0
C      1  0.5161930000000  0.5532630000000  0.4571130000000 1.0
END
