TITL C-21441-2359-29 0.000737449303367183 125000 -313.272063554345 0 0 60 (Th) n - 1
REM
REM in /home/nfs/bkarasulu/CARBON/AIRSS/Generating-Clusters/TERSOFF/Higher-Symm/Only-C60
REM
REM
REM
REM
REM
REM ./C.cell (28575a23ae977d3b5fae324c64b13b57)
REM
REM compiler GCC version 9.2.1 20190827 (Red Hat 9.2.1-1)
REM options -cpp -mtune=generic -march=x86-64 -g -O0 -fpre-include=/usr/include/finclude/math-vector-fortran.h
REM seed 1612976123 1245952116 -1199949934 -996900622 817842134 -993353265 1146063607 -508441625 -1589856732 1117307688 -807344373 1414073953 -1824046514 -1337372419 1372720110 13276220 877097288 -437549719 -1082899134 1362808275 -2103512815 1616959049 -1571642374 848663037 -1304414123 -1028765892 -545697590 -719178523 760679110 1475958986 -531426646 327088203 1642811491
REM
CELL 1.54180   50.00000   50.00000   50.00000   90.00000   90.00000   90.00000
LATT -1
SFAC C  
C      1  0.5529290000000  0.4498110000000  0.5213070000000 1.0
C      1  0.4498110000000  0.5213070000000  0.5529290000000 1.0
C      1  0.5213070000000  0.5529290000000  0.4498110000000 1.0
C      1  0.4470700000000  0.5501880000000  0.5213070000000 1.0
C      1  0.5529290000000  0.5501890000000  0.4786930000000 1.0
C      1  0.4470710000000  0.4498110000000  0.4786930000000 1.0
C      1  0.5501890000000  0.4786930000000  0.5529290000000 1.0
C      1  0.4498110000000  0.4786930000000  0.4470710000000 1.0
C      1  0.5501880000000  0.5213070000000  0.4470700000000 1.0
C      1  0.4786930000000  0.4470710000000  0.4498110000000 1.0
C      1  0.5213070000000  0.4470700000000  0.5501880000000 1.0
C      1  0.4786930000000  0.5529290000000  0.5501880000000 1.0
C      1  0.5529290000000  0.4498110000000  0.4786930000000 1.0
C      1  0.4498110000000  0.5213070000000  0.4470710000000 1.0
C      1  0.5213060000000  0.5529300000000  0.5501900000000 1.0
C      1  0.4470710000000  0.5501890000000  0.4786930000000 1.0
C      1  0.5529290000000  0.5501900000000  0.5213070000000 1.0
C      1  0.4470710000000  0.4498110000000  0.5213070000000 1.0
C      1  0.5501890000000  0.4786930000000  0.4470710000000 1.0
C      1  0.4498110000000  0.4786930000000  0.5529290000000 1.0
C      1  0.5501890000000  0.5213060000000  0.5529310000000 1.0
C      1  0.4786930000000  0.4470710000000  0.5501890000000 1.0
C      1  0.5213070000000  0.4470710000000  0.4498110000000 1.0
C      1  0.4786930000000  0.5529290000000  0.4498110000000 1.0
C      1  0.5672780000000  0.5252610000000  0.5147700000000 1.0
C      1  0.5252610000000  0.5147710000000  0.5672780000000 1.0
C      1  0.5147710000000  0.5672780000000  0.5252600000000 1.0
C      1  0.4327230000000  0.4747390000000  0.5147690000000 1.0
C      1  0.5672770000000  0.4747390000000  0.4852300000000 1.0
C      1  0.4327230000000  0.5252610000000  0.4852310000000 1.0
C      1  0.4747390000000  0.4852310000000  0.5672770000000 1.0
C      1  0.5252610000000  0.4852310000000  0.4327230000000 1.0
C      1  0.4747390000000  0.5147690000000  0.4327230000000 1.0
C      1  0.4852310000000  0.4327230000000  0.5252610000000 1.0
C      1  0.5147690000000  0.4327230000000  0.4747390000000 1.0
C      1  0.4852310000000  0.5672770000000  0.4747390000000 1.0
C      1  0.5672780000000  0.5252610000000  0.4852300000000 1.0
C      1  0.5252610000000  0.5147690000000  0.4327230000000 1.0
C      1  0.5147690000000  0.5672770000000  0.4747390000000 1.0
C      1  0.4327230000000  0.4747390000000  0.4852310000000 1.0
C      1  0.5672770000000  0.4747390000000  0.5147690000000 1.0
C      1  0.4327230000000  0.5252610000000  0.5147690000000 1.0
C      1  0.4747390000000  0.4852310000000  0.4327230000000 1.0
C      1  0.5252610000000  0.4852300000000  0.5672780000000 1.0
C      1  0.4747390000000  0.5147690000000  0.5672770000000 1.0
C      1  0.4852310000000  0.4327230000000  0.4747390000000 1.0
C      1  0.5147690000000  0.4327220000000  0.5252610000000 1.0
C      1  0.4852300000000  0.5672780000000  0.5252610000000 1.0
C      1  0.4343740000000  0.5000000000000  0.5330270000000 1.0
C      1  0.5000000000000  0.5330270000000  0.4343740000000 1.0
C      1  0.5330270000000  0.4343740000000  0.5000000000000 1.0
C      1  0.5656250000000  0.5000000000000  0.5330270000000 1.0
C      1  0.4343740000000  0.5000000000000  0.4669730000000 1.0
C      1  0.5656260000000  0.5000000000000  0.4669730000000 1.0
C      1  0.5000000000000  0.4669720000000  0.5656260000000 1.0
C      1  0.4669730000000  0.5656260000000  0.5000000000000 1.0
C      1  0.5000000000000  0.4669730000000  0.4343740000000 1.0
C      1  0.5000010000000  0.5330270000000  0.5656250000000 1.0
C      1  0.5330270000000  0.5656250000000  0.5000000000000 1.0
C      1  0.4669730000000  0.4343740000000  0.5000000000000 1.0
END
