TITL C-21441-2359-8 -2.35028870893164e-05 125000 -306.980958080704 0 0 60 (C4h) n - 1
REM
REM in /home/nfs/bkarasulu/CARBON/AIRSS/Generating-Clusters/TERSOFF/Higher-Symm/Only-C60
REM
REM
REM
REM
REM
REM ./C.cell (28575a23ae977d3b5fae324c64b13b57)
REM
REM compiler GCC version 9.2.1 20190827 (Red Hat 9.2.1-1)
REM options -cpp -mtune=generic -march=x86-64 -g -O0 -fpre-include=/usr/include/finclude/math-vector-fortran.h
REM seed -1661861407 85924428 664983624 -223691377 1327190660 1242707385 -534569691 -1408033993 -677119084 -872630781 95414574 -387997838 -1526240185 1140680417 1157726509 -27329513 1396531290 -460698078 1200348377 -1377416431 1480052344 -825668780 -855465417 536609277 2075549579 -1204303604 -1015419471 1449995643 249416401 -1913403767 554964443 485252747 -977805629
REM
CELL 1.54180   50.00000   50.00000   50.00000   90.00000   90.00000   90.00000
LATT -1
SFAC C  
C      1  0.5247950000000  0.4530120000000  0.5420240000000 1.0
C      1  0.5247950000000  0.4579760000000  0.4530120000000 1.0
C      1  0.5247950000000  0.5469890000000  0.4579780000000 1.0
C      1  0.5247950000000  0.5420240000000  0.5469880000000 1.0
C      1  0.4745340000000  0.4530110000000  0.5420240000000 1.0
C      1  0.4745340000000  0.4579760000000  0.4530110000000 1.0
C      1  0.4745340000000  0.5469890000000  0.4579760000000 1.0
C      1  0.4745340000000  0.5420230000000  0.5469890000000 1.0
C      1  0.5299040000000  0.4773400000000  0.5007250000000 1.0
C      1  0.5299040000000  0.4992750000000  0.4773400000000 1.0
C      1  0.5299040000000  0.5226600000000  0.4992750000000 1.0
C      1  0.5299040000000  0.5007250000000  0.5226600000000 1.0
C      1  0.4694250000000  0.4773410000000  0.5007260000000 1.0
C      1  0.4694250000000  0.4992740000000  0.4773410000000 1.0
C      1  0.4694250000000  0.5226590000000  0.4992740000000 1.0
C      1  0.4694250000000  0.5007260000000  0.5226600000000 1.0
C      1  0.4848900000000  0.5607190000000  0.5267130000000 1.0
C      1  0.4848910000000  0.4732870000000  0.5607190000000 1.0
C      1  0.4848910000000  0.4392810000000  0.4732870000000 1.0
C      1  0.4848900000000  0.5267130000000  0.4392810000000 1.0
C      1  0.5144390000000  0.5607180000000  0.5267150000000 1.0
C      1  0.5144390000000  0.4732850000000  0.5607190000000 1.0
C      1  0.5144390000000  0.4392810000000  0.4732860000000 1.0
C      1  0.5144390000000  0.5267150000000  0.4392820000000 1.0
C      1  0.4281790000000  0.4943070000000  0.4746510000000 1.0
C      1  0.4281790000000  0.5253490000000  0.4943070000000 1.0
C      1  0.4281780000000  0.5056930000000  0.5253480000000 1.0
C      1  0.4281790000000  0.4746510000000  0.5056930000000 1.0
C      1  0.5711500000000  0.4943060000000  0.4746510000000 1.0
C      1  0.5711500000000  0.5253490000000  0.4943060000000 1.0
C      1  0.5711500000000  0.5056940000000  0.5253490000000 1.0
C      1  0.5711500000000  0.4746510000000  0.5056940000000 1.0
C      1  0.4453910000000  0.4577370000000  0.5328920000000 1.0
C      1  0.4453910000000  0.4671080000000  0.4577370000000 1.0
C      1  0.4453910000000  0.5422630000000  0.4671080000000 1.0
C      1  0.4453920000000  0.5328920000000  0.5422630000000 1.0
C      1  0.5539390000000  0.4577370000000  0.5328910000000 1.0
C      1  0.5539390000000  0.4671090000000  0.4577370000000 1.0
C      1  0.5539390000000  0.5422630000000  0.4671090000000 1.0
C      1  0.5539390000000  0.5328910000000  0.5422630000000 1.0
C      1  0.4333170000000  0.5465280000000  0.5172690000000 1.0
C      1  0.4333160000000  0.4827310000000  0.5465280000000 1.0
C      1  0.4333160000000  0.4534720000000  0.4827310000000 1.0
C      1  0.4333160000000  0.5172690000000  0.4534710000000 1.0
C      1  0.5660140000000  0.5465270000000  0.5172690000000 1.0
C      1  0.5660140000000  0.4827310000000  0.5465270000000 1.0
C      1  0.5660140000000  0.4534730000000  0.4827310000000 1.0
C      1  0.5660140000000  0.5172690000000  0.4534730000000 1.0
C      1  0.5206520000000  0.4996120000000  0.4494080000000 1.0
C      1  0.5206530000000  0.5505920000000  0.4996100000000 1.0
C      1  0.5206520000000  0.5003880000000  0.5505920000000 1.0
C      1  0.5206520000000  0.4494080000000  0.5003880000000 1.0
C      1  0.4786780000000  0.4996130000000  0.4494070000000 1.0
C      1  0.4786780000000  0.5505930000000  0.4996130000000 1.0
C      1  0.4786790000000  0.5003870000000  0.5505930000000 1.0
C      1  0.4786780000000  0.4494080000000  0.5003880000000 1.0
C      1  0.4996650000000  0.4765190000000  0.4406550000000 1.0
C      1  0.4996650000000  0.4406550000000  0.5234810000000 1.0
C      1  0.4996650000000  0.5593450000000  0.4765190000000 1.0
C      1  0.4996650000000  0.5234810000000  0.5593450000000 1.0
END
