TITL C-21452-6160-18 -0.0019971547107387 125000 -341.272371688654 0 0 60 (S4) n - 1
REM
REM in /home/nfs/bkarasulu/CARBON/AIRSS/Generating-Clusters/TERSOFF/Higher-Symm/Only-C60
REM
REM
REM
REM
REM
REM ./C.cell (28575a23ae977d3b5fae324c64b13b57)
REM
REM compiler GCC version 9.2.1 20190827 (Red Hat 9.2.1-1)
REM options -cpp -mtune=generic -march=x86-64 -g -O0 -fpre-include=/usr/include/finclude/math-vector-fortran.h
REM seed -1355045913 -807850975 1652313358 2028938859 -108266036 -1649491715 341273125 -6749173 -1587549254 -840145165 -2595373 1989857170 -379691413 482226522 -1674193710 1040189861 787398993 438210693 -1980265942 -1827350042 1701167572 1637899447 -1451266826 -855521444 -71739417 -1734874744 521168218 177999815 -411436023 -1476267945 -820479871 481935019 -363011451
REM
CELL 1.54180   50.00000   50.00000   50.00000   90.00000   90.00000   90.00000
LATT -1
SFAC C  
C      1  0.5033830000000  0.5684700000000  0.5025070000000 1.0
C      1  0.4964780000000  0.4974490000000  0.5678210000000 1.0
C      1  0.5033330000000  0.4320000000000  0.4973490000000 1.0
C      1  0.4967360000000  0.5026380000000  0.4319020000000 1.0
C      1  0.4301240000000  0.5123290000000  0.5304530000000 1.0
C      1  0.5696440000000  0.4693880000000  0.5126130000000 1.0
C      1  0.4306990000000  0.4873180000000  0.4693920000000 1.0
C      1  0.5693530000000  0.5306540000000  0.4872450000000 1.0
C      1  0.5059530000000  0.5233800000000  0.5555150000000 1.0
C      1  0.4939070000000  0.4444080000000  0.5231650000000 1.0
C      1  0.5059660000000  0.4768980000000  0.4445540000000 1.0
C      1  0.4941330000000  0.5554820000000  0.4769240000000 1.0
C      1  0.4662620000000  0.4932690000000  0.5630360000000 1.0
C      1  0.5334630000000  0.4369830000000  0.4933540000000 1.0
C      1  0.4666430000000  0.5066470000000  0.4369990000000 1.0
C      1  0.5335170000000  0.5632380000000  0.5064610000000 1.0
C      1  0.5639440000000  0.4766830000000  0.4818560000000 1.0
C      1  0.4359330000000  0.5182350000000  0.4767740000000 1.0
C      1  0.5642270000000  0.5233900000000  0.5181330000000 1.0
C      1  0.4360490000000  0.4814210000000  0.5232610000000 1.0
C      1  0.4370660000000  0.4645120000000  0.4924970000000 1.0
C      1  0.5629800000000  0.5074640000000  0.4646030000000 1.0
C      1  0.4369610000000  0.5355980000000  0.5077150000000 1.0
C      1  0.5631000000000  0.4924020000000  0.5355980000000 1.0
C      1  0.4862340000000  0.4928380000000  0.5261720000000 1.0
C      1  0.5137110000000  0.4739700000000  0.4929020000000 1.0
C      1  0.4861610000000  0.5071930000000  0.4740640000000 1.0
C      1  0.5139260000000  0.5261550000000  0.5073100000000 1.0
C      1  0.4473410000000  0.4392770000000  0.5082740000000 1.0
C      1  0.5525940000000  0.4915420000000  0.4394900000000 1.0
C      1  0.4475480000000  0.5605670000000  0.4915810000000 1.0
C      1  0.5526460000000  0.5086260000000  0.5605450000000 1.0
C      1  0.4619450000000  0.4923230000000  0.5117260000000 1.0
C      1  0.5380480000000  0.4883960000000  0.4924850000000 1.0
C      1  0.4620040000000  0.5077560000000  0.4885770000000 1.0
C      1  0.5381220000000  0.5116010000000  0.5078560000000 1.0
C      1  0.5479920000000  0.5528480000000  0.4809930000000 1.0
C      1  0.4517990000000  0.5185750000000  0.5522640000000 1.0
C      1  0.5480620000000  0.4473280000000  0.5187680000000 1.0
C      1  0.4520400000000  0.4811680000000  0.4471360000000 1.0
C      1  0.5166120000000  0.5245390000000  0.4349710000000 1.0
C      1  0.4834970000000  0.5653670000000  0.5244550000000 1.0
C      1  0.5163100000000  0.4755000000000  0.5649490000000 1.0
C      1  0.4835180000000  0.4349250000000  0.4753760000000 1.0
C      1  0.5334620000000  0.5282760000000  0.4610120000000 1.0
C      1  0.4666840000000  0.5391770000000  0.5282680000000 1.0
C      1  0.5335720000000  0.4715910000000  0.5390770000000 1.0
C      1  0.4664540000000  0.4608710000000  0.4715480000000 1.0
C      1  0.4936090000000  0.4783600000000  0.4713400000000 1.0
C      1  0.5063730000000  0.5286620000000  0.4785210000000 1.0
C      1  0.4937760000000  0.5216950000000  0.5286920000000 1.0
C      1  0.5062300000000  0.4712660000000  0.5217410000000 1.0
C      1  0.5458080000000  0.4532190000000  0.4686570000000 1.0
C      1  0.4542980000000  0.5312900000000  0.4533110000000 1.0
C      1  0.5458820000000  0.5469140000000  0.5311920000000 1.0
C      1  0.4539000000000  0.4681480000000  0.5470740000000 1.0
C      1  0.4657020000000  0.4438930000000  0.5309110000000 1.0
C      1  0.5341100000000  0.4690450000000  0.4442520000000 1.0
C      1  0.4659950000000  0.5557180000000  0.4690920000000 1.0
C      1  0.5341840000000  0.5311200000000  0.5556900000000 1.0
END
