TITL C-21446-9947-17 -8.7261872156102e-08 125000 -342.372403942786 0 0 60 (C3i) n - 1
REM
REM in /home/nfs/bkarasulu/CARBON/AIRSS/Generating-Clusters/TERSOFF/Higher-Symm/Only-C60
REM
REM
REM
REM
REM
REM ./C.cell (28575a23ae977d3b5fae324c64b13b57)
REM
REM compiler GCC version 9.2.1 20190827 (Red Hat 9.2.1-1)
REM options -cpp -mtune=generic -march=x86-64 -g -O0 -fpre-include=/usr/include/finclude/math-vector-fortran.h
REM seed -933210208 1806785904 352000742 2116505204 -1347395863 -1158981255 -244387104 -72509711 266522431 -428775601 -1725845426 95050026 193697167 349638672 -421531656 2069496963 -695843577 896978188 1700136787 924055620 1178812676 -1556186789 1607381828 1570587040 -866316898 1428139843 -1743554517 -871349625 1776541868 -1495320068 1933662321 -973174213 -268130468
REM
CELL 1.54180   50.00000   50.00000   50.00000   90.00000   90.00000   90.00000
LATT -1
SFAC C  
C      1  0.4725670000000  0.5592330000000  0.5266830000000 1.0
C      1  0.4725330000000  0.4472880000000  0.5379480000000 1.0
C      1  0.4725470000000  0.4935050000000  0.4353680000000 1.0
C      1  0.5274330000000  0.4407670000000  0.5266830000000 1.0
C      1  0.5274670000000  0.5527120000000  0.5379480000000 1.0
C      1  0.5274530000000  0.5064950000000  0.4353680000000 1.0
C      1  0.5274330000000  0.4407670000000  0.4733170000000 1.0
C      1  0.5274670000000  0.5527120000000  0.4620520000000 1.0
C      1  0.5274530000000  0.5064950000000  0.5646320000000 1.0
C      1  0.4725670000000  0.5592330000000  0.4733170000000 1.0
C      1  0.4725330000000  0.4472880000000  0.4620520000000 1.0
C      1  0.4725470000000  0.4935050000000  0.5646320000000 1.0
C      1  0.4929420000000  0.5790770000000  0.5142410000000 1.0
C      1  0.4929010000000  0.4481310000000  0.5613600000000 1.0
C      1  0.4929090000000  0.4727980000000  0.4243980000000 1.0
C      1  0.5070580000000  0.4209230000000  0.5142410000000 1.0
C      1  0.5070990000000  0.5518690000000  0.5613600000000 1.0
C      1  0.5070910000000  0.5272020000000  0.4243980000000 1.0
C      1  0.5070580000000  0.4209230000000  0.4857590000000 1.0
C      1  0.5070990000000  0.5518690000000  0.4386400000000 1.0
C      1  0.5070910000000  0.5272020000000  0.5756020000000 1.0
C      1  0.4929420000000  0.5790770000000  0.4857590000000 1.0
C      1  0.4929010000000  0.4481310000000  0.4386400000000 1.0
C      1  0.4929090000000  0.4727980000000  0.5756020000000 1.0
C      1  0.4457630000000  0.4802120000000  0.4364380000000 1.0
C      1  0.4457890000000  0.5649660000000  0.5146300000000 1.0
C      1  0.4457560000000  0.4548720000000  0.5489330000000 1.0
C      1  0.5542370000000  0.5197880000000  0.4364380000000 1.0
C      1  0.5542110000000  0.4350340000000  0.5146300000000 1.0
C      1  0.5542440000000  0.5451280000000  0.5489330000000 1.0
C      1  0.5542370000000  0.5197880000000  0.5635620000000 1.0
C      1  0.5542110000000  0.4350340000000  0.4853700000000 1.0
C      1  0.5542440000000  0.5451280000000  0.4510670000000 1.0
C      1  0.4457630000000  0.4802120000000  0.5635620000000 1.0
C      1  0.4457890000000  0.5649660000000  0.4853700000000 1.0
C      1  0.4457560000000  0.4548720000000  0.4510670000000 1.0
C      1  0.5169490000000  0.5009900000000  0.4656980000000 1.0
C      1  0.5169570000000  0.5292040000000  0.5180120000000 1.0
C      1  0.5169390000000  0.4697910000000  0.5162890000000 1.0
C      1  0.4830510000000  0.4990100000000  0.4656980000000 1.0
C      1  0.4830430000000  0.4707960000000  0.5180120000000 1.0
C      1  0.4830610000000  0.5302090000000  0.5162890000000 1.0
C      1  0.4830510000000  0.4990100000000  0.5343020000000 1.0
C      1  0.4830430000000  0.4707960000000  0.4819880000000 1.0
C      1  0.4830610000000  0.5302090000000  0.4837110000000 1.0
C      1  0.5169490000000  0.5009900000000  0.5343020000000 1.0
C      1  0.5169570000000  0.5292040000000  0.4819880000000 1.0
C      1  0.5169390000000  0.4697910000000  0.4837110000000 1.0
C      1  0.4805250000000  0.5165800000000  0.4188710000000 1.0
C      1  0.4805390000000  0.5619790000000  0.5549180000000 1.0
C      1  0.4804950000000  0.4214590000000  0.5262110000000 1.0
C      1  0.5194750000000  0.4834200000000  0.4188710000000 1.0
C      1  0.5194610000000  0.4380210000000  0.5549180000000 1.0
C      1  0.5195050000000  0.5785410000000  0.5262110000000 1.0
C      1  0.5194750000000  0.4834200000000  0.5811290000000 1.0
C      1  0.5194610000000  0.4380210000000  0.4450820000000 1.0
C      1  0.5195050000000  0.5785410000000  0.4737890000000 1.0
C      1  0.4805250000000  0.5165800000000  0.5811290000000 1.0
C      1  0.4805390000000  0.5619790000000  0.4450820000000 1.0
C      1  0.4804950000000  0.4214590000000  0.4737890000000 1.0
END
