TITL C-21448-1263-17 -0.00175563975798364 125000 -330.812550009691 0 0 60 (C2h) n - 1
REM
REM in /home/nfs/bkarasulu/CARBON/AIRSS/Generating-Clusters/TERSOFF/Higher-Symm/Only-C60
REM
REM
REM
REM
REM
REM ./C.cell (28575a23ae977d3b5fae324c64b13b57)
REM
REM compiler GCC version 9.2.1 20190827 (Red Hat 9.2.1-1)
REM options -cpp -mtune=generic -march=x86-64 -g -O0 -fpre-include=/usr/include/finclude/math-vector-fortran.h
REM seed 1766283274 -650135262 -1786565115 -1180170206 264117714 -319371146 512664906 -1052385133 -187920870 -2079103351 1059383542 -352375235 614764764 469143959 -506152161 -2063218637 1043052033 1793244063 966520722 791343231 1898366676 -1591770736 -262102252 -1632735880 -1713020085 -210032696 148333461 1362088427 578392937 1804111635 578722234 -1017844063 -1725133692
REM
CELL 1.54180   50.00000   50.00000   50.00000   90.00000   90.00000   90.00000
LATT -1
SFAC C  
C      1  0.4848680000000  0.4695190000000  0.5155290000000 1.0
C      1  0.5151320000000  0.5304810000000  0.5155290000000 1.0
C      1  0.4848680000000  0.4695190000000  0.4844720000000 1.0
C      1  0.5151320000000  0.5304810000000  0.4844720000000 1.0
C      1  0.5329450000000  0.5096180000000  0.4744240000000 1.0
C      1  0.4670550000000  0.4903820000000  0.4744240000000 1.0
C      1  0.5329220000000  0.5095870000000  0.5255680000000 1.0
C      1  0.4670780000000  0.4904130000000  0.5255680000000 1.0
C      1  0.5556800000000  0.5441320000000  0.5327520000000 1.0
C      1  0.4443200000000  0.4558680000000  0.5327520000000 1.0
C      1  0.5556600000000  0.5441000000000  0.4672560000000 1.0
C      1  0.4443400000000  0.4559000000000  0.4672560000000 1.0
C      1  0.5755290000000  0.5282890000000  0.4844790000000 1.0
C      1  0.4244710000000  0.4717110000000  0.4844790000000 1.0
C      1  0.5755290000000  0.5282900000000  0.5155240000000 1.0
C      1  0.4244710000000  0.4717100000000  0.5155240000000 1.0
C      1  0.5179890000000  0.4390270000000  0.5355490000000 1.0
C      1  0.4820110000000  0.5609730000000  0.5355490000000 1.0
C      1  0.5179880000000  0.4390290000000  0.4644500000000 1.0
C      1  0.4820120000000  0.5609710000000  0.4644500000000 1.0
C      1  0.5074880000000  0.5756800000000  0.5284770000000 1.0
C      1  0.4925120000000  0.4243200000000  0.5284770000000 1.0
C      1  0.5074880000000  0.5756780000000  0.4715220000000 1.0
C      1  0.4925120000000  0.4243220000000  0.4715220000000 1.0
C      1  0.4531010000000  0.4818550000000  0.5514450000000 1.0
C      1  0.5468990000000  0.5181450000000  0.5514450000000 1.0
C      1  0.4531010000000  0.4818540000000  0.4485560000000 1.0
C      1  0.5468990000000  0.5181460000000  0.4485560000000 1.0
C      1  0.5319020000000  0.4821290000000  0.5162790000000 1.0
C      1  0.4680980000000  0.5178710000000  0.5162790000000 1.0
C      1  0.5319020000000  0.4821300000000  0.4837220000000 1.0
C      1  0.4680980000000  0.5178700000000  0.4837220000000 1.0
C      1  0.4402570000000  0.5343940000000  0.4833490000000 1.0
C      1  0.5597430000000  0.4656060000000  0.4833490000000 1.0
C      1  0.4402570000000  0.5343940000000  0.5166500000000 1.0
C      1  0.5597430000000  0.4656060000000  0.5166500000000 1.0
C      1  0.5799390000000  0.4942920000000  0.5173350000000 1.0
C      1  0.4200610000000  0.5057080000000  0.5173350000000 1.0
C      1  0.5799390000000  0.4942920000000  0.4826660000000 1.0
C      1  0.4200610000000  0.5057080000000  0.4826660000000 1.0
C      1  0.4928830000000  0.5197380000000  0.4405730000000 1.0
C      1  0.5071170000000  0.4802620000000  0.4405730000000 1.0
C      1  0.4928820000000  0.5197400000000  0.5594260000000 1.0
C      1  0.5071180000000  0.4802600000000  0.5594260000000 1.0
C      1  0.5312130000000  0.5591260000000  0.5168340000000 1.0
C      1  0.4687870000000  0.4408740000000  0.5168340000000 1.0
C      1  0.5312130000000  0.5591260000000  0.4831660000000 1.0
C      1  0.4687870000000  0.4408740000000  0.4831660000000 1.0
C      1  0.5223610000000  0.5088090000000  0.4332890000000 1.0
C      1  0.4776390000000  0.4911910000000  0.4332890000000 1.0
C      1  0.5223600000000  0.5088090000000  0.5667110000000 1.0
C      1  0.4776400000000  0.4911910000000  0.5667110000000 1.0
C      1  0.5473390000000  0.4388210000000  0.4717840000000 1.0
C      1  0.4526610000000  0.5611790000000  0.4717840000000 1.0
C      1  0.5473400000000  0.4388200000000  0.5282140000000 1.0
C      1  0.4526600000000  0.5611800000000  0.5282140000000 1.0
C      1  0.4894260000000  0.5321960000000  0.5318560000000 1.0
C      1  0.5105740000000  0.4678040000000  0.5318560000000 1.0
C      1  0.4894260000000  0.5321940000000  0.4681440000000 1.0
C      1  0.5105740000000  0.4678060000000  0.4681440000000 1.0
END
