TITL C-21453-3943-12 0.00356601022272879 125000 -299.391529306146 0 0 60 (C3) n - 1
REM
REM in /home/nfs/bkarasulu/CARBON/AIRSS/Generating-Clusters/TERSOFF/Higher-Symm/Only-C60
REM
REM
REM
REM
REM
REM ./C.cell (28575a23ae977d3b5fae324c64b13b57)
REM
REM compiler GCC version 9.2.1 20190827 (Red Hat 9.2.1-1)
REM options -cpp -mtune=generic -march=x86-64 -g -O0 -fpre-include=/usr/include/finclude/math-vector-fortran.h
REM seed 58430687 904428522 2127749626 -800232254 -728683398 81802312 -1383767863 -441830678 175853339 654159105 -690761114 537453193 558570013 -1629255556 -1435112672 1039626125 -793477599 -154557717 1877075327 -1691409130 887436864 -1234425920 -1937375417 -744551440 300778211 1633652982 863732827 1792284561 1419282668 -1605053409 -216627630 329274661 -960906442
REM
CELL 1.54180   50.00000   50.00000   50.00000   90.00000   90.00000   90.00000
LATT -1
SFAC C  
C      1  0.4799290000000  0.4881140000000  0.4430810000000 1.0
C      1  0.4799290000000  0.4566450000000  0.5387500000000 1.0
C      1  0.4799290000000  0.5552400000000  0.5181650000000 1.0
C      1  0.5266280000000  0.5720990000000  0.5062310000000 1.0
C      1  0.5266260000000  0.4693480000000  0.4344510000000 1.0
C      1  0.5266250000000  0.4585590000000  0.5593090000000 1.0
C      1  0.5258360000000  0.5381470000000  0.5449930000000 1.0
C      1  0.5258310000000  0.5198910000000  0.4444810000000 1.0
C      1  0.5258310000000  0.4419700000000  0.5105270000000 1.0
C      1  0.5522350000000  0.5605540000000  0.4941490000000 1.0
C      1  0.5522260000000  0.4646550000000  0.4504800000000 1.0
C      1  0.5522430000000  0.4747750000000  0.5553680000000 1.0
C      1  0.4960470000000  0.5643700000000  0.4622510000000 1.0
C      1  0.4960390000000  0.4351180000000  0.4631240000000 1.0
C      1  0.4960450000000  0.5005120000000  0.5746140000000 1.0
C      1  0.4350740000000  0.5140040000000  0.5297290000000 1.0
C      1  0.4350750000000  0.5187400000000  0.4730060000000 1.0
C      1  0.4350760000000  0.4672520000000  0.4972630000000 1.0
C      1  0.4473350000000  0.5240940000000  0.5026350000000 1.0
C      1  0.4473380000000  0.4902330000000  0.4778150000000 1.0
C      1  0.4473350000000  0.4856700000000  0.5195500000000 1.0
C      1  0.5112800000000  0.4616600000000  0.4592210000000 1.0
C      1  0.5112710000000  0.4838670000000  0.5535880000000 1.0
C      1  0.5112730000000  0.5544800000000  0.4871610000000 1.0
C      1  0.5473280000000  0.5179660000000  0.5276220000000 1.0
C      1  0.5473240000000  0.5149340000000  0.4706360000000 1.0
C      1  0.5473200000000  0.4671020000000  0.5017470000000 1.0
C      1  0.5485460000000  0.5493620000000  0.4639660000000 1.0
C      1  0.5485400000000  0.4441100000000  0.4752700000000 1.0
C      1  0.5485510000000  0.5065210000000  0.5607710000000 1.0
C      1  0.4766930000000  0.5269990000000  0.5047160000000 1.0
C      1  0.4766960000000  0.4905850000000  0.4742630000000 1.0
C      1  0.4766930000000  0.4824190000000  0.5210260000000 1.0
C      1  0.5097330000000  0.4452050000000  0.5371540000000 1.0
C      1  0.5097360000000  0.5595810000000  0.5288660000000 1.0
C      1  0.5097340000000  0.4952130000000  0.4339720000000 1.0
C      1  0.4580320000000  0.5404120000000  0.5398160000000 1.0
C      1  0.4580370000000  0.5142750000000  0.4450940000000 1.0
C      1  0.4580360000000  0.4453110000000  0.5150860000000 1.0
C      1  0.5185460000000  0.4809250000000  0.4967730000000 1.0
C      1  0.5185460000000  0.5067430000000  0.5181500000000 1.0
C      1  0.5185460000000  0.5123490000000  0.4851000000000 1.0
C      1  0.4709310000000  0.5661170000000  0.4882740000000 1.0
C      1  0.4709270000000  0.4567860000000  0.4485990000000 1.0
C      1  0.4709360000000  0.4770970000000  0.5631220000000 1.0
C      1  0.5568230000000  0.4843840000000  0.5260710000000 1.0
C      1  0.5568250000000  0.5303890000000  0.5004900000000 1.0
C      1  0.5568210000000  0.4852270000000  0.4734430000000 1.0
C      1  0.4778830000000  0.5384270000000  0.4542670000000 1.0
C      1  0.4778880000000  0.4411800000000  0.4895900000000 1.0
C      1  0.4778790000000  0.5203980000000  0.5561500000000 1.0
C      1  0.4507180000000  0.4486350000000  0.4732530000000 1.0
C      1  0.4507140000000  0.5025150000000  0.5578590000000 1.0
C      1  0.4507110000000  0.5488470000000  0.4688920000000 1.0
C      1  0.5213390000000  0.4274740000000  0.4814820000000 1.0
C      1  0.5213470000000  0.5202180000000  0.5720560000000 1.0
C      1  0.5213380000000  0.5522930000000  0.4464780000000 1.0
C      1  0.4890780000000  0.4713740000000  0.4943620000000 1.0
C      1  0.4890720000000  0.5094320000000  0.5276160000000 1.0
C      1  0.4890750000000  0.5191990000000  0.4780300000000 1.0
END
