TITL C-21452-6160-21 -0.000333958539096164 125000 -303.154778932 0 0 60 (C1) n - 1
REM
REM in /home/nfs/bkarasulu/CARBON/AIRSS/Generating-Clusters/TERSOFF/Higher-Symm/Only-C60
REM
REM
REM
REM
REM
REM ./C.cell (28575a23ae977d3b5fae324c64b13b57)
REM
REM compiler GCC version 9.2.1 20190827 (Red Hat 9.2.1-1)
REM options -cpp -mtune=generic -march=x86-64 -g -O0 -fpre-include=/usr/include/finclude/math-vector-fortran.h
REM seed 2139797128 862005484 1404540122 -269753401 -136074904 -1306680458 985081424 1024833856 -389397563 -1827749991 1025967457 1872781386 1606383480 68807364 1052088919 -316163390 -42316460 2034562974 151252071 201247056 1289134546 -491332547 1961905401 -538613682 -1224651709 -1898703424 1019863071 -1531092798 1483147218 537569982 302625758 1998022709 904382362
REM
CELL 1.54180   50.00000   50.00000   50.00000   90.00000   90.00000   90.00000
LATT -1
SFAC C  
C      1  0.5269340000000  0.4856690000000  0.5009830000000 1.0
C      1  0.4712200000000  0.5168560000000  0.5069570000000 1.0
C      1  0.5246570000000  0.5170210000000  0.5060900000000 1.0
C      1  0.4677700000000  0.4858120000000  0.5014720000000 1.0
C      1  0.5185680000000  0.5491660000000  0.4726440000000 1.0
C      1  0.4764690000000  0.4508220000000  0.4729430000000 1.0
C      1  0.5181620000000  0.4538240000000  0.4751250000000 1.0
C      1  0.4766370000000  0.5504000000000  0.4727400000000 1.0
C      1  0.5533880000000  0.4512800000000  0.5074720000000 1.0
C      1  0.4447640000000  0.5513830000000  0.5126620000000 1.0
C      1  0.5524400000000  0.5510550000000  0.5110240000000 1.0
C      1  0.4448730000000  0.4513700000000  0.5087740000000 1.0
C      1  0.5383370000000  0.4789700000000  0.4299640000000 1.0
C      1  0.4625550000000  0.5103880000000  0.4349080000000 1.0
C      1  0.5403840000000  0.5113040000000  0.4349430000000 1.0
C      1  0.4655010000000  0.4790220000000  0.4281420000000 1.0
C      1  0.4441730000000  0.5243630000000  0.5292440000000 1.0
C      1  0.5523340000000  0.4780160000000  0.5241600000000 1.0
C      1  0.4444050000000  0.4779160000000  0.5257000000000 1.0
C      1  0.5526850000000  0.5241570000000  0.5277040000000 1.0
C      1  0.5186430000000  0.5345210000000  0.4430820000000 1.0
C      1  0.4838360000000  0.4584440000000  0.4431140000000 1.0
C      1  0.5185820000000  0.4580850000000  0.4435710000000 1.0
C      1  0.4827350000000  0.5334080000000  0.4456330000000 1.0
C      1  0.4562120000000  0.5150290000000  0.5552350000000 1.0
C      1  0.5419810000000  0.4834870000000  0.5512750000000 1.0
C      1  0.4561090000000  0.4835340000000  0.5521280000000 1.0
C      1  0.5418130000000  0.5150290000000  0.5542760000000 1.0
C      1  0.4727740000000  0.4399140000000  0.5028290000000 1.0
C      1  0.5240530000000  0.5589450000000  0.5021200000000 1.0
C      1  0.4730060000000  0.5591900000000  0.5029710000000 1.0
C      1  0.5252830000000  0.4398590000000  0.5020850000000 1.0
C      1  0.4401990000000  0.4757770000000  0.4839670000000 1.0
C      1  0.5519560000000  0.5276070000000  0.4858870000000 1.0
C      1  0.4443150000000  0.5281720000000  0.4874450000000 1.0
C      1  0.5538600000000  0.4754190000000  0.4823010000000 1.0
C      1  0.5236380000000  0.4643470000000  0.5625050000000 1.0
C      1  0.4778790000000  0.5297580000000  0.5674640000000 1.0
C      1  0.5204100000000  0.5296340000000  0.5670200000000 1.0
C      1  0.4746460000000  0.4642120000000  0.5629210000000 1.0
C      1  0.4252610000000  0.5013980000000  0.5216690000000 1.0
C      1  0.5713950000000  0.5013410000000  0.5196590000000 1.0
C      1  0.5666330000000  0.5025910000000  0.4779700000000 1.0
C      1  0.4285870000000  0.5037390000000  0.4798850000000 1.0
C      1  0.4989550000000  0.4421330000000  0.5207120000000 1.0
C      1  0.4987360000000  0.5578910000000  0.5200420000000 1.0
C      1  0.4958830000000  0.4749290000000  0.4874640000000 1.0
C      1  0.4974700000000  0.5261170000000  0.4842340000000 1.0
C      1  0.4990990000000  0.4550980000000  0.5494070000000 1.0
C      1  0.4990950000000  0.5508630000000  0.5502310000000 1.0
C      1  0.4997020000000  0.4977200000000  0.3886090000000 1.0
C      1  0.4992910000000  0.5105350000000  0.4145500000000 1.0
C      1  0.5016600000000  0.4962890000000  0.4405830000000 1.0
C      1  0.4991970000000  0.5101530000000  0.5772410000000 1.0
C      1  0.4959780000000  0.4997280000000  0.4690990000000 1.0
C      1  0.4988580000000  0.5094280000000  0.6285590000000 1.0
C      1  0.4976420000000  0.5116040000000  0.3632930000000 1.0
C      1  0.4986400000000  0.4970740000000  0.5492860000000 1.0
C      1  0.4982010000000  0.5125460000000  0.5239660000000 1.0
C      1  0.4993910000000  0.4963770000000  0.6027240000000 1.0
END
