TITL C-21447-2359-33 0.0225516534587579 125000 -298.539894554705 0 0 60 (D6h) n - 1
REM
REM in /home/nfs/bkarasulu/CARBON/AIRSS/Generating-Clusters/TERSOFF/Higher-Symm/Only-C60
REM
REM
REM
REM
REM
REM ./C.cell (28575a23ae977d3b5fae324c64b13b57)
REM
REM compiler GCC version 9.2.1 20190827 (Red Hat 9.2.1-1)
REM options -cpp -mtune=generic -march=x86-64 -g -O0 -fpre-include=/usr/include/finclude/math-vector-fortran.h
REM seed -1446020847 283285878 -1839794245 -779785700 -1432988925 1193672246 -2051813848 402637066 724863707 -776428477 3639617 -318716186 492847811 -675375728 823707494 -258356423 1795239591 -92834301 -825613311 523826606 -2076240374 -859673729 1594649545 1086295810 1578941381 690377498 1850112317 1375279678 1269136766 652572834 -12067523 1146832205 -1428598867
REM
CELL 1.54180   50.00000   50.00000   50.00000   90.00000   90.00000   90.00000
LATT -1
SFAC C  
C      1  0.5269600000000  0.5122080000000  0.4601600000000 1.0
C      1  0.5240060000000  0.4827740000000  0.4602630000000 1.0
C      1  0.4971110000000  0.4705790000000  0.4602150000000 1.0
C      1  0.4730400000000  0.4877920000000  0.4601600000000 1.0
C      1  0.4759940000000  0.5172260000000  0.4602630000000 1.0
C      1  0.5028890000000  0.5294210000000  0.4602150000000 1.0
C      1  0.5269600000000  0.5122080000000  0.5398400000000 1.0
C      1  0.5240060000000  0.4827740000000  0.5397370000000 1.0
C      1  0.4971110000000  0.4705790000000  0.5397850000000 1.0
C      1  0.4730400000000  0.4877920000000  0.5398400000000 1.0
C      1  0.4759940000000  0.5172260000000  0.5397370000000 1.0
C      1  0.5028890000000  0.5294210000000  0.5397850000000 1.0
C      1  0.5366070000000  0.5511140000000  0.4725340000000 1.0
C      1  0.5626060000000  0.4938130000000  0.4725500000000 1.0
C      1  0.5259760000000  0.4427130000000  0.4725410000000 1.0
C      1  0.4633930000000  0.4488860000000  0.4725340000000 1.0
C      1  0.4373940000000  0.5061870000000  0.4725500000000 1.0
C      1  0.4740240000000  0.5572870000000  0.4725410000000 1.0
C      1  0.5366070000000  0.5511140000000  0.5274660000000 1.0
C      1  0.5626060000000  0.4938130000000  0.5274500000000 1.0
C      1  0.5259760000000  0.4427130000000  0.5274590000000 1.0
C      1  0.4633930000000  0.4488860000000  0.5274660000000 1.0
C      1  0.4373940000000  0.5061870000000  0.5274500000000 1.0
C      1  0.4740240000000  0.5572870000000  0.5274590000000 1.0
C      1  0.5417650000000  0.4700670000000  0.4333890000000 1.0
C      1  0.4949640000000  0.4488620000000  0.4333760000000 1.0
C      1  0.4531990000000  0.4787970000000  0.4333930000000 1.0
C      1  0.4582350000000  0.5299330000000  0.4333890000000 1.0
C      1  0.5050360000000  0.5511380000000  0.4333760000000 1.0
C      1  0.5468010000000  0.5212030000000  0.4333930000000 1.0
C      1  0.5417650000000  0.4700670000000  0.5666110000000 1.0
C      1  0.4949640000000  0.4488620000000  0.5666240000000 1.0
C      1  0.4531990000000  0.4787970000000  0.5666070000000 1.0
C      1  0.4582350000000  0.5299330000000  0.5666110000000 1.0
C      1  0.5050360000000  0.5511380000000  0.5666240000000 1.0
C      1  0.5468010000000  0.5212030000000  0.5666070000000 1.0
C      1  0.4501760000000  0.4774270000000  0.4848470000000 1.0
C      1  0.4555400000000  0.5318640000000  0.4848440000000 1.0
C      1  0.5053640000000  0.5544380000000  0.4848460000000 1.0
C      1  0.5498240000000  0.5225730000000  0.4848470000000 1.0
C      1  0.5444600000000  0.4681360000000  0.4848440000000 1.0
C      1  0.4946360000000  0.4455620000000  0.4848460000000 1.0
C      1  0.4501760000000  0.4774270000000  0.5151530000000 1.0
C      1  0.4555400000000  0.5318640000000  0.5151560000000 1.0
C      1  0.5053640000000  0.5544380000000  0.5151540000000 1.0
C      1  0.5498240000000  0.5225730000000  0.5151530000000 1.0
C      1  0.5444600000000  0.4681360000000  0.5151560000000 1.0
C      1  0.4946360000000  0.4455620000000  0.5151540000000 1.0
C      1  0.5249850000000  0.4447660000000  0.4424010000000 1.0
C      1  0.4646590000000  0.4507340000000  0.4423980000000 1.0
C      1  0.4396920000000  0.5059070000000  0.4424140000000 1.0
C      1  0.4750150000000  0.5552340000000  0.4424010000000 1.0
C      1  0.5353410000000  0.5492660000000  0.4423980000000 1.0
C      1  0.5603080000000  0.4940930000000  0.4424140000000 1.0
C      1  0.5249850000000  0.4447660000000  0.5575990000000 1.0
C      1  0.4646590000000  0.4507340000000  0.5576020000000 1.0
C      1  0.4396920000000  0.5059070000000  0.5575860000000 1.0
C      1  0.4750150000000  0.5552340000000  0.5575990000000 1.0
C      1  0.5353410000000  0.5492660000000  0.5576020000000 1.0
C      1  0.5603080000000  0.4940930000000  0.5575860000000 1.0
END
