TITL C-21451-4170-19 1.10567947657284e-07 125000 -316.136367675349 0 0 60 (C4) n - 1
REM
REM in /home/nfs/bkarasulu/CARBON/AIRSS/Generating-Clusters/TERSOFF/Higher-Symm/Only-C60
REM
REM
REM
REM
REM
REM ./C.cell (28575a23ae977d3b5fae324c64b13b57)
REM
REM compiler GCC version 9.2.1 20190827 (Red Hat 9.2.1-1)
REM options -cpp -mtune=generic -march=x86-64 -g -O0 -fpre-include=/usr/include/finclude/math-vector-fortran.h
REM seed -1037092342 31037268 492139878 996704711 -1143244983 -2038627296 677808354 -630917395 14810363 -814118836 2143164828 1019420851 -392497732 1213398665 1683092229 1235437092 92906153 1509323410 566921946 415514625 -388886842 -512525965 936987203 1245030168 -777923476 432106807 1559643428 -270229535 2052480746 -384062366 -195883678 494146299 1681684897
REM
CELL 1.54180   50.00000   50.00000   50.00000   90.00000   90.00000   90.00000
LATT -1
SFAC C  
C      1  0.4622640000000  0.4297470000000  0.4769980000000 1.0
C      1  0.4297470000000  0.5377360000000  0.4769980000000 1.0
C      1  0.5377360000000  0.5702530000000  0.4769980000000 1.0
C      1  0.5702530000000  0.4622640000000  0.4769980000000 1.0
C      1  0.5216620000000  0.5123600000000  0.4249280000000 1.0
C      1  0.5123600000000  0.4783380000000  0.4249280000000 1.0
C      1  0.4783390000000  0.4876400000000  0.4249280000000 1.0
C      1  0.4876400000000  0.5216610000000  0.4249280000000 1.0
C      1  0.4750790000000  0.4977760000000  0.5228120000000 1.0
C      1  0.4977760000000  0.5249210000000  0.5228120000000 1.0
C      1  0.5249210000000  0.5022250000000  0.5228120000000 1.0
C      1  0.5022240000000  0.4750790000000  0.5228120000000 1.0
C      1  0.5305720000000  0.4852930000000  0.4935970000000 1.0
C      1  0.4852930000000  0.4694280000000  0.4935970000000 1.0
C      1  0.4694280000000  0.5147070000000  0.4935970000000 1.0
C      1  0.5147070000000  0.5305720000000  0.4935970000000 1.0
C      1  0.4477850000000  0.4742360000000  0.5225270000000 1.0
C      1  0.4742360000000  0.5522150000000  0.5225270000000 1.0
C      1  0.5522150000000  0.5257640000000  0.5225270000000 1.0
C      1  0.5257640000000  0.4477850000000  0.5225270000000 1.0
C      1  0.4541160000000  0.5308890000000  0.5569150000000 1.0
C      1  0.5308890000000  0.5458840000000  0.5569150000000 1.0
C      1  0.5458840000000  0.4691120000000  0.5569160000000 1.0
C      1  0.4691110000000  0.4541160000000  0.5569150000000 1.0
C      1  0.5433560000000  0.5206420000000  0.5672600000000 1.0
C      1  0.5206420000000  0.4566440000000  0.5672600000000 1.0
C      1  0.4566440000000  0.4793580000000  0.5672600000000 1.0
C      1  0.4793580000000  0.5433560000000  0.5672600000000 1.0
C      1  0.5544040000000  0.4555870000000  0.5297370000000 1.0
C      1  0.4555870000000  0.4455960000000  0.5297370000000 1.0
C      1  0.4455960000000  0.5444130000000  0.5297370000000 1.0
C      1  0.5444130000000  0.5544040000000  0.5297370000000 1.0
C      1  0.5374210000000  0.4915250000000  0.4476760000000 1.0
C      1  0.4915250000000  0.4625790000000  0.4476760000000 1.0
C      1  0.4625790000000  0.5084750000000  0.4476760000000 1.0
C      1  0.5084750000000  0.5374210000000  0.4476760000000 1.0
C      1  0.5175210000000  0.4356980000000  0.4772600000000 1.0
C      1  0.4356980000000  0.4824790000000  0.4772600000000 1.0
C      1  0.4824790000000  0.5643020000000  0.4772600000000 1.0
C      1  0.5643020000000  0.5175200000000  0.4772600000000 1.0
C      1  0.4724100000000  0.4387970000000  0.4506790000000 1.0
C      1  0.4387970000000  0.5275900000000  0.4506780000000 1.0
C      1  0.5275900000000  0.5612030000000  0.4506780000000 1.0
C      1  0.5612030000000  0.4724100000000  0.4506790000000 1.0
C      1  0.4914330000000  0.5360030000000  0.4746020000000 1.0
C      1  0.5360030000000  0.5085670000000  0.4746020000000 1.0
C      1  0.5085670000000  0.4639970000000  0.4746020000000 1.0
C      1  0.4639970000000  0.4914330000000  0.4746020000000 1.0
C      1  0.4970430000000  0.4606000000000  0.5503150000000 1.0
C      1  0.4606000000000  0.5029560000000  0.5503150000000 1.0
C      1  0.5029560000000  0.5394000000000  0.5503150000000 1.0
C      1  0.5394000000000  0.4970440000000  0.5503150000000 1.0
C      1  0.5300710000000  0.5553240000000  0.5011620000000 1.0
C      1  0.5553240000000  0.4699290000000  0.5011620000000 1.0
C      1  0.4699290000000  0.4446760000000  0.5011620000000 1.0
C      1  0.4446760000000  0.5300710000000  0.5011620000000 1.0
C      1  0.4266350000000  0.4778470000000  0.5035320000000 1.0
C      1  0.4778470000000  0.5733650000000  0.5035320000000 1.0
C      1  0.5733650000000  0.5221530000000  0.5035320000000 1.0
C      1  0.5221530000000  0.4266350000000  0.5035320000000 1.0
END
