TITL C-21439-636-17 -7.26419538221006e-08 125000 -328.285293615331 0 0 60 (D2h) n - 1
REM
REM in /home/nfs/bkarasulu/CARBON/AIRSS/Generating-Clusters/TERSOFF/Higher-Symm/Only-C60
REM
REM
REM
REM
REM
REM ./C.cell (28575a23ae977d3b5fae324c64b13b57)
REM
REM compiler GCC version 9.2.1 20190827 (Red Hat 9.2.1-1)
REM options -cpp -mtune=generic -march=x86-64 -g -O0 -fpre-include=/usr/include/finclude/math-vector-fortran.h
REM seed -1249226918 -1298938688 -617105024 -1168073170 1458309605 1453882242 596820975 -58303009 1893144698 -52700931 -216343394 -1642638039 -900303982 1181505656 -2036185453 1870017370 603366649 343098793 -1913654336 356422484 2056969638 1815376826 -1564659881 -1104498749 -1664059622 783288553 -1059816571 438492824 862125790 -620474677 1698139971 -1118737910 614255183
REM
CELL 1.54180   50.00000   50.00000   50.00000   90.00000   90.00000   90.00000
LATT -1
SFAC C  
C      1  0.5275300000000  0.4840930000000  0.5181700000000 1.0
C      1  0.4724700000000  0.4840930000000  0.4818300000000 1.0
C      1  0.5275300000000  0.5159070000000  0.5181700000000 1.0
C      1  0.4724700000000  0.5159070000000  0.4818300000000 1.0
C      1  0.4724700000000  0.4840930000000  0.5181700000000 1.0
C      1  0.5275300000000  0.4840930000000  0.4818300000000 1.0
C      1  0.4724700000000  0.5159070000000  0.5181700000000 1.0
C      1  0.5275300000000  0.5159070000000  0.4818300000000 1.0
C      1  0.4843460000000  0.4843050000000  0.4102550000000 1.0
C      1  0.5156540000000  0.4843050000000  0.5897450000000 1.0
C      1  0.4843460000000  0.5156950000000  0.4102550000000 1.0
C      1  0.5156540000000  0.5156950000000  0.5897450000000 1.0
C      1  0.5156540000000  0.4843050000000  0.4102550000000 1.0
C      1  0.4843460000000  0.4843050000000  0.5897450000000 1.0
C      1  0.5156540000000  0.5156950000000  0.4102550000000 1.0
C      1  0.4843460000000  0.5156950000000  0.5897450000000 1.0
C      1  0.4386530000000  0.4818300000000  0.4824300000000 1.0
C      1  0.5613470000000  0.4818300000000  0.5175700000000 1.0
C      1  0.4386530000000  0.5181700000000  0.4824300000000 1.0
C      1  0.5613470000000  0.5181700000000  0.5175700000000 1.0
C      1  0.5613470000000  0.4818300000000  0.4824300000000 1.0
C      1  0.4386530000000  0.4818300000000  0.5175700000000 1.0
C      1  0.5613470000000  0.5181700000000  0.4824300000000 1.0
C      1  0.4386530000000  0.5181700000000  0.5175700000000 1.0
C      1  0.4847250000000  0.5334780000000  0.5410600000000 1.0
C      1  0.5152750000000  0.5334780000000  0.4589400000000 1.0
C      1  0.4847250000000  0.4665220000000  0.5410600000000 1.0
C      1  0.5152750000000  0.4665220000000  0.4589400000000 1.0
C      1  0.5152750000000  0.5334780000000  0.5410600000000 1.0
C      1  0.4847250000000  0.5334780000000  0.4589400000000 1.0
C      1  0.5152750000000  0.4665220000000  0.5410600000000 1.0
C      1  0.4847250000000  0.4665220000000  0.4589400000000 1.0
C      1  0.4719700000000  0.4704720000000  0.4323620000000 1.0
C      1  0.5280300000000  0.4704720000000  0.5676380000000 1.0
C      1  0.4719700000000  0.5295280000000  0.4323620000000 1.0
C      1  0.5280300000000  0.5295280000000  0.5676380000000 1.0
C      1  0.5280300000000  0.4704720000000  0.4323620000000 1.0
C      1  0.4719700000000  0.4704720000000  0.5676380000000 1.0
C      1  0.5280300000000  0.5295280000000  0.4323620000000 1.0
C      1  0.4719700000000  0.5295280000000  0.5676380000000 1.0
C      1  0.5504320000000  0.5522170000000  0.4849420000000 1.0
C      1  0.4495680000000  0.5522170000000  0.5150580000000 1.0
C      1  0.5504320000000  0.4477830000000  0.4849420000000 1.0
C      1  0.4495680000000  0.4477830000000  0.5150580000000 1.0
C      1  0.4495680000000  0.5522170000000  0.4849420000000 1.0
C      1  0.5504320000000  0.5522170000000  0.5150580000000 1.0
C      1  0.4495680000000  0.4477830000000  0.4849420000000 1.0
C      1  0.5504320000000  0.4477830000000  0.5150580000000 1.0
C      1  0.5245300000000  0.4407440000000  0.5284270000000 1.0
C      1  0.4754700000000  0.4407440000000  0.4715730000000 1.0
C      1  0.5245300000000  0.5592560000000  0.5284270000000 1.0
C      1  0.4754700000000  0.5592560000000  0.4715730000000 1.0
C      1  0.4754700000000  0.4407440000000  0.5284270000000 1.0
C      1  0.5245300000000  0.4407440000000  0.4715730000000 1.0
C      1  0.4754700000000  0.5592560000000  0.5284270000000 1.0
C      1  0.5245300000000  0.5592560000000  0.4715730000000 1.0
C      1  0.5000000000000  0.4287850000000  0.5146300000000 1.0
C      1  0.5000000000000  0.5712150000000  0.4853700000000 1.0
C      1  0.5000000000000  0.4287850000000  0.4853700000000 1.0
C      1  0.5000000000000  0.5712150000000  0.5146300000000 1.0
END
