TITL C-21450-4084-20 -0.000827935153902793 125000 -300.638680669982 0 0 60 (Cs) n - 1
REM
REM in /home/nfs/bkarasulu/CARBON/AIRSS/Generating-Clusters/TERSOFF/Higher-Symm/Only-C60
REM
REM
REM
REM
REM
REM ./C.cell (28575a23ae977d3b5fae324c64b13b57)
REM
REM compiler GCC version 9.2.1 20190827 (Red Hat 9.2.1-1)
REM options -cpp -mtune=generic -march=x86-64 -g -O0 -fpre-include=/usr/include/finclude/math-vector-fortran.h
REM seed 824135364 1925053480 -702564573 -480040209 -1735340513 -1623215797 -1274086643 -1151319632 986505487 -1456745875 -1058217132 -1036404607 -521468124 1741792006 242245223 1361027676 1656758708 -633603878 -2012493799 1206108814 -1637758810 -1553676055 -760891020 976711447 442937074 -745373669 -515653217 784396572 -2018120463 909730620 -1946612104 -842184310 1536263429
REM
CELL 1.54180   50.00000   50.00000   50.00000   90.00000   90.00000   90.00000
LATT -1
SFAC C  
C      1  0.4495600000000  0.5227540000000  0.5269280000000 1.0
C      1  0.5154390000000  0.5716730000000  0.5329060000000 1.0
C      1  0.5643960000000  0.4974610000000  0.5217380000000 1.0
C      1  0.5298820000000  0.4432220000000  0.5294160000000 1.0
C      1  0.4480860000000  0.4684320000000  0.5295390000000 1.0
C      1  0.5504640000000  0.5227620000000  0.5269550000000 1.0
C      1  0.4845320000000  0.5716920000000  0.5328860000000 1.0
C      1  0.4356150000000  0.4974630000000  0.5217340000000 1.0
C      1  0.4701080000000  0.4432250000000  0.5294140000000 1.0
C      1  0.5518960000000  0.4684400000000  0.5295150000000 1.0
C      1  0.5160550000000  0.5507250000000  0.4796580000000 1.0
C      1  0.5536100000000  0.4994190000000  0.4700760000000 1.0
C      1  0.5155820000000  0.4493040000000  0.4746340000000 1.0
C      1  0.4594500000000  0.4706460000000  0.4713370000000 1.0
C      1  0.4633870000000  0.5273220000000  0.4751150000000 1.0
C      1  0.4839920000000  0.5507070000000  0.4796370000000 1.0
C      1  0.4463900000000  0.4994070000000  0.4700500000000 1.0
C      1  0.4843820000000  0.4493260000000  0.4746230000000 1.0
C      1  0.5404480000000  0.4706990000000  0.4713120000000 1.0
C      1  0.5366930000000  0.5273800000000  0.4751300000000 1.0
C      1  0.4678610000000  0.5247610000000  0.5499910000000 1.0
C      1  0.5161630000000  0.5484260000000  0.5538240000000 1.0
C      1  0.5267070000000  0.5008970000000  0.5654770000000 1.0
C      1  0.5144470000000  0.4493990000000  0.5559360000000 1.0
C      1  0.4659820000000  0.4744170000000  0.5571950000000 1.0
C      1  0.5321750000000  0.5247530000000  0.5500210000000 1.0
C      1  0.4838680000000  0.5484280000000  0.5537860000000 1.0
C      1  0.4733240000000  0.5009010000000  0.5654630000000 1.0
C      1  0.4855550000000  0.4494030000000  0.5559360000000 1.0
C      1  0.5340210000000  0.4744090000000  0.5571920000000 1.0
C      1  0.4096910000000  0.5180520000000  0.4782410000000 1.0
C      1  0.4835590000000  0.5921460000000  0.4860440000000 1.0
C      1  0.5757250000000  0.5456780000000  0.4856770000000 1.0
C      1  0.5672140000000  0.4334540000000  0.4866720000000 1.0
C      1  0.4608860000000  0.4166740000000  0.4865550000000 1.0
C      1  0.5903140000000  0.5180620000000  0.4782490000000 1.0
C      1  0.5164520000000  0.5921640000000  0.4860730000000 1.0
C      1  0.4243040000000  0.5456680000000  0.4856560000000 1.0
C      1  0.4327650000000  0.4334220000000  0.4866890000000 1.0
C      1  0.5391050000000  0.4166600000000  0.4865620000000 1.0
C      1  0.5616560000000  0.5396910000000  0.4564860000000 1.0
C      1  0.5544100000000  0.4435260000000  0.4580880000000 1.0
C      1  0.4712540000000  0.4232720000000  0.4558090000000 1.0
C      1  0.4224700000000  0.5118670000000  0.4477550000000 1.0
C      1  0.4832630000000  0.5761140000000  0.4571760000000 1.0
C      1  0.4384040000000  0.5396310000000  0.4564930000000 1.0
C      1  0.4454960000000  0.4434880000000  0.4580650000000 1.0
C      1  0.5287030000000  0.4232500000000  0.4558150000000 1.0
C      1  0.5775300000000  0.5118870000000  0.4477690000000 1.0
C      1  0.5167620000000  0.5761300000000  0.4572060000000 1.0
C      1  0.4508530000000  0.5424410000000  0.5040520000000 1.0
C      1  0.5288150000000  0.5694420000000  0.5069240000000 1.0
C      1  0.5781030000000  0.4934540000000  0.4943070000000 1.0
C      1  0.5174150000000  0.4319240000000  0.5050770000000 1.0
C      1  0.4385510000000  0.4633660000000  0.4974100000000 1.0
C      1  0.5491830000000  0.5424630000000  0.5040880000000 1.0
C      1  0.4711860000000  0.5694330000000  0.5068890000000 1.0
C      1  0.4218970000000  0.4934530000000  0.4943050000000 1.0
C      1  0.4825770000000  0.4319320000000  0.5050770000000 1.0
C      1  0.5613890000000  0.4634030000000  0.4973670000000 1.0
END
