TITL C-21449-9478-34 -0.000999271684601654 125000 -311.816996221052 0 0 60 (C2) n - 1
REM
REM in /home/nfs/bkarasulu/CARBON/AIRSS/Generating-Clusters/TERSOFF/Higher-Symm/Only-C60
REM
REM
REM
REM
REM
REM ./C.cell (28575a23ae977d3b5fae324c64b13b57)
REM
REM compiler GCC version 9.2.1 20190827 (Red Hat 9.2.1-1)
REM options -cpp -mtune=generic -march=x86-64 -g -O0 -fpre-include=/usr/include/finclude/math-vector-fortran.h
REM seed 428154632 1801255317 939607734 -222979854 -609414439 -1025849151 -1871940823 -739956204 554700488 1327005777 1994928055 -792879833 -1797251707 -1248897136 -541718797 -1365571664 1038520391 -316847583 1481105949 -1128137056 -236622954 -116140610 69433501 -1487225989 1942960207 2073438968 921838218 2192653 194388691 -994251657 -1902204296 825434083 1691419329
REM
CELL 1.54180   50.00000   50.00000   50.00000   90.00000   90.00000   90.00000
LATT -1
SFAC C  
C      1  0.4387510000000  0.4857070000000  0.4478140000000 1.0
C      1  0.4416900000000  0.5172160000000  0.4515580000000 1.0
C      1  0.4338230000000  0.5388980000000  0.4746730000000 1.0
C      1  0.4449680000000  0.5466360000000  0.5037210000000 1.0
C      1  0.4354900000000  0.5400520000000  0.5331540000000 1.0
C      1  0.4387530000000  0.5142890000000  0.5521870000000 1.0
C      1  0.4416890000000  0.4827840000000  0.5484420000000 1.0
C      1  0.4338250000000  0.4611020000000  0.5253310000000 1.0
C      1  0.4449690000000  0.4533660000000  0.4962590000000 1.0
C      1  0.4354910000000  0.4599520000000  0.4668460000000 1.0
C      1  0.5348520000000  0.4694170000000  0.5710390000000 1.0
C      1  0.5268970000000  0.4356000000000  0.5393360000000 1.0
C      1  0.5441970000000  0.4251940000000  0.4885810000000 1.0
C      1  0.5304370000000  0.4514790000000  0.4589020000000 1.0
C      1  0.5353520000000  0.4837440000000  0.4282560000000 1.0
C      1  0.5348500000000  0.5305870000000  0.4289610000000 1.0
C      1  0.5268980000000  0.5644020000000  0.4606620000000 1.0
C      1  0.5441970000000  0.5748070000000  0.5114240000000 1.0
C      1  0.5304340000000  0.5485070000000  0.5410910000000 1.0
C      1  0.5353500000000  0.5162420000000  0.5717550000000 1.0
C      1  0.4724950000000  0.5139690000000  0.5536920000000 1.0
C      1  0.4741090000000  0.4815350000000  0.5502970000000 1.0
C      1  0.4692720000000  0.4568590000000  0.5302990000000 1.0
C      1  0.4772960000000  0.4531740000000  0.4965100000000 1.0
C      1  0.4711190000000  0.4585360000000  0.4638680000000 1.0
C      1  0.4724920000000  0.4860300000000  0.4463070000000 1.0
C      1  0.4741150000000  0.5184670000000  0.4497040000000 1.0
C      1  0.4692650000000  0.5431430000000  0.4697130000000 1.0
C      1  0.4772930000000  0.5468240000000  0.5034930000000 1.0
C      1  0.4711180000000  0.5414610000000  0.5361410000000 1.0
C      1  0.5045400000000  0.4210950000000  0.5233820000000 1.0
C      1  0.5156330000000  0.4259250000000  0.4732900000000 1.0
C      1  0.5149770000000  0.4576340000000  0.4313840000000 1.0
C      1  0.5140110000000  0.5063460000000  0.4159210000000 1.0
C      1  0.5101790000000  0.5548370000000  0.4339380000000 1.0
C      1  0.5045450000000  0.5789100000000  0.4766220000000 1.0
C      1  0.5156410000000  0.5740690000000  0.5267160000000 1.0
C      1  0.5149780000000  0.5423810000000  0.5686090000000 1.0
C      1  0.5140120000000  0.4936620000000  0.5840810000000 1.0
C      1  0.5101780000000  0.4451630000000  0.5660590000000 1.0
C      1  0.4930200000000  0.5279020000000  0.4284400000000 1.0
C      1  0.4852640000000  0.5657850000000  0.4555810000000 1.0
C      1  0.4974150000000  0.5694040000000  0.5029640000000 1.0
C      1  0.4914140000000  0.5607390000000  0.5501160000000 1.0
C      1  0.4936310000000  0.5189560000000  0.5749240000000 1.0
C      1  0.4930210000000  0.4721030000000  0.5715640000000 1.0
C      1  0.4852620000000  0.4342120000000  0.5444150000000 1.0
C      1  0.4974220000000  0.4305990000000  0.4970360000000 1.0
C      1  0.4914080000000  0.4392690000000  0.4498840000000 1.0
C      1  0.4936340000000  0.4810270000000  0.4250770000000 1.0
C      1  0.5511510000000  0.5078810000000  0.5477520000000 1.0
C      1  0.5524800000000  0.4773670000000  0.5468970000000 1.0
C      1  0.5451980000000  0.4553510000000  0.5272200000000 1.0
C      1  0.5539100000000  0.4518710000000  0.4989060000000 1.0
C      1  0.5464320000000  0.4721860000000  0.4754130000000 1.0
C      1  0.5511500000000  0.4921240000000  0.4522480000000 1.0
C      1  0.5524830000000  0.5226290000000  0.4531060000000 1.0
C      1  0.5452020000000  0.5446330000000  0.4727730000000 1.0
C      1  0.5539090000000  0.5481370000000  0.5010940000000 1.0
C      1  0.5464140000000  0.5278270000000  0.5245730000000 1.0
END
