TITL C-21452-6160-32 -0.00204981648588947 125000 -349.932380983416 0 0 60 (C1) n - 1
REM
REM in /home/nfs/bkarasulu/CARBON/AIRSS/Generating-Clusters/TERSOFF/Higher-Symm/Only-C60
REM
REM
REM
REM
REM
REM ./C.cell (28575a23ae977d3b5fae324c64b13b57)
REM
REM compiler GCC version 9.2.1 20190827 (Red Hat 9.2.1-1)
REM options -cpp -mtune=generic -march=x86-64 -g -O0 -fpre-include=/usr/include/finclude/math-vector-fortran.h
REM seed -399500338 -1044207931 -2111477330 -1204169824 540289053 596436322 1923436924 -1947267183 710874720 -36061030 -180319985 -58609737 1341785864 1952146215 129543454 1211164795 615952721 1867403829 1294730643 -565665546 -800019643 -727142149 1137356503 2103855460 2067754261 1733278062 1563455804 337149818 -1983039762 -532005099 1977613064 -925233677 800141308
REM
CELL 1.54180   50.00000   50.00000   50.00000   90.00000   90.00000   90.00000
LATT -1
SFAC C  
C      1  0.4774730000000  0.5107020000000  0.5576880000000 1.0
C      1  0.5100660000000  0.4735300000000  0.5324530000000 1.0
C      1  0.4778030000000  0.4996560000000  0.4261490000000 1.0
C      1  0.5122240000000  0.4798350000000  0.4559410000000 1.0
C      1  0.5429680000000  0.4432710000000  0.5093470000000 1.0
C      1  0.4602860000000  0.4786080000000  0.5368080000000 1.0
C      1  0.4854820000000  0.5476920000000  0.5377320000000 1.0
C      1  0.4495180000000  0.5533400000000  0.5034190000000 1.0
C      1  0.4733010000000  0.4526020000000  0.4526760000000 1.0
C      1  0.5638870000000  0.5123660000000  0.4810880000000 1.0
C      1  0.4879200000000  0.5129140000000  0.5011120000000 1.0
C      1  0.4695220000000  0.5540960000000  0.4798440000000 1.0
C      1  0.4485410000000  0.5109550000000  0.4691570000000 1.0
C      1  0.4561790000000  0.5434200000000  0.5310500000000 1.0
C      1  0.5059930000000  0.4896550000000  0.4863440000000 1.0
C      1  0.4339540000000  0.5038450000000  0.5160580000000 1.0
C      1  0.4991340000000  0.5858190000000  0.5054160000000 1.0
C      1  0.4848010000000  0.4654250000000  0.5511730000000 1.0
C      1  0.4908070000000  0.4870890000000  0.5723630000000 1.0
C      1  0.4960970000000  0.4368690000000  0.4697120000000 1.0
C      1  0.5084430000000  0.5401300000000  0.4377050000000 1.0
C      1  0.5406700000000  0.5251690000000  0.4666950000000 1.0
C      1  0.4902100000000  0.5776110000000  0.4772650000000 1.0
C      1  0.4611780000000  0.5347380000000  0.4567040000000 1.0
C      1  0.4943910000000  0.4403240000000  0.4989160000000 1.0
C      1  0.5677100000000  0.5326260000000  0.5034680000000 1.0
C      1  0.5347170000000  0.4909500000000  0.4404740000000 1.0
C      1  0.5447710000000  0.5519470000000  0.5033040000000 1.0
C      1  0.4469810000000  0.4605150000000  0.4644150000000 1.0
C      1  0.4951610000000  0.4689630000000  0.5057990000000 1.0
C      1  0.4577680000000  0.5056770000000  0.4961160000000 1.0
C      1  0.4389370000000  0.4874600000000  0.4549520000000 1.0
C      1  0.4924110000000  0.5189280000000  0.5318270000000 1.0
C      1  0.4762310000000  0.4255230000000  0.5174410000000 1.0
C      1  0.4809640000000  0.4352780000000  0.5456950000000 1.0
C      1  0.5419490000000  0.5229750000000  0.5460850000000 1.0
C      1  0.4882750000000  0.4760760000000  0.4403030000000 1.0
C      1  0.4490400000000  0.4295380000000  0.5066550000000 1.0
C      1  0.5187230000000  0.4895100000000  0.5829560000000 1.0
C      1  0.4809480000000  0.5276230000000  0.4359780000000 1.0
C      1  0.5711840000000  0.4882010000000  0.5252320000000 1.0
C      1  0.5505430000000  0.4574600000000  0.4822040000000 1.0
C      1  0.5428910000000  0.4956720000000  0.5662970000000 1.0
C      1  0.5341270000000  0.5206890000000  0.4384410000000 1.0
C      1  0.5054750000000  0.5663180000000  0.5279830000000 1.0
C      1  0.4946980000000  0.5373950000000  0.4884050000000 1.0
C      1  0.5645500000000  0.4844890000000  0.4948700000000 1.0
C      1  0.5329700000000  0.5540580000000  0.5300500000000 1.0
C      1  0.5568250000000  0.4748730000000  0.4535420000000 1.0
C      1  0.5681440000000  0.5177980000000  0.5293590000000 1.0
C      1  0.5226280000000  0.4525220000000  0.4639010000000 1.0
C      1  0.5348910000000  0.4575840000000  0.5338410000000 1.0
C      1  0.4468100000000  0.5112080000000  0.5446690000000 1.0
C      1  0.5550790000000  0.4744610000000  0.5466570000000 1.0
C      1  0.4224930000000  0.4763000000000  0.5096130000000 1.0
C      1  0.4644050000000  0.4762950000000  0.5072070000000 1.0
C      1  0.5125810000000  0.5649880000000  0.4589560000000 1.0
C      1  0.4427090000000  0.4561000000000  0.4947460000000 1.0
C      1  0.5168200000000  0.5047310000000  0.5347310000000 1.0
C      1  0.5247400000000  0.5456090000000  0.4810160000000 1.0
END
