TITL C-21446-9947-31 -0.00466773369800084 125000 -350.557843127153 0 0 60 (Ci) n - 1
REM
REM in /home/nfs/bkarasulu/CARBON/AIRSS/Generating-Clusters/TERSOFF/Higher-Symm/Only-C60
REM
REM
REM
REM
REM
REM ./C.cell (28575a23ae977d3b5fae324c64b13b57)
REM
REM compiler GCC version 9.2.1 20190827 (Red Hat 9.2.1-1)
REM options -cpp -mtune=generic -march=x86-64 -g -O0 -fpre-include=/usr/include/finclude/math-vector-fortran.h
REM seed 524168116 -824682730 -1591467424 -1621990036 29485630 -137597946 -148139355 1458593430 1991394639 -879693868 1628313694 1665978069 -179039184 -402147324 -1645717999 301024765 -136905686 1765776041 653633350 1863689230 1202668043 700403365 659893976 875733608 2000839826 991258251 426114268 1462581583 -1391514503 -527815305 1512860630 -750309775 -990894554
REM
CELL 1.54180   50.00000   50.00000   50.00000   90.00000   90.00000   90.00000
LATT -1
SFAC C  
C      1  0.5313810000000  0.5328690000000  0.5134150000000 1.0
C      1  0.4684120000000  0.5278590000000  0.4792920000000 1.0
C      1  0.5329440000000  0.4956230000000  0.4670090000000 1.0
C      1  0.4686220000000  0.4671240000000  0.4865960000000 1.0
C      1  0.5315890000000  0.4721310000000  0.5206840000000 1.0
C      1  0.4670580000000  0.5043840000000  0.5329920000000 1.0
C      1  0.4605510000000  0.5350660000000  0.4508610000000 1.0
C      1  0.5403790000000  0.4759080000000  0.4445840000000 1.0
C      1  0.4616660000000  0.4371720000000  0.4909990000000 1.0
C      1  0.5394520000000  0.4649330000000  0.5491480000000 1.0
C      1  0.4596190000000  0.5240910000000  0.5554150000000 1.0
C      1  0.5383320000000  0.5628280000000  0.5089980000000 1.0
C      1  0.5457330000000  0.4591250000000  0.4999340000000 1.0
C      1  0.4513920000000  0.4798960000000  0.5301000000000 1.0
C      1  0.5496280000000  0.5160160000000  0.5294120000000 1.0
C      1  0.4542690000000  0.5408820000000  0.5000820000000 1.0
C      1  0.5486070000000  0.5200980000000  0.4698990000000 1.0
C      1  0.4503760000000  0.4839870000000  0.4705860000000 1.0
C      1  0.4728500000000  0.4852430000000  0.4484040000000 1.0
C      1  0.5274860000000  0.4415230000000  0.4840190000000 1.0
C      1  0.4722030000000  0.4595770000000  0.5391580000000 1.0
C      1  0.5271480000000  0.5147580000000  0.5515910000000 1.0
C      1  0.4725100000000  0.5584790000000  0.5159820000000 1.0
C      1  0.5277970000000  0.5404250000000  0.4608410000000 1.0
C      1  0.4312870000000  0.5249380000000  0.5407220000000 1.0
C      1  0.5673610000000  0.5520080000000  0.5033830000000 1.0
C      1  0.4319200000000  0.5209300000000  0.4597000000000 1.0
C      1  0.5687100000000  0.4750610000000  0.4592780000000 1.0
C      1  0.4326360000000  0.4479900000000  0.4966170000000 1.0
C      1  0.5680850000000  0.4790700000000  0.5403030000000 1.0
C      1  0.4952750000000  0.4750420000000  0.4896250000000 1.0
C      1  0.5046850000000  0.4787610000000  0.5162170000000 1.0
C      1  0.4946910000000  0.5034730000000  0.5264280000000 1.0
C      1  0.5047260000000  0.5249680000000  0.5103500000000 1.0
C      1  0.4953140000000  0.5212560000000  0.4838190000000 1.0
C      1  0.5053070000000  0.4964980000000  0.4735760000000 1.0
C      1  0.5274340000000  0.4349740000000  0.5396900000000 1.0
C      1  0.4718050000000  0.5010870000000  0.5745570000000 1.0
C      1  0.5262000000000  0.5663060000000  0.5382470000000 1.0
C      1  0.4725670000000  0.5650290000000  0.4603070000000 1.0
C      1  0.5281960000000  0.4989130000000  0.4254440000000 1.0
C      1  0.4737970000000  0.4336950000000  0.4617480000000 1.0
C      1  0.5182760000000  0.5596140000000  0.4835240000000 1.0
C      1  0.4818540000000  0.5137160000000  0.4414230000000 1.0
C      1  0.5190930000000  0.4554140000000  0.4572870000000 1.0
C      1  0.4817250000000  0.4403880000000  0.5164740000000 1.0
C      1  0.5181460000000  0.4862860000000  0.5585740000000 1.0
C      1  0.4809050000000  0.5445870000000  0.5427130000000 1.0
C      1  0.5108270000000  0.4339630000000  0.5135650000000 1.0
C      1  0.4888750000000  0.4792200000000  0.5617280000000 1.0
C      1  0.5102860000000  0.5431840000000  0.5499520000000 1.0
C      1  0.4891740000000  0.5660400000000  0.4864320000000 1.0
C      1  0.5111250000000  0.5207820000000  0.4382700000000 1.0
C      1  0.4897120000000  0.4568180000000  0.4500460000000 1.0
C      1  0.5676410000000  0.5244060000000  0.4921720000000 1.0
C      1  0.4274790000000  0.5025880000000  0.4884250000000 1.0
C      1  0.5686940000000  0.4732290000000  0.4891400000000 1.0
C      1  0.4323570000000  0.4755930000000  0.5078280000000 1.0
C      1  0.5725240000000  0.4974090000000  0.5115780000000 1.0
C      1  0.4313080000000  0.5267670000000  0.5108570000000 1.0
END
