TITL C-21450-4084-5 -7.26518292345296e-08 125000 -248.493981694078 0 0 60 (Td) n - 1
REM
REM in /home/nfs/bkarasulu/CARBON/AIRSS/Generating-Clusters/TERSOFF/Higher-Symm/Only-C60
REM
REM
REM
REM
REM
REM ./C.cell (28575a23ae977d3b5fae324c64b13b57)
REM
REM compiler GCC version 9.2.1 20190827 (Red Hat 9.2.1-1)
REM options -cpp -mtune=generic -march=x86-64 -g -O0 -fpre-include=/usr/include/finclude/math-vector-fortran.h
REM seed -1102903246 -1222153082 -706181243 236772182 -626831449 -1347367615 -1850548220 895639918 -387924094 -766243367 1501770409 1171791509 702579146 -694261096 -1633190974 142995483 1522946931 -528515379 1497440622 1196293004 518335622 -1016177980 826815449 -1696537474 1981581272 -1708947178 1698645206 1396531679 1030511436 -1345459722 1953002543 -1626747823 -543896761
REM
CELL 1.54180   50.00000   50.00000   50.00000   90.00000   90.00000   90.00000
LATT -1
SFAC C  
C      1  0.4165600000000  0.5324650000000  0.4903360000000 1.0
C      1  0.5324650000000  0.4903360000000  0.4165600000000 1.0
C      1  0.4903360000000  0.4165600000000  0.5324650000000 1.0
C      1  0.5834400000000  0.4675350000000  0.4903360000000 1.0
C      1  0.4165600000000  0.4675350000000  0.5096640000000 1.0
C      1  0.5834400000000  0.5324650000000  0.5096640000000 1.0
C      1  0.4675350000000  0.5096640000000  0.4165600000000 1.0
C      1  0.5324650000000  0.5096640000000  0.5834400000000 1.0
C      1  0.4675350000000  0.4903360000000  0.5834400000000 1.0
C      1  0.5096640000000  0.5834400000000  0.5324650000000 1.0
C      1  0.4903360000000  0.5834400000000  0.4675350000000 1.0
C      1  0.5096640000000  0.4165600000000  0.4675350000000 1.0
C      1  0.5324650000000  0.4165600000000  0.4903360000000 1.0
C      1  0.4903360000000  0.5324650000000  0.4165600000000 1.0
C      1  0.4165600000000  0.4903360000000  0.5324650000000 1.0
C      1  0.4675350000000  0.5834400000000  0.4903360000000 1.0
C      1  0.4675350000000  0.4165600000000  0.5096640000000 1.0
C      1  0.5324650000000  0.5834400000000  0.5096640000000 1.0
C      1  0.5096640000000  0.4675350000000  0.4165600000000 1.0
C      1  0.5096640000000  0.5324650000000  0.5834400000000 1.0
C      1  0.4903360000000  0.4675350000000  0.5834400000000 1.0
C      1  0.5834400000000  0.5096640000000  0.5324650000000 1.0
C      1  0.5834400000000  0.4903360000000  0.4675350000000 1.0
C      1  0.4165600000000  0.5096640000000  0.4675350000000 1.0
C      1  0.4944900000000  0.4513800000000  0.5280120000000 1.0
C      1  0.4513800000000  0.5280120000000  0.4944900000000 1.0
C      1  0.5280120000000  0.4944900000000  0.4513800000000 1.0
C      1  0.5055100000000  0.5486200000000  0.5280120000000 1.0
C      1  0.4944900000000  0.5486200000000  0.4719880000000 1.0
C      1  0.5055100000000  0.4513800000000  0.4719880000000 1.0
C      1  0.5486200000000  0.4719880000000  0.4944900000000 1.0
C      1  0.4513800000000  0.4719880000000  0.5055100000000 1.0
C      1  0.5486200000000  0.5280120000000  0.5055100000000 1.0
C      1  0.4719880000000  0.5055100000000  0.4513800000000 1.0
C      1  0.5280120000000  0.5055100000000  0.5486200000000 1.0
C      1  0.4719880000000  0.4944900000000  0.5486200000000 1.0
C      1  0.4513800000000  0.4944900000000  0.5280120000000 1.0
C      1  0.5280120000000  0.4513800000000  0.4944900000000 1.0
C      1  0.4944900000000  0.5280120000000  0.4513800000000 1.0
C      1  0.5486200000000  0.5055100000000  0.5280120000000 1.0
C      1  0.5486200000000  0.4944900000000  0.4719880000000 1.0
C      1  0.4513800000000  0.5055100000000  0.4719880000000 1.0
C      1  0.4719880000000  0.5486200000000  0.4944900000000 1.0
C      1  0.4719880000000  0.4513800000000  0.5055100000000 1.0
C      1  0.5280120000000  0.5486200000000  0.5055100000000 1.0
C      1  0.5055100000000  0.4719880000000  0.4513800000000 1.0
C      1  0.5055100000000  0.5280120000000  0.5486200000000 1.0
C      1  0.4944900000000  0.4719880000000  0.5486200000000 1.0
C      1  0.5706080000000  0.5220190000000  0.4779810000000 1.0
C      1  0.5220190000000  0.4779810000000  0.5706080000000 1.0
C      1  0.4779810000000  0.5706080000000  0.5220190000000 1.0
C      1  0.4293920000000  0.4779810000000  0.4779810000000 1.0
C      1  0.5706080000000  0.4779810000000  0.5220190000000 1.0
C      1  0.4293920000000  0.5220190000000  0.5220190000000 1.0
C      1  0.4779810000000  0.5220190000000  0.5706080000000 1.0
C      1  0.5220190000000  0.5220190000000  0.4293920000000 1.0
C      1  0.4779810000000  0.4779810000000  0.4293920000000 1.0
C      1  0.5220190000000  0.4293920000000  0.5220190000000 1.0
C      1  0.4779810000000  0.4293920000000  0.4779810000000 1.0
C      1  0.5220190000000  0.5706080000000  0.4779810000000 1.0
END
