TITL C-21448-1263-6 1.6032182441498e-08 125000 -391.680477006173 0 0 60 (C6h) n - 1
REM
REM in /home/nfs/bkarasulu/CARBON/AIRSS/Generating-Clusters/TERSOFF/Higher-Symm/Only-C60
REM
REM
REM
REM
REM
REM ./C.cell (28575a23ae977d3b5fae324c64b13b57)
REM
REM compiler GCC version 9.2.1 20190827 (Red Hat 9.2.1-1)
REM options -cpp -mtune=generic -march=x86-64 -g -O0 -fpre-include=/usr/include/finclude/math-vector-fortran.h
REM seed -791290085 1211639297 -789543914 -646710350 1077136511 -1368042136 967275520 2142410553 1391794439 1774891194 856526113 -1531722625 -1263805687 138451247 -1374620943 -157016594 1943152071 407905022 -1552596140 2114672267 -1856521762 -1429860881 1102131323 1944772319 1766015925 1273477349 -1833119199 1895481144 936937675 384489862 2099380562 -1828964393 -549850842
REM
CELL 1.54180   50.00000   50.00000   50.00000   90.00000   90.00000   90.00000
LATT -1
SFAC C  
C      1  0.4700880000000  0.5000000000000  0.5435740000000 1.0
C      1  0.5149560000000  0.5259050000000  0.5435740000000 1.0
C      1  0.5149560000000  0.4740960000000  0.5435740000000 1.0
C      1  0.4700880000000  0.5000000000000  0.4564260000000 1.0
C      1  0.5149560000000  0.4740950000000  0.4564260000000 1.0
C      1  0.5149560000000  0.5259040000000  0.4564260000000 1.0
C      1  0.5299120000000  0.5000000000000  0.4564260000000 1.0
C      1  0.4850440000000  0.4740950000000  0.4564260000000 1.0
C      1  0.4850440000000  0.5259040000000  0.4564260000000 1.0
C      1  0.5299120000000  0.5000000000000  0.5435740000000 1.0
C      1  0.4850440000000  0.5259050000000  0.5435740000000 1.0
C      1  0.4850440000000  0.4740960000000  0.5435740000000 1.0
C      1  0.5246660000000  0.4153050000000  0.5000000000000 1.0
C      1  0.4143190000000  0.5209860000000  0.5000000000000 1.0
C      1  0.5610150000000  0.5637090000000  0.5000000000000 1.0
C      1  0.5246660000000  0.5846950000000  0.5000000000000 1.0
C      1  0.4143190000000  0.4790140000000  0.5000000000000 1.0
C      1  0.5610150000000  0.4362910000000  0.5000000000000 1.0
C      1  0.4753340000000  0.5846950000000  0.5000000000000 1.0
C      1  0.5856810000000  0.4790140000000  0.5000000000000 1.0
C      1  0.4389850000000  0.4362910000000  0.5000000000000 1.0
C      1  0.4753340000000  0.4153050000000  0.5000000000000 1.0
C      1  0.5856810000000  0.5209860000000  0.5000000000000 1.0
C      1  0.4389850000000  0.5637090000000  0.5000000000000 1.0
C      1  0.4286360000000  0.4756910000000  0.4743800000000 1.0
C      1  0.5146300000000  0.5739570000000  0.4743790000000 1.0
C      1  0.5567340000000  0.4503510000000  0.4743800000000 1.0
C      1  0.4286360000000  0.5243090000000  0.5256200000000 1.0
C      1  0.5146300000000  0.4260430000000  0.5256210000000 1.0
C      1  0.5567340000000  0.5496490000000  0.5256200000000 1.0
C      1  0.5713640000000  0.5243090000000  0.5256200000000 1.0
C      1  0.4853700000000  0.4260430000000  0.5256210000000 1.0
C      1  0.4432660000000  0.5496490000000  0.5256200000000 1.0
C      1  0.5713640000000  0.4756910000000  0.4743800000000 1.0
C      1  0.4853700000000  0.5739570000000  0.4743790000000 1.0
C      1  0.4432660000000  0.4503510000000  0.4743800000000 1.0
C      1  0.4286360000000  0.5243090000000  0.4743800000000 1.0
C      1  0.5567340000000  0.5496480000000  0.4743790000000 1.0
C      1  0.5146300000000  0.4260420000000  0.4743800000000 1.0
C      1  0.4286360000000  0.4756910000000  0.5256200000000 1.0
C      1  0.5567340000000  0.4503520000000  0.5256210000000 1.0
C      1  0.5146300000000  0.5739580000000  0.5256200000000 1.0
C      1  0.5713640000000  0.4756910000000  0.5256200000000 1.0
C      1  0.4432660000000  0.4503520000000  0.5256210000000 1.0
C      1  0.4853700000000  0.5739580000000  0.5256200000000 1.0
C      1  0.5713640000000  0.5243090000000  0.4743800000000 1.0
C      1  0.4432660000000  0.5496480000000  0.4743790000000 1.0
C      1  0.4853700000000  0.4260420000000  0.4743800000000 1.0
C      1  0.5294870000000  0.5510740000000  0.5365490000000 1.0
C      1  0.5294870000000  0.4489270000000  0.5365490000000 1.0
C      1  0.4410250000000  0.5000000000000  0.5365490000000 1.0
C      1  0.5294870000000  0.4489260000000  0.4634510000000 1.0
C      1  0.5294870000000  0.5510730000000  0.4634510000000 1.0
C      1  0.4410250000000  0.5000000000000  0.4634510000000 1.0
C      1  0.4705130000000  0.4489260000000  0.4634510000000 1.0
C      1  0.4705130000000  0.5510730000000  0.4634510000000 1.0
C      1  0.5589750000000  0.5000000000000  0.4634510000000 1.0
C      1  0.4705130000000  0.5510740000000  0.5365490000000 1.0
C      1  0.4705130000000  0.4489270000000  0.5365490000000 1.0
C      1  0.5589750000000  0.5000000000000  0.5365490000000 1.0
END
