TITL C-21448-1263-35 0.000637408951611625 125000 -321.0766548907 0 0 60 (C3) n - 1
REM
REM in /home/nfs/bkarasulu/CARBON/AIRSS/Generating-Clusters/TERSOFF/Higher-Symm/Only-C60
REM
REM
REM
REM
REM
REM ./C.cell (28575a23ae977d3b5fae324c64b13b57)
REM
REM compiler GCC version 9.2.1 20190827 (Red Hat 9.2.1-1)
REM options -cpp -mtune=generic -march=x86-64 -g -O0 -fpre-include=/usr/include/finclude/math-vector-fortran.h
REM seed -709186623 467708732 125020605 -595650959 57992560 -1195827987 -949785699 -1352418815 154021983 -507270082 -1244212203 11810158 1253939712 -266521313 2140301120 879465281 -346890903 -1699926088 -1963659165 -311097588 -541892624 -1068799115 1865265625 2143627161 -1725692683 807396343 -1171676316 1106384327 696004226 -1913072547 1533982776 1680112477 -246703123
REM
CELL 1.54180   50.00000   50.00000   50.00000   90.00000   90.00000   90.00000
LATT -1
SFAC C  
C      1  0.4822090000000  0.4915050000000  0.5189330000000 1.0
C      1  0.4824770000000  0.5206140000000  0.4976660000000 1.0
C      1  0.4822280000000  0.4877090000000  0.4831480000000 1.0
C      1  0.5597160000000  0.4603910000000  0.5187600000000 1.0
C      1  0.5596380000000  0.5360570000000  0.5249170000000 1.0
C      1  0.5596740000000  0.5035530000000  0.4563380000000 1.0
C      1  0.5260230000000  0.4502640000000  0.5514650000000 1.0
C      1  0.5260260000000  0.5693890000000  0.5173700000000 1.0
C      1  0.5260430000000  0.4802960000000  0.4312340000000 1.0
C      1  0.5620150000000  0.5476370000000  0.4950850000000 1.0
C      1  0.5620720000000  0.4719630000000  0.4612680000000 1.0
C      1  0.5620860000000  0.4804560000000  0.5437080000000 1.0
C      1  0.5173350000000  0.5050790000000  0.4681910000000 1.0
C      1  0.5173610000000  0.4698930000000  0.5114480000000 1.0
C      1  0.5174680000000  0.5248900000000  0.5203610000000 1.0
C      1  0.5295110000000  0.5612180000000  0.4875660000000 1.0
C      1  0.5294920000000  0.4586150000000  0.4532730000000 1.0
C      1  0.5294850000000  0.4802080000000  0.5591910000000 1.0
C      1  0.4873970000000  0.5036610000000  0.4544730000000 1.0
C      1  0.4874330000000  0.4587480000000  0.5195700000000 1.0
C      1  0.4874580000000  0.5376460000000  0.5259700000000 1.0
C      1  0.4326210000000  0.5117480000000  0.4723480000000 1.0
C      1  0.4326340000000  0.4702400000000  0.5036390000000 1.0
C      1  0.4326650000000  0.5181180000000  0.5239430000000 1.0
C      1  0.4784460000000  0.4989850000000  0.5505680000000 1.0
C      1  0.4785630000000  0.5442890000000  0.4755970000000 1.0
C      1  0.4785190000000  0.4565540000000  0.4738150000000 1.0
C      1  0.5334210000000  0.5472140000000  0.5368810000000 1.0
C      1  0.5334520000000  0.5083550000000  0.4405930000000 1.0
C      1  0.5335310000000  0.4443390000000  0.5225170000000 1.0
C      1  0.5239950000000  0.5339430000000  0.4288780000000 1.0
C      1  0.5241680000000  0.4213450000000  0.5062660000000 1.0
C      1  0.5241930000000  0.5447340000000  0.5649290000000 1.0
C      1  0.4450170000000  0.4433650000000  0.5054600000000 1.0
C      1  0.4450890000000  0.5331070000000  0.5462980000000 1.0
C      1  0.4450270000000  0.5235990000000  0.4481890000000 1.0
C      1  0.5041150000000  0.5630550000000  0.4694390000000 1.0
C      1  0.5041170000000  0.4419350000000  0.4607790000000 1.0
C      1  0.5040020000000  0.4950970000000  0.5697870000000 1.0
C      1  0.5012350000000  0.4237930000000  0.4879040000000 1.0
C      1  0.5012480000000  0.5276920000000  0.5721510000000 1.0
C      1  0.5010870000000  0.5485730000000  0.4402660000000 1.0
C      1  0.4347200000000  0.4819540000000  0.4761010000000 1.0
C      1  0.4346820000000  0.4883770000000  0.5275720000000 1.0
C      1  0.4347100000000  0.5297740000000  0.4962610000000 1.0
C      1  0.4534150000000  0.4662200000000  0.4575000000000 1.0
C      1  0.4533310000000  0.4800870000000  0.5505190000000 1.0
C      1  0.4534400000000  0.5537390000000  0.4919010000000 1.0
C      1  0.4712230000000  0.4825510000000  0.4399140000000 1.0
C      1  0.4712370000000  0.4567150000000  0.5451680000000 1.0
C      1  0.4713100000000  0.5608360000000  0.5148240000000 1.0
C      1  0.5569250000000  0.5189900000000  0.4823620000000 1.0
C      1  0.5569130000000  0.4752300000000  0.4924370000000 1.0
C      1  0.5569150000000  0.5058090000000  0.5252470000000 1.0
C      1  0.5255240000000  0.5274560000000  0.4900410000000 1.0
C      1  0.5255880000000  0.4776450000000  0.4811560000000 1.0
C      1  0.5255920000000  0.4948310000000  0.5287500000000 1.0
C      1  0.4747250000000  0.4400560000000  0.4996400000000 1.0
C      1  0.4747560000000  0.5295930000000  0.5520680000000 1.0
C      1  0.4747030000000  0.5302700000000  0.4483600000000 1.0
END
