TITL C-21452-6160-31 -0.000379573277210844 125000 -327.719106996989 0 0 60 (C1) n - 1
REM
REM in /home/nfs/bkarasulu/CARBON/AIRSS/Generating-Clusters/TERSOFF/Higher-Symm/Only-C60
REM
REM
REM
REM
REM
REM ./C.cell (28575a23ae977d3b5fae324c64b13b57)
REM
REM compiler GCC version 9.2.1 20190827 (Red Hat 9.2.1-1)
REM options -cpp -mtune=generic -march=x86-64 -g -O0 -fpre-include=/usr/include/finclude/math-vector-fortran.h
REM seed 1597162157 -221033251 -1785785043 1738471675 -1565460077 -356865893 -1748618909 -1480096726 -826394266 414359557 623493968 -992498470 -292028147 1885500138 1413514663 -2098277285 1112029016 303963631 817266430 1189784888 -1243615406 643698326 -570365798 1326642235 211268421 687728812 982384766 -1306100609 820841348 -323140107 2115360441 1597991712 -1729403659
REM
CELL 1.54180   50.00000   50.00000   50.00000   90.00000   90.00000   90.00000
LATT -1
SFAC C  
C      1  0.4719920000000  0.4509380000000  0.4625790000000 1.0
C      1  0.4832660000000  0.4476550000000  0.5537020000000 1.0
C      1  0.4878180000000  0.5312150000000  0.4395380000000 1.0
C      1  0.5490310000000  0.5129010000000  0.4663580000000 1.0
C      1  0.5708240000000  0.4779500000000  0.4826310000000 1.0
C      1  0.5252930000000  0.4967630000000  0.4809630000000 1.0
C      1  0.4583490000000  0.4947640000000  0.5581620000000 1.0
C      1  0.4572530000000  0.5327730000000  0.4406590000000 1.0
C      1  0.5526280000000  0.4999760000000  0.5368070000000 1.0
C      1  0.4837190000000  0.4768370000000  0.5626210000000 1.0
C      1  0.4670000000000  0.4384230000000  0.5301670000000 1.0
C      1  0.4605430000000  0.5343760000000  0.5185010000000 1.0
C      1  0.4768920000000  0.5746420000000  0.4932270000000 1.0
C      1  0.4815020000000  0.4919990000000  0.5233310000000 1.0
C      1  0.4977920000000  0.5160050000000  0.5245750000000 1.0
C      1  0.5203540000000  0.4984870000000  0.4202000000000 1.0
C      1  0.5230540000000  0.4372090000000  0.4761980000000 1.0
C      1  0.5108580000000  0.4251890000000  0.5017990000000 1.0
C      1  0.5156810000000  0.5418050000000  0.4815900000000 1.0
C      1  0.4621560000000  0.4380740000000  0.4884770000000 1.0
C      1  0.5232060000000  0.4650930000000  0.5192560000000 1.0
C      1  0.5206020000000  0.5195120000000  0.5035280000000 1.0
C      1  0.4549250000000  0.4762170000000  0.4687380000000 1.0
C      1  0.5674890000000  0.5127060000000  0.4919400000000 1.0
C      1  0.5389450000000  0.4732680000000  0.4947920000000 1.0
C      1  0.4956790000000  0.5007810000000  0.4381590000000 1.0
C      1  0.4448800000000  0.4571070000000  0.5139850000000 1.0
C      1  0.4954580000000  0.5326090000000  0.5511630000000 1.0
C      1  0.4816860000000  0.4225120000000  0.5058670000000 1.0
C      1  0.4715930000000  0.5621410000000  0.5332460000000 1.0
C      1  0.5313860000000  0.4741140000000  0.4374950000000 1.0
C      1  0.4306990000000  0.5325000000000  0.4881140000000 1.0
C      1  0.5562750000000  0.5624070000000  0.4546230000000 1.0
C      1  0.5070790000000  0.4554660000000  0.4570130000000 1.0
C      1  0.5115400000000  0.4901810000000  0.5627820000000 1.0
C      1  0.5374630000000  0.5399460000000  0.4566860000000 1.0
C      1  0.5400170000000  0.5351520000000  0.5619610000000 1.0
C      1  0.5200010000000  0.5656100000000  0.5257190000000 1.0
C      1  0.5236990000000  0.4360240000000  0.5264440000000 1.0
C      1  0.5528280000000  0.4462080000000  0.4787840000000 1.0
C      1  0.4934550000000  0.4706430000000  0.5081270000000 1.0
C      1  0.4786970000000  0.4889700000000  0.4816470000000 1.0
C      1  0.4468760000000  0.5211600000000  0.4655060000000 1.0
C      1  0.5496890000000  0.5212710000000  0.5163560000000 1.0
C      1  0.4983130000000  0.5620910000000  0.5453080000000 1.0
C      1  0.5074900000000  0.5654490000000  0.4977550000000 1.0
C      1  0.5090640000000  0.4334850000000  0.5518660000000 1.0
C      1  0.5437040000000  0.5467570000000  0.5337940000000 1.0
C      1  0.5312910000000  0.4817260000000  0.5425310000000 1.0
C      1  0.4654800000000  0.5235000000000  0.5503400000000 1.0
C      1  0.4903050000000  0.5336250000000  0.4700820000000 1.0
C      1  0.5147550000000  0.5198580000000  0.5693160000000 1.0
C      1  0.4482920000000  0.5572250000000  0.4987330000000 1.0
C      1  0.4705070000000  0.5185550000000  0.4875770000000 1.0
C      1  0.4339420000000  0.4767840000000  0.4905450000000 1.0
C      1  0.4273640000000  0.5059550000000  0.5049050000000 1.0
C      1  0.5564530000000  0.4856100000000  0.4511700000000 1.0
C      1  0.5015770000000  0.4871230000000  0.4640010000000 1.0
C      1  0.4498250000000  0.4896930000000  0.5271950000000 1.0
C      1  0.5214720000000  0.5329820000000  0.4308670000000 1.0
END
