TITL C-21446-9947-44 3.5188676767136e-08 125000 -278.36340898532 0 0 60 (Th) n - 1
REM
REM in /home/nfs/bkarasulu/CARBON/AIRSS/Generating-Clusters/TERSOFF/Higher-Symm/Only-C60
REM
REM
REM
REM
REM
REM ./C.cell (28575a23ae977d3b5fae324c64b13b57)
REM
REM compiler GCC version 9.2.1 20190827 (Red Hat 9.2.1-1)
REM options -cpp -mtune=generic -march=x86-64 -g -O0 -fpre-include=/usr/include/finclude/math-vector-fortran.h
REM seed -1687361372 -2134014219 -356546338 -2103231788 -265350286 929939413 -1889911437 -1920474254 -1181693030 704789320 -579433210 2107138181 -1942747238 2116879973 1156754944 1570453250 -626461095 -363655583 1181753352 1213459016 609737720 -1990802268 1261645071 1224244459 962536781 -507636588 31438132 688062342 -1315708323 -399679510 1083343010 -1084349008 657384882
REM
CELL 1.54180   50.00000   50.00000   50.00000   90.00000   90.00000   90.00000
LATT -1
SFAC C  
C      1  0.5271910000000  0.5385760000000  0.5560550000000 1.0
C      1  0.5385760000000  0.5560550000000  0.5271910000000 1.0
C      1  0.5560550000000  0.5271910000000  0.5385760000000 1.0
C      1  0.5271910000000  0.4614240000000  0.4439450000000 1.0
C      1  0.4728090000000  0.5385760000000  0.4439450000000 1.0
C      1  0.4728090000000  0.4614240000000  0.5560550000000 1.0
C      1  0.5385760000000  0.4439450000000  0.4728090000000 1.0
C      1  0.4614240000000  0.5560550000000  0.4728090000000 1.0
C      1  0.4614240000000  0.4439450000000  0.5271910000000 1.0
C      1  0.5560550000000  0.4728090000000  0.4614240000000 1.0
C      1  0.4439450000000  0.5271910000000  0.4614240000000 1.0
C      1  0.4439450000000  0.4728090000000  0.5385760000000 1.0
C      1  0.4728090000000  0.5385760000000  0.5560550000000 1.0
C      1  0.4614240000000  0.5560550000000  0.5271910000000 1.0
C      1  0.4439450000000  0.5271910000000  0.5385760000000 1.0
C      1  0.4728090000000  0.4614240000000  0.4439450000000 1.0
C      1  0.5271910000000  0.5385760000000  0.4439450000000 1.0
C      1  0.5271910000000  0.4614240000000  0.5560550000000 1.0
C      1  0.4614240000000  0.4439450000000  0.4728090000000 1.0
C      1  0.5385760000000  0.5560550000000  0.4728090000000 1.0
C      1  0.5385760000000  0.4439450000000  0.5271910000000 1.0
C      1  0.4439450000000  0.4728090000000  0.4614240000000 1.0
C      1  0.5560550000000  0.5271910000000  0.4614240000000 1.0
C      1  0.5560550000000  0.4728090000000  0.5385760000000 1.0
C      1  0.5159590000000  0.4837160000000  0.4249620000000 1.0
C      1  0.4837160000000  0.4249620000000  0.5159590000000 1.0
C      1  0.4249620000000  0.5159590000000  0.4837160000000 1.0
C      1  0.5159590000000  0.5162840000000  0.5750380000000 1.0
C      1  0.4840410000000  0.4837160000000  0.5750380000000 1.0
C      1  0.4840410000000  0.5162840000000  0.4249620000000 1.0
C      1  0.4837160000000  0.5750380000000  0.4840410000000 1.0
C      1  0.5162840000000  0.4249620000000  0.4840410000000 1.0
C      1  0.5162840000000  0.5750380000000  0.5159590000000 1.0
C      1  0.4249620000000  0.4840410000000  0.5162840000000 1.0
C      1  0.5750380000000  0.5159590000000  0.5162840000000 1.0
C      1  0.5750380000000  0.4840410000000  0.4837160000000 1.0
C      1  0.4840410000000  0.4837160000000  0.4249620000000 1.0
C      1  0.5162840000000  0.4249620000000  0.5159590000000 1.0
C      1  0.5750380000000  0.5159590000000  0.4837160000000 1.0
C      1  0.4840410000000  0.5162840000000  0.5750380000000 1.0
C      1  0.5159590000000  0.4837160000000  0.5750380000000 1.0
C      1  0.5159590000000  0.5162840000000  0.4249620000000 1.0
C      1  0.5162840000000  0.5750380000000  0.4840410000000 1.0
C      1  0.4837160000000  0.4249620000000  0.4840410000000 1.0
C      1  0.4837160000000  0.5750380000000  0.5159590000000 1.0
C      1  0.5750380000000  0.4840410000000  0.5162840000000 1.0
C      1  0.4249620000000  0.5159590000000  0.5162840000000 1.0
C      1  0.4249620000000  0.4840410000000  0.4837160000000 1.0
C      1  0.5503330000000  0.5000000000000  0.4479340000000 1.0
C      1  0.4479340000000  0.5503330000000  0.5000000000000 1.0
C      1  0.4496670000000  0.5000000000000  0.5520660000000 1.0
C      1  0.5000000000000  0.4479340000000  0.4496670000000 1.0
C      1  0.4479340000000  0.4496670000000  0.5000000000000 1.0
C      1  0.5520660000000  0.5503330000000  0.5000000000000 1.0
C      1  0.5520660000000  0.4496670000000  0.5000000000000 1.0
C      1  0.5000000000000  0.5520660000000  0.5503330000000 1.0
C      1  0.5000000000000  0.4479340000000  0.5503330000000 1.0
C      1  0.5000000000000  0.5520660000000  0.4496670000000 1.0
C      1  0.5503330000000  0.5000000000000  0.5520660000000 1.0
C      1  0.4496670000000  0.5000000000000  0.4479340000000 1.0
END
