TITL C-21449-9478-30 5.64817780227264e-06 125000 -326.035934913119 0 0 60 (D2) n - 1
REM
REM in /home/nfs/bkarasulu/CARBON/AIRSS/Generating-Clusters/TERSOFF/Higher-Symm/Only-C60
REM
REM
REM
REM
REM
REM ./C.cell (28575a23ae977d3b5fae324c64b13b57)
REM
REM compiler GCC version 9.2.1 20190827 (Red Hat 9.2.1-1)
REM options -cpp -mtune=generic -march=x86-64 -g -O0 -fpre-include=/usr/include/finclude/math-vector-fortran.h
REM seed 751801142 22842551 -1545858750 -861917880 -48754398 1903714735 1420091059 395821979 1514647780 -626548172 1692147167 319770818 987205412 -762137599 1323938922 1289845381 2094694482 -1786061603 156388697 -837473539 -957405619 -2080067723 1428819862 -1907362554 -335005117 1850330209 -381082446 -561336725 588076338 -1630313491 -1967296341 -525370504 -879838171
REM
CELL 1.54180   50.00000   50.00000   50.00000   90.00000   90.00000   90.00000
LATT -1
SFAC C  
C      1  0.4649590000000  0.5509080000000  0.4821260000000 1.0
C      1  0.5350410000000  0.5509080000000  0.5178740000000 1.0
C      1  0.5350500000000  0.4491040000000  0.4821240000000 1.0
C      1  0.4649500000000  0.4491040000000  0.5178760000000 1.0
C      1  0.4843830000000  0.4678140000000  0.4963490000000 1.0
C      1  0.5156170000000  0.4678140000000  0.5036510000000 1.0
C      1  0.5156120000000  0.5321800000000  0.4963580000000 1.0
C      1  0.4843880000000  0.5321800000000  0.5036420000000 1.0
C      1  0.5119540000000  0.4907350000000  0.4291450000000 1.0
C      1  0.4880450000000  0.4907350000000  0.5708550000000 1.0
C      1  0.4880500000000  0.5092700000000  0.4291450000000 1.0
C      1  0.5119500000000  0.5092700000000  0.5708550000000 1.0
C      1  0.5212100000000  0.5310700000000  0.4604830000000 1.0
C      1  0.4787900000000  0.5310700000000  0.5395170000000 1.0
C      1  0.4787930000000  0.4689280000000  0.4604730000000 1.0
C      1  0.5212070000000  0.4689280000000  0.5395270000000 1.0
C      1  0.4877310000000  0.5912340000000  0.5078440000000 1.0
C      1  0.5122690000000  0.5912340000000  0.4921560000000 1.0
C      1  0.5122690000000  0.4087780000000  0.5078440000000 1.0
C      1  0.4877310000000  0.4087780000000  0.4921560000000 1.0
C      1  0.5570510000000  0.4704200000000  0.5141420000000 1.0
C      1  0.4429490000000  0.4704200000000  0.4858580000000 1.0
C      1  0.4429770000000  0.5295760000000  0.5141310000000 1.0
C      1  0.5570230000000  0.5295760000000  0.4858690000000 1.0
C      1  0.5478890000000  0.4979710000000  0.5209120000000 1.0
C      1  0.4521120000000  0.4979710000000  0.4790880000000 1.0
C      1  0.4521600000000  0.5020210000000  0.5208840000000 1.0
C      1  0.5478400000000  0.5020210000000  0.4791160000000 1.0
C      1  0.5576150000000  0.4938880000000  0.4515820000000 1.0
C      1  0.4423850000000  0.4938880000000  0.5484180000000 1.0
C      1  0.4423680000000  0.5060860000000  0.4515470000000 1.0
C      1  0.5576320000000  0.5060860000000  0.5484530000000 1.0
C      1  0.4665200000000  0.5076770000000  0.5598760000000 1.0
C      1  0.5334800000000  0.5076770000000  0.4401240000000 1.0
C      1  0.5334730000000  0.4923190000000  0.5598840000000 1.0
C      1  0.4665270000000  0.4923190000000  0.4401160000000 1.0
C      1  0.4669060000000  0.4288650000000  0.4940880000000 1.0
C      1  0.5330940000000  0.4288650000000  0.5059120000000 1.0
C      1  0.5330920000000  0.5711450000000  0.4940880000000 1.0
C      1  0.4669080000000  0.5711450000000  0.5059120000000 1.0
C      1  0.5046540000000  0.5348100000000  0.5552590000000 1.0
C      1  0.4953460000000  0.5348090000000  0.4447410000000 1.0
C      1  0.4953400000000  0.4651920000000  0.5552640000000 1.0
C      1  0.5046600000000  0.4651920000000  0.4447360000000 1.0
C      1  0.4755510000000  0.5531650000000  0.4551800000000 1.0
C      1  0.5244490000000  0.5531650000000  0.5448200000000 1.0
C      1  0.5244590000000  0.4468420000000  0.4551790000000 1.0
C      1  0.4755410000000  0.4468420000000  0.5448210000000 1.0
C      1  0.5617600000000  0.5369570000000  0.5140690000000 1.0
C      1  0.4382400000000  0.5369570000000  0.4859310000000 1.0
C      1  0.4382340000000  0.4630510000000  0.5140640000000 1.0
C      1  0.5617660000000  0.4630510000000  0.4859360000000 1.0
C      1  0.4575560000000  0.5527980000000  0.5291960000000 1.0
C      1  0.5424440000000  0.5527980000000  0.4708040000000 1.0
C      1  0.5424480000000  0.4472100000000  0.5291940000000 1.0
C      1  0.4575520000000  0.4472100000000  0.4708060000000 1.0
C      1  0.4842650000000  0.4913780000000  0.5190350000000 1.0
C      1  0.5157350000000  0.4913780000000  0.4809650000000 1.0
C      1  0.5158910000000  0.5086100000000  0.5189710000000 1.0
C      1  0.4841090000000  0.5086100000000  0.4810290000000 1.0
END
