TITL C-21448-1263-56 0.00212257789516965 125000 -325.586493459968 0 0 60 (D2d) n - 1
REM
REM in /home/nfs/bkarasulu/CARBON/AIRSS/Generating-Clusters/TERSOFF/Higher-Symm/Only-C60
REM
REM
REM
REM
REM
REM ./C.cell (28575a23ae977d3b5fae324c64b13b57)
REM
REM compiler GCC version 9.2.1 20190827 (Red Hat 9.2.1-1)
REM options -cpp -mtune=generic -march=x86-64 -g -O0 -fpre-include=/usr/include/finclude/math-vector-fortran.h
REM seed 1796189174 -1369949035 -492631242 -1987579639 -780002908 1628286191 -568708510 1450096458 714772141 1011881250 867944317 280818501 400549076 -40307833 -1195861593 333505017 1700720462 2005198850 521730940 -895951243 -1243435550 -695287266 2054086869 -1916038365 530745678 604430942 1201122657 1395278902 -1840842638 1659408456 132531318 -1111947520 -1815446885
REM
CELL 1.54180   50.00000   50.00000   50.00000   90.00000   90.00000   90.00000
LATT -1
SFAC C  
C      1  0.5542480000000  0.4679110000000  0.4486470000000 1.0
C      1  0.4457520000000  0.5320890000000  0.4486470000000 1.0
C      1  0.5542480000000  0.5320890000000  0.5513530000000 1.0
C      1  0.4457520000000  0.4679110000000  0.5513530000000 1.0
C      1  0.4679110000000  0.5542480000000  0.4486470000000 1.0
C      1  0.5320890000000  0.4457520000000  0.4486470000000 1.0
C      1  0.5320890000000  0.5542480000000  0.5513530000000 1.0
C      1  0.4679110000000  0.4457520000000  0.5513530000000 1.0
C      1  0.5074910000000  0.5279540000000  0.5297920000000 1.0
C      1  0.4925090000000  0.4720460000000  0.5297920000000 1.0
C      1  0.5074910000000  0.4720450000000  0.4702080000000 1.0
C      1  0.4925090000000  0.5279550000000  0.4702080000000 1.0
C      1  0.5279540000000  0.5074910000000  0.5297920000000 1.0
C      1  0.4720460000000  0.4925090000000  0.5297920000000 1.0
C      1  0.4720460000000  0.5074910000000  0.4702080000000 1.0
C      1  0.5279540000000  0.4925090000000  0.4702080000000 1.0
C      1  0.4416440000000  0.4829250000000  0.5227640000000 1.0
C      1  0.5583560000000  0.5170750000000  0.5227640000000 1.0
C      1  0.4416440000000  0.5170750000000  0.4772360000000 1.0
C      1  0.5583560000000  0.4829250000000  0.4772360000000 1.0
C      1  0.4829250000000  0.4416440000000  0.5227640000000 1.0
C      1  0.5170750000000  0.5583560000000  0.5227640000000 1.0
C      1  0.5170750000000  0.4416440000000  0.4772360000000 1.0
C      1  0.4829250000000  0.5583560000000  0.4772360000000 1.0
C      1  0.4770950000000  0.4558950000000  0.4462300000000 1.0
C      1  0.5229050000000  0.5441050000000  0.4462300000000 1.0
C      1  0.4770950000000  0.5441050000000  0.5537700000000 1.0
C      1  0.5229050000000  0.4558950000000  0.5537700000000 1.0
C      1  0.4558950000000  0.4770950000000  0.4462300000000 1.0
C      1  0.5441050000000  0.5229050000000  0.4462300000000 1.0
C      1  0.5441050000000  0.4770950000000  0.5537700000000 1.0
C      1  0.4558950000000  0.5229050000000  0.5537700000000 1.0
C      1  0.4448550000000  0.4668320000000  0.4969170000000 1.0
C      1  0.5551450000000  0.5331680000000  0.4969170000000 1.0
C      1  0.4448550000000  0.5331680000000  0.5030830000000 1.0
C      1  0.5551450000000  0.4668320000000  0.5030830000000 1.0
C      1  0.4668320000000  0.4448550000000  0.4969170000000 1.0
C      1  0.5331680000000  0.5551450000000  0.4969170000000 1.0
C      1  0.5331680000000  0.4448550000000  0.5030830000000 1.0
C      1  0.4668320000000  0.5551450000000  0.5030830000000 1.0
C      1  0.4921590000000  0.4662260000000  0.5639440000000 1.0
C      1  0.5078410000000  0.5337740000000  0.5639440000000 1.0
C      1  0.4921590000000  0.5337740000000  0.4360560000000 1.0
C      1  0.5078410000000  0.4662260000000  0.4360560000000 1.0
C      1  0.4662260000000  0.4921590000000  0.5639440000000 1.0
C      1  0.5337740000000  0.5078410000000  0.5639440000000 1.0
C      1  0.5337740000000  0.4921590000000  0.4360560000000 1.0
C      1  0.4662260000000  0.5078410000000  0.4360560000000 1.0
C      1  0.5612680000000  0.4821660000000  0.5278380000000 1.0
C      1  0.4387320000000  0.5178340000000  0.5278380000000 1.0
C      1  0.5612680000000  0.5178340000000  0.4721620000000 1.0
C      1  0.4387320000000  0.4821660000000  0.4721620000000 1.0
C      1  0.4821660000000  0.5612680000000  0.5278380000000 1.0
C      1  0.5178340000000  0.4387320000000  0.5278380000000 1.0
C      1  0.5178340000000  0.5612670000000  0.4721620000000 1.0
C      1  0.4821660000000  0.4387320000000  0.4721620000000 1.0
C      1  0.5180730000000  0.4819270000000  0.5202110000000 1.0
C      1  0.4819270000000  0.5180730000000  0.5202110000000 1.0
C      1  0.5180730000000  0.5180730000000  0.4797890000000 1.0
C      1  0.4819270000000  0.4819270000000  0.4797890000000 1.0
END
