TITL C-21446-9947-16 -0.000153048777933564 125000 -290.956827371302 0 0 60 (C3) n - 1
REM
REM in /home/nfs/bkarasulu/CARBON/AIRSS/Generating-Clusters/TERSOFF/Higher-Symm/Only-C60
REM
REM
REM
REM
REM
REM ./C.cell (28575a23ae977d3b5fae324c64b13b57)
REM
REM compiler GCC version 9.2.1 20190827 (Red Hat 9.2.1-1)
REM options -cpp -mtune=generic -march=x86-64 -g -O0 -fpre-include=/usr/include/finclude/math-vector-fortran.h
REM seed 952049792 -35035490 644002491 -1588433352 1251495178 -1741462530 1061617097 1889598208 1063629460 -377942215 264823541 297430622 1012719060 624131988 -1313382911 -1376809458 -1572053623 74026990 -1012591504 -1157125742 -1042147037 -38722812 -13425853 831528715 1891844589 738805119 -1261474216 1471035891 -1702698066 -57967306 -1776328459 -2132728879 1659748047
REM
CELL 1.54180   50.00000   50.00000   50.00000   90.00000   90.00000   90.00000
LATT -1
SFAC C  
C      1  0.4984390000000  0.5569240000000  0.5508890000000 1.0
C      1  0.4567010000000  0.5569260000000  0.4732000000000 1.0
C      1  0.5448620000000  0.5569230000000  0.4759060000000 1.0
C      1  0.5087390000000  0.4913480000000  0.5706310000000 1.0
C      1  0.4344600000000  0.4913460000000  0.4722540000000 1.0
C      1  0.5568020000000  0.4913470000000  0.4571170000000 1.0
C      1  0.4404200000000  0.4680420000000  0.5234700000000 1.0
C      1  0.5094640000000  0.4680480000000  0.4366660000000 1.0
C      1  0.5501160000000  0.4680450000000  0.5398650000000 1.0
C      1  0.4409270000000  0.5316970000000  0.5328570000000 1.0
C      1  0.5010820000000  0.5316970000000  0.4324220000000 1.0
C      1  0.5579750000000  0.5317030000000  0.5347270000000 1.0
C      1  0.5264820000000  0.4481490000000  0.5458860000000 1.0
C      1  0.4470200000000  0.4481460000000  0.4999910000000 1.0
C      1  0.5264980000000  0.4481510000000  0.4541200000000 1.0
C      1  0.4521930000000  0.4695780000000  0.5522760000000 1.0
C      1  0.4786320000000  0.4695870000000  0.4324560000000 1.0
C      1  0.5691810000000  0.4695860000000  0.5152700000000 1.0
C      1  0.5122990000000  0.5353770000000  0.5170200000000 1.0
C      1  0.4790830000000  0.5353790000000  0.5021510000000 1.0
C      1  0.5086040000000  0.5353750000000  0.4808220000000 1.0
C      1  0.5128440000000  0.5620930000000  0.4657510000000 1.0
C      1  0.5232330000000  0.5620950000000  0.5282340000000 1.0
C      1  0.4639130000000  0.5620990000000  0.5060020000000 1.0
C      1  0.4978650000000  0.5257090000000  0.5681310000000 1.0
C      1  0.4420630000000  0.5257050000000  0.4640840000000 1.0
C      1  0.5600800000000  0.5257070000000  0.4677870000000 1.0
C      1  0.5319640000000  0.4874730000000  0.5246360000000 1.0
C      1  0.4626830000000  0.4874690000000  0.5153560000000 1.0
C      1  0.5053530000000  0.4874730000000  0.4600070000000 1.0
C      1  0.4660380000000  0.5153700000000  0.5245390000000 1.0
C      1  0.4957360000000  0.5153700000000  0.4583290000000 1.0
C      1  0.5382210000000  0.5153680000000  0.5171420000000 1.0
C      1  0.5166560000000  0.4364530000000  0.4867580000000 1.0
C      1  0.5031390000000  0.4364520000000  0.5210410000000 1.0
C      1  0.4802080000000  0.4364530000000  0.4921920000000 1.0
C      1  0.5056510000000  0.4594220000000  0.5662010000000 1.0
C      1  0.4398450000000  0.4594240000000  0.4717960000000 1.0
C      1  0.5545070000000  0.4594220000000  0.4620050000000 1.0
C      1  0.5827720000000  0.4984950000000  0.5093170000000 1.0
C      1  0.4505560000000  0.4984860000000  0.5670280000000 1.0
C      1  0.4666740000000  0.4984920000000  0.4236640000000 1.0
C      1  0.4955350000000  0.5176810000000  0.5364490000000 1.0
C      1  0.4706680000000  0.5176840000000  0.4779110000000 1.0
C      1  0.5338040000000  0.5176810000000  0.4856410000000 1.0
C      1  0.4683580000000  0.4506460000000  0.4598240000000 1.0
C      1  0.5506160000000  0.4506440000000  0.4926860000000 1.0
C      1  0.4810290000000  0.4506420000000  0.5474880000000 1.0
C      1  0.4599640000000  0.5264860000000  0.4383180000000 1.0
C      1  0.5734410000000  0.5264900000000  0.4961750000000 1.0
C      1  0.4665980000000  0.5264850000000  0.5655140000000 1.0
C      1  0.5069050000000  0.4906770000000  0.5381790000000 1.0
C      1  0.4634750000000  0.4906830000000  0.4868960000000 1.0
C      1  0.5296150000000  0.4906780000000  0.4749290000000 1.0
C      1  0.4636590000000  0.5542820000000  0.5415050000000 1.0
C      1  0.4822260000000  0.5542830000000  0.4477770000000 1.0
C      1  0.5541190000000  0.5542880000000  0.5107160000000 1.0
C      1  0.5311630000000  0.4740880000000  0.4980780000000 1.0
C      1  0.4860840000000  0.4740880000000  0.5279490000000 1.0
C      1  0.4827570000000  0.4740860000000  0.4739720000000 1.0
END
