TITL C-21444-1711-53 -7.68280852408022e-07 125000 -344.438106615952 0 0 60 (C5) n - 1
REM
REM in /home/nfs/bkarasulu/CARBON/AIRSS/Generating-Clusters/TERSOFF/Higher-Symm/Only-C60
REM
REM
REM
REM
REM
REM ./C.cell (28575a23ae977d3b5fae324c64b13b57)
REM
REM compiler GCC version 9.2.1 20190827 (Red Hat 9.2.1-1)
REM options -cpp -mtune=generic -march=x86-64 -g -O0 -fpre-include=/usr/include/finclude/math-vector-fortran.h
REM seed 81246637 1797729862 -449524045 -1033768636 -518632139 -645314153 -164204180 1905448323 1255983925 -1886546148 -758886625 971529643 1794656128 -1466216782 -159494082 -784875423 372627020 -204655408 -752887344 -1329572437 1764378429 572834151 -1893514140 1145027322 343493388 -1399872474 725597365 1254879712 -1485971850 -1722466321 -1411812711 1416389344 -2115115300
REM
CELL 1.54180   50.00000   50.00000   50.00000   90.00000   90.00000   90.00000
LATT -1
SFAC C  
C      1  0.4808730000000  0.5233540000000  0.5101030000000 1.0
C      1  0.4808680000000  0.5168270000000  0.4809140000000 1.0
C      1  0.4808610000000  0.4870490000000  0.4781010000000 1.0
C      1  0.4808610000000  0.4751720000000  0.5055520000000 1.0
C      1  0.4808680000000  0.4976100000000  0.5253310000000 1.0
C      1  0.5623460000000  0.4769640000000  0.4879240000000 1.0
C      1  0.5623480000000  0.4813900000000  0.5181620000000 1.0
C      1  0.5623560000000  0.5115160000000  0.5232970000000 1.0
C      1  0.5623590000000  0.5257090000000  0.4962320000000 1.0
C      1  0.5623530000000  0.5043550000000  0.4743700000000 1.0
C      1  0.4389360000000  0.5242600000000  0.5111890000000 1.0
C      1  0.4389310000000  0.5181440000000  0.4803990000000 1.0
C      1  0.4389230000000  0.4869700000000  0.4767020000000 1.0
C      1  0.4389230000000  0.4738210000000  0.5052070000000 1.0
C      1  0.4389300000000  0.4968670000000  0.5265210000000 1.0
C      1  0.4625230000000  0.5473760000000  0.5202120000000 1.0
C      1  0.4625150000000  0.5338670000000  0.4611960000000 1.0
C      1  0.4625000000000  0.4735630000000  0.4558070000000 1.0
C      1  0.4624980000000  0.4498040000000  0.5114950000000 1.0
C      1  0.4625120000000  0.4954250000000  0.5512980000000 1.0
C      1  0.4638990000000  0.4419170000000  0.5399000000000 1.0
C      1  0.4639190000000  0.5200020000000  0.5675770000000 1.0
C      1  0.4639270000000  0.5704530000000  0.5018680000000 1.0
C      1  0.4639120000000  0.5235520000000  0.4335800000000 1.0
C      1  0.4638960000000  0.4441110000000  0.4570830000000 1.0
C      1  0.5128310000000  0.4417380000000  0.5418780000000 1.0
C      1  0.5128510000000  0.5218240000000  0.5683500000000 1.0
C      1  0.5128590000000  0.5717470000000  0.5003630000000 1.0
C      1  0.5128440000000  0.5225140000000  0.4318750000000 1.0
C      1  0.5128270000000  0.4421660000000  0.4575330000000 1.0
C      1  0.5397140000000  0.4642370000000  0.5356110000000 1.0
C      1  0.5397290000000  0.5228140000000  0.5450090000000 1.0
C      1  0.5397340000000  0.5498530000000  0.4922030000000 1.0
C      1  0.5397220000000  0.5079860000000  0.4501690000000 1.0
C      1  0.5397100000000  0.4550730000000  0.4769980000000 1.0
C      1  0.4853390000000  0.4772890000000  0.5643920000000 1.0
C      1  0.4853560000000  0.5542230000000  0.5415000000000 1.0
C      1  0.4853520000000  0.5562260000000  0.4612590000000 1.0
C      1  0.4853340000000  0.4805310000000  0.4345570000000 1.0
C      1  0.4853260000000  0.4317440000000  0.4982960000000 1.0
C      1  0.5358110000000  0.4888250000000  0.5562210000000 1.0
C      1  0.5358240000000  0.5500140000000  0.5279930000000 1.0
C      1  0.5358190000000  0.5420750000000  0.4610770000000 1.0
C      1  0.5358020000000  0.4759810000000  0.4479490000000 1.0
C      1  0.5357970000000  0.4430720000000  0.5067510000000 1.0
C      1  0.5099600000000  0.4277460000000  0.5141340000000 1.0
C      1  0.5099770000000  0.4911130000000  0.5730840000000 1.0
C      1  0.5099920000000  0.5667600000000  0.5310330000000 1.0
C      1  0.5099840000000  0.5501430000000  0.4460960000000 1.0
C      1  0.5099640000000  0.4642290000000  0.4356510000000 1.0
C      1  0.4873790000000  0.5725470000000  0.4850580000000 1.0
C      1  0.4873620000000  0.5082090000000  0.4263890000000 1.0
C      1  0.4873470000000  0.4325290000000  0.4694480000000 1.0
C      1  0.4873550000000  0.4500950000000  0.5547310000000 1.0
C      1  0.4873750000000  0.5366320000000  0.5643780000000 1.0
C      1  0.5203800000000  0.5113650000000  0.5223790000000 1.0
C      1  0.5203830000000  0.5247950000000  0.4961030000000 1.0
C      1  0.5203780000000  0.5039560000000  0.4752110000000 1.0
C      1  0.5203710000000  0.4776460000000  0.4885750000000 1.0
C      1  0.5203730000000  0.4822250000000  0.5177260000000 1.0
END
