TITL C-21454-5660-18 -0.000125179529483359 125000 -287.199573374056 0 0 60 (C1) n - 1
REM
REM in /home/nfs/bkarasulu/CARBON/AIRSS/Generating-Clusters/TERSOFF/Higher-Symm/Only-C60
REM
REM
REM
REM
REM
REM ./C.cell (28575a23ae977d3b5fae324c64b13b57)
REM
REM compiler GCC version 9.2.1 20190827 (Red Hat 9.2.1-1)
REM options -cpp -mtune=generic -march=x86-64 -g -O0 -fpre-include=/usr/include/finclude/math-vector-fortran.h
REM seed 2036260200 237296004 1070883379 2133466470 -1616508410 -35866826 -1725235318 1406808585 -1302004511 -2081467003 -1403502393 -319726554 795233477 -751259628 1506821537 66502285 -1817157706 -1125046238 1345319101 -1257326668 901866222 -1552081889 -1712389945 2117023471 1841225547 -1339146733 559706539 -577250939 1459132196 1627337151 2091871015 -1487391734 1254887929
REM
CELL 1.54180   50.00000   50.00000   50.00000   90.00000   90.00000   90.00000
LATT -1
SFAC C  
C      1  0.5689850000000  0.4957110000000  0.4947910000000 1.0
C      1  0.4799910000000  0.5600760000000  0.4931080000000 1.0
C      1  0.4607290000000  0.4424700000000  0.4934080000000 1.0
C      1  0.5207430000000  0.5707820000000  0.5221580000000 1.0
C      1  0.4261110000000  0.4881470000000  0.5252650000000 1.0
C      1  0.5488200000000  0.4456840000000  0.5233360000000 1.0
C      1  0.4926820000000  0.5396080000000  0.5559390000000 1.0
C      1  0.4709870000000  0.4768990000000  0.5571000000000 1.0
C      1  0.5343470000000  0.4862360000000  0.5567890000000 1.0
C      1  0.4872570000000  0.5010840000000  0.5757220000000 1.0
C      1  0.5109220000000  0.4755380000000  0.5700010000000 1.0
C      1  0.5133390000000  0.5257550000000  0.5720320000000 1.0
C      1  0.5312110000000  0.4258870000000  0.4736390000000 1.0
C      1  0.5469850000000  0.5653000000000  0.4758300000000 1.0
C      1  0.4195950000000  0.5178030000000  0.4727550000000 1.0
C      1  0.4815880000000  0.5240990000000  0.4328270000000 1.0
C      1  0.4860740000000  0.4743150000000  0.4352360000000 1.0
C      1  0.5284720000000  0.5038970000000  0.4367000000000 1.0
C      1  0.4796370000000  0.4828790000000  0.4829580000000 1.0
C      1  0.5246200000000  0.4940800000000  0.4842720000000 1.0
C      1  0.4963610000000  0.5112250000000  0.4833750000000 1.0
C      1  0.5318850000000  0.5150240000000  0.5499820000000 1.0
C      1  0.4716550000000  0.5175990000000  0.5475400000000 1.0
C      1  0.4964720000000  0.4630050000000  0.5462910000000 1.0
C      1  0.5291850000000  0.4534420000000  0.4509320000000 1.0
C      1  0.5208400000000  0.5531720000000  0.4541960000000 1.0
C      1  0.4411470000000  0.4983620000000  0.4511860000000 1.0
C      1  0.5157910000000  0.4764780000000  0.4326720000000 1.0
C      1  0.5125510000000  0.5284580000000  0.4330620000000 1.0
C      1  0.4676670000000  0.4981680000000  0.4318620000000 1.0
C      1  0.5575160000000  0.5219100000000  0.5277270000000 1.0
C      1  0.4561190000000  0.5376310000000  0.5248540000000 1.0
C      1  0.4888870000000  0.4399590000000  0.5244590000000 1.0
C      1  0.5588290000000  0.5259640000000  0.4845290000000 1.0
C      1  0.4543910000000  0.5389450000000  0.4829260000000 1.0
C      1  0.4915650000000  0.4362630000000  0.4827090000000 1.0
C      1  0.5386030000000  0.4948310000000  0.5127310000000 1.0
C      1  0.4883850000000  0.5315700000000  0.5100380000000 1.0
C      1  0.4756350000000  0.4689830000000  0.5103430000000 1.0
C      1  0.4667930000000  0.4973560000000  0.5206970000000 1.0
C      1  0.5160370000000  0.4718170000000  0.5211070000000 1.0
C      1  0.5165100000000  0.5290130000000  0.5230190000000 1.0
C      1  0.4554570000000  0.4416310000000  0.5349510000000 1.0
C      1  0.5732920000000  0.4931110000000  0.5363030000000 1.0
C      1  0.4673250000000  0.5665810000000  0.5323940000000 1.0
C      1  0.5188600000000  0.4425480000000  0.5034420000000 1.0
C      1  0.5401640000000  0.5453900000000  0.5054700000000 1.0
C      1  0.4395060000000  0.5133860000000  0.5031740000000 1.0
C      1  0.5444220000000  0.5038580000000  0.4618270000000 1.0
C      1  0.4789270000000  0.5329550000000  0.4612510000000 1.0
C      1  0.4794960000000  0.4607790000000  0.4606730000000 1.0
C      1  0.4490750000000  0.4499080000000  0.4650950000000 1.0
C      1  0.5681930000000  0.4822220000000  0.4661800000000 1.0
C      1  0.4918500000000  0.5631440000000  0.4633050000000 1.0
C      1  0.4967650000000  0.5652790000000  0.5406440000000 1.0
C      1  0.4437050000000  0.4692890000000  0.5433480000000 1.0
C      1  0.5551090000000  0.4693900000000  0.5426660000000 1.0
C      1  0.4530440000000  0.4936110000000  0.4797430000000 1.0
C      1  0.5207890000000  0.4661310000000  0.4787990000000 1.0
C      1  0.5180980000000  0.5353630000000  0.4806290000000 1.0
END
