TITL C-21452-6160-29 -0.00162395999243628 125000 -304.486330952857 0 0 60 (C4h) n - 1
REM
REM in /home/nfs/bkarasulu/CARBON/AIRSS/Generating-Clusters/TERSOFF/Higher-Symm/Only-C60
REM
REM
REM
REM
REM
REM ./C.cell (28575a23ae977d3b5fae324c64b13b57)
REM
REM compiler GCC version 9.2.1 20190827 (Red Hat 9.2.1-1)
REM options -cpp -mtune=generic -march=x86-64 -g -O0 -fpre-include=/usr/include/finclude/math-vector-fortran.h
REM seed 1758166189 -1318765047 -166358837 675787039 1570166085 626339291 1408878907 1708802513 -31171238 -747492473 1897727029 -1457508359 -1712258547 -2018490563 -1980847056 -1140015831 -416735564 -964061745 388560460 -707342062 -1591262562 -276046953 -510887664 966809107 -2132387451 -1452230224 -838538874 372672827 -1080070154 -1538239683 1216724273 437149093 550990619
REM
CELL 1.54180   50.00000   50.00000   50.00000   90.00000   90.00000   90.00000
LATT -1
SFAC C  
C      1  0.5526480000000  0.5320250000000  0.5449750000000 1.0
C      1  0.4679750000000  0.5526480000000  0.5449750000000 1.0
C      1  0.4473520000000  0.4679750000000  0.5449750000000 1.0
C      1  0.5320250000000  0.4473520000000  0.5449750000000 1.0
C      1  0.5526490000000  0.5320260000000  0.4559130000000 1.0
C      1  0.4679740000000  0.5526490000000  0.4559130000000 1.0
C      1  0.4473510000000  0.4679740000000  0.4559130000000 1.0
C      1  0.5320260000000  0.4473510000000  0.4559130000000 1.0
C      1  0.4469270000000  0.5329110000000  0.5505870000000 1.0
C      1  0.4670890000000  0.4469270000000  0.5505870000000 1.0
C      1  0.5530730000000  0.4670890000000  0.5505870000000 1.0
C      1  0.5329110000000  0.5530730000000  0.5505870000000 1.0
C      1  0.4469260000000  0.5329120000000  0.4502970000000 1.0
C      1  0.4670880000000  0.4469260000000  0.4502970000000 1.0
C      1  0.5530740000000  0.4670880000000  0.4502970000000 1.0
C      1  0.5329120000000  0.5530740000000  0.4502970000000 1.0
C      1  0.4310890000000  0.4716300000000  0.5162690000000 1.0
C      1  0.5283700000000  0.4310890000000  0.5162690000000 1.0
C      1  0.5689110000000  0.5283700000000  0.5162690000000 1.0
C      1  0.4716300000000  0.5689110000000  0.5162690000000 1.0
C      1  0.4310910000000  0.4716270000000  0.4846200000000 1.0
C      1  0.5283730000000  0.4310910000000  0.4846200000000 1.0
C      1  0.5689090000000  0.5283730000000  0.4846200000000 1.0
C      1  0.4716270000000  0.5689090000000  0.4846200000000 1.0
C      1  0.5203160000000  0.4911020000000  0.5214420000000 1.0
C      1  0.5088990000000  0.5203160000000  0.5214340000000 1.0
C      1  0.4796840000000  0.5088990000000  0.5214420000000 1.0
C      1  0.4911010000000  0.4796840000000  0.5214340000000 1.0
C      1  0.5203170000000  0.4911010000000  0.4794470000000 1.0
C      1  0.5088990000000  0.5203160000000  0.4794540000000 1.0
C      1  0.4796840000000  0.5088990000000  0.4794460000000 1.0
C      1  0.4911010000000  0.4796840000000  0.4794540000000 1.0
C      1  0.5482540000000  0.4983400000000  0.4474460000000 1.0
C      1  0.5016600000000  0.5482540000000  0.4474460000000 1.0
C      1  0.4517460000000  0.5016600000000  0.4474460000000 1.0
C      1  0.4983400000000  0.4517460000000  0.4474460000000 1.0
C      1  0.5482530000000  0.4983410000000  0.5534430000000 1.0
C      1  0.5016590000000  0.5482520000000  0.5534430000000 1.0
C      1  0.4517470000000  0.5016590000000  0.5534430000000 1.0
C      1  0.4983410000000  0.4517480000000  0.5534430000000 1.0
C      1  0.5021580000000  0.5617200000000  0.4784280000000 1.0
C      1  0.4382810000000  0.5021580000000  0.4784280000000 1.0
C      1  0.4978420000000  0.4382810000000  0.4784280000000 1.0
C      1  0.5617190000000  0.4978420000000  0.4784280000000 1.0
C      1  0.5021610000000  0.5617210000000  0.5224610000000 1.0
C      1  0.4382790000000  0.5021610000000  0.5224610000000 1.0
C      1  0.4978390000000  0.4382790000000  0.5224610000000 1.0
C      1  0.5617200000000  0.4978390000000  0.5224610000000 1.0
C      1  0.4992850000000  0.4774110000000  0.5698290000000 1.0
C      1  0.5225890000000  0.4992850000000  0.5698290000000 1.0
C      1  0.5007150000000  0.5225890000000  0.5698290000000 1.0
C      1  0.4774110000000  0.5007150000000  0.5698290000000 1.0
C      1  0.4992850000000  0.4774110000000  0.4310630000000 1.0
C      1  0.5225890000000  0.4992850000000  0.4310630000000 1.0
C      1  0.5007150000000  0.5225890000000  0.4310630000000 1.0
C      1  0.4774110000000  0.5007150000000  0.4310630000000 1.0
C      1  0.5168980000000  0.5438010000000  0.5004440000000 1.0
C      1  0.4561990000000  0.5168980000000  0.5004440000000 1.0
C      1  0.4831020000000  0.4561990000000  0.5004440000000 1.0
C      1  0.5438010000000  0.4831020000000  0.5004440000000 1.0
END
