TITL C-21450-4084-1 -6.03114648915389e-06 125000 -295.570556506378 0 0 60 (C6) n - 1
REM
REM in /home/nfs/bkarasulu/CARBON/AIRSS/Generating-Clusters/TERSOFF/Higher-Symm/Only-C60
REM
REM
REM
REM
REM
REM ./C.cell (28575a23ae977d3b5fae324c64b13b57)
REM
REM compiler GCC version 9.2.1 20190827 (Red Hat 9.2.1-1)
REM options -cpp -mtune=generic -march=x86-64 -g -O0 -fpre-include=/usr/include/finclude/math-vector-fortran.h
REM seed 1930183638 1085259988 3085951 -1453921794 -624921984 -378852211 1059523937 127159639 -490105110 1365797049 -105246811 118973387 -1510187228 2100370628 1924833707 -1105446272 188696973 -240549831 188724875 -2040641062 -1965313872 -1852487941 -1906683420 -1738760259 277568569 -417645713 1114702177 2015339375 -557234160 -972886052 736218979 -1092547187 1274973264
REM
CELL 1.54180   50.00000   50.00000   50.00000   90.00000   90.00000   90.00000
LATT -1
SFAC C  
C      1  0.4406880000000  0.4698790000000  0.4461590000000 1.0
C      1  0.5169700000000  0.4698720000000  0.4217170000000 1.0
C      1  0.5762810000000  0.4698690000000  0.4755610000000 1.0
C      1  0.5593120000000  0.4698790000000  0.5538410000000 1.0
C      1  0.4830300000000  0.4698720000000  0.5782830000000 1.0
C      1  0.4237190000000  0.4698690000000  0.5244390000000 1.0
C      1  0.5593120000000  0.5301210000000  0.4461590000000 1.0
C      1  0.4830300000000  0.5301280000000  0.4217170000000 1.0
C      1  0.4237190000000  0.5301310000000  0.4755610000000 1.0
C      1  0.4406880000000  0.5301210000000  0.5538410000000 1.0
C      1  0.5169700000000  0.5301280000000  0.5782830000000 1.0
C      1  0.5762810000000  0.5301310000000  0.5244390000000 1.0
C      1  0.4490710000000  0.4842280000000  0.5372980000000 1.0
C      1  0.4422330000000  0.4842380000000  0.4745440000000 1.0
C      1  0.4931600000000  0.4842340000000  0.4372450000000 1.0
C      1  0.5509290000000  0.4842280000000  0.4627020000000 1.0
C      1  0.5577670000000  0.4842380000000  0.5254560000000 1.0
C      1  0.5068400000000  0.4842340000000  0.5627550000000 1.0
C      1  0.5509290000000  0.5157720000000  0.5372980000000 1.0
C      1  0.5577670000000  0.5157620000000  0.4745440000000 1.0
C      1  0.5068400000000  0.5157660000000  0.4372450000000 1.0
C      1  0.4490710000000  0.5157720000000  0.4627020000000 1.0
C      1  0.4422330000000  0.5157620000000  0.5254560000000 1.0
C      1  0.4931600000000  0.5157660000000  0.5627550000000 1.0
C      1  0.5828820000000  0.4988820000000  0.4856330000000 1.0
C      1  0.5538840000000  0.4988900000000  0.5645950000000 1.0
C      1  0.4710010000000  0.4988810000000  0.5789610000000 1.0
C      1  0.4171180000000  0.4988820000000  0.5143670000000 1.0
C      1  0.4461160000000  0.4988900000000  0.4354050000000 1.0
C      1  0.5289990000000  0.4988810000000  0.4210390000000 1.0
C      1  0.4171180000000  0.5011180000000  0.4856330000000 1.0
C      1  0.4461160000000  0.5011100000000  0.5645950000000 1.0
C      1  0.5289990000000  0.5011190000000  0.5789610000000 1.0
C      1  0.5828820000000  0.5011180000000  0.5143670000000 1.0
C      1  0.5538840000000  0.5011100000000  0.4354050000000 1.0
C      1  0.4710010000000  0.5011190000000  0.4210390000000 1.0
C      1  0.4660890000000  0.5313760000000  0.5070200000000 1.0
C      1  0.4769680000000  0.5313810000000  0.4741420000000 1.0
C      1  0.5108800000000  0.5313800000000  0.4671230000000 1.0
C      1  0.5339110000000  0.5313760000000  0.4929800000000 1.0
C      1  0.5230320000000  0.5313810000000  0.5258580000000 1.0
C      1  0.4891200000000  0.5313800000000  0.5328770000000 1.0
C      1  0.5339110000000  0.4686240000000  0.5070200000000 1.0
C      1  0.5230320000000  0.4686190000000  0.4741420000000 1.0
C      1  0.4891200000000  0.4686200000000  0.4671230000000 1.0
C      1  0.4660890000000  0.4686240000000  0.4929800000000 1.0
C      1  0.4769680000000  0.4686190000000  0.5258580000000 1.0
C      1  0.5108800000000  0.4686200000000  0.5328770000000 1.0
C      1  0.4730460000000  0.5456820000000  0.4455750000000 1.0
C      1  0.5336600000000  0.5456770000000  0.4494410000000 1.0
C      1  0.5606110000000  0.5456800000000  0.5038610000000 1.0
C      1  0.5269540000000  0.5456820000000  0.5544250000000 1.0
C      1  0.4663400000000  0.5456770000000  0.5505590000000 1.0
C      1  0.4393890000000  0.5456800000000  0.4961390000000 1.0
C      1  0.5269540000000  0.4543180000000  0.4455750000000 1.0
C      1  0.4663400000000  0.4543230000000  0.4494410000000 1.0
C      1  0.4393890000000  0.4543200000000  0.5038610000000 1.0
C      1  0.4730460000000  0.4543180000000  0.5544250000000 1.0
C      1  0.5336600000000  0.4543230000000  0.5505590000000 1.0
C      1  0.5606110000000  0.4543200000000  0.4961390000000 1.0
END
