TITL C-21454-5660-17 0.000219782289343826 125000 -263.214694658027 0 0 60 (C3) n - 1
REM
REM in /home/nfs/bkarasulu/CARBON/AIRSS/Generating-Clusters/TERSOFF/Higher-Symm/Only-C60
REM
REM
REM
REM
REM
REM ./C.cell (28575a23ae977d3b5fae324c64b13b57)
REM
REM compiler GCC version 9.2.1 20190827 (Red Hat 9.2.1-1)
REM options -cpp -mtune=generic -march=x86-64 -g -O0 -fpre-include=/usr/include/finclude/math-vector-fortran.h
REM seed 816759040 -343595078 -1638467030 1105980915 1205658949 343163314 663361344 -259892703 1016817851 -419594103 -1547665190 -806073640 -489914498 -1655409487 68818566 1121875857 535972768 418426811 1501812303 1569638001 -183338703 -535074849 1290909965 -746075595 -270483946 1404137276 1097888560 597063183 1427416110 -1939866959 393269124 -1762325687 -1101164955
REM
CELL 1.54180   50.00000   50.00000   50.00000   90.00000   90.00000   90.00000
LATT -1
SFAC C  
C      1  0.5114630000000  0.4485420000000  0.4464800000000 1.0
C      1  0.5388350000000  0.5356570000000  0.4464780000000 1.0
C      1  0.4497050000000  0.5158010000000  0.4464770000000 1.0
C      1  0.5557550000000  0.4676770000000  0.4767430000000 1.0
C      1  0.5001150000000  0.5644440000000  0.4767400000000 1.0
C      1  0.4441310000000  0.4678760000000  0.4767420000000 1.0
C      1  0.5039610000000  0.5467830000000  0.4451510000000 1.0
C      1  0.4575060000000  0.4800360000000  0.4451540000000 1.0
C      1  0.5385330000000  0.4731830000000  0.4451570000000 1.0
C      1  0.4957440000000  0.4804570000000  0.5637510000000 1.0
C      1  0.5190550000000  0.5060870000000  0.5637520000000 1.0
C      1  0.4852020000000  0.5134530000000  0.5637350000000 1.0
C      1  0.4698110000000  0.4542640000000  0.5304070000000 1.0
C      1  0.5547060000000  0.4967270000000  0.5304070000000 1.0
C      1  0.4754800000000  0.5490110000000  0.5304020000000 1.0
C      1  0.5664440000000  0.5203420000000  0.4543050000000 1.0
C      1  0.4491630000000  0.5473690000000  0.4543030000000 1.0
C      1  0.4843970000000  0.4322880000000  0.4543060000000 1.0
C      1  0.4787720000000  0.4283390000000  0.5097450000000 1.0
C      1  0.5726790000000  0.5174500000000  0.5097440000000 1.0
C      1  0.4485450000000  0.5542170000000  0.5097400000000 1.0
C      1  0.4373890000000  0.4979650000000  0.5201720000000 1.0
C      1  0.5330650000000  0.4468010000000  0.5201750000000 1.0
C      1  0.5295390000000  0.5552320000000  0.5201720000000 1.0
C      1  0.5173870000000  0.4831570000000  0.5036230000000 1.0
C      1  0.5058920000000  0.5234740000000  0.5036240000000 1.0
C      1  0.4767240000000  0.4933600000000  0.5036170000000 1.0
C      1  0.5548890000000  0.4662460000000  0.5109570000000 1.0
C      1  0.5017870000000  0.5644090000000  0.5109530000000 1.0
C      1  0.4433230000000  0.4693440000000  0.5109560000000 1.0
C      1  0.5446130000000  0.4742940000000  0.5537980000000 1.0
C      1  0.4999550000000  0.5514920000000  0.5537930000000 1.0
C      1  0.4554290000000  0.4742200000000  0.5537960000000 1.0
C      1  0.4590060000000  0.5360400000000  0.5603430000000 1.0
C      1  0.4892830000000  0.4464780000000  0.5603440000000 1.0
C      1  0.5517110000000  0.5174830000000  0.5603450000000 1.0
C      1  0.4921100000000  0.4725580000000  0.4383850000000 1.0
C      1  0.5277110000000  0.5068890000000  0.4383840000000 1.0
C      1  0.4801800000000  0.5205580000000  0.4383790000000 1.0
C      1  0.5333890000000  0.5506720000000  0.4746510000000 1.0
C      1  0.4394240000000  0.5035790000000  0.4746510000000 1.0
C      1  0.5271930000000  0.4457450000000  0.4746520000000 1.0
C      1  0.4441690000000  0.5196240000000  0.4998900000000 1.0
C      1  0.5109230000000  0.4418330000000  0.4998920000000 1.0
C      1  0.5449120000000  0.5385390000000  0.4998910000000 1.0
C      1  0.4846200000000  0.4633960000000  0.4879280000000 1.0
C      1  0.5393920000000  0.5049730000000  0.4879380000000 1.0
C      1  0.4760000000000  0.5316270000000  0.4879430000000 1.0
C      1  0.5233610000000  0.5148980000000  0.5298620000000 1.0
C      1  0.4754100000000  0.5127800000000  0.5298550000000 1.0
C      1  0.5012230000000  0.4723200000000  0.5298610000000 1.0
C      1  0.5229550000000  0.4524620000000  0.5484740000000 1.0
C      1  0.5296900000000  0.5436460000000  0.5484740000000 1.0
C      1  0.4473500000000  0.5038910000000  0.5484720000000 1.0
C      1  0.4826550000000  0.4901910000000  0.4672790000000 1.0
C      1  0.5171690000000  0.4898930000000  0.4672790000000 1.0
C      1  0.5001680000000  0.5199300000000  0.4672750000000 1.0
C      1  0.4648830000000  0.5595620000000  0.4780650000000 1.0
C      1  0.4659730000000  0.4398070000000  0.4780670000000 1.0
C      1  0.5691430000000  0.5006300000000  0.4780660000000 1.0
END
