TITL C-21451-4170-34 -0.000109773792278321 125000 -356.699732618614 0 0 60 (C3) n - 1
REM
REM in /home/nfs/bkarasulu/CARBON/AIRSS/Generating-Clusters/TERSOFF/Higher-Symm/Only-C60
REM
REM
REM
REM
REM
REM ./C.cell (28575a23ae977d3b5fae324c64b13b57)
REM
REM compiler GCC version 9.2.1 20190827 (Red Hat 9.2.1-1)
REM options -cpp -mtune=generic -march=x86-64 -g -O0 -fpre-include=/usr/include/finclude/math-vector-fortran.h
REM seed -1934305522 1448894046 -1620151520 602649916 -209903272 -498729124 -1930887282 -2084919038 -435072561 -928331311 1997916125 -245700122 1365000012 644501734 1106298421 1676220377 754222405 -1756647225 -1165667969 540659925 -926580810 -223367544 -234452402 1058488664 -1125635012 -834317146 1204248774 -889391536 348901724 264126660 -2101461587 -948482891 -2084105551
REM
CELL 1.54180   50.00000   50.00000   50.00000   90.00000   90.00000   90.00000
LATT -1
SFAC C  
C      1  0.4579830000000  0.4582710000000  0.5225440000000 1.0
C      1  0.5007040000000  0.4579420000000  0.4517600000000 1.0
C      1  0.5407200000000  0.4579400000000  0.5243330000000 1.0
C      1  0.4599110000000  0.5437500000000  0.5202790000000 1.0
C      1  0.5016950000000  0.5435350000000  0.4550080000000 1.0
C      1  0.5373410000000  0.5435540000000  0.5236610000000 1.0
C      1  0.5204980000000  0.5284880000000  0.4374740000000 1.0
C      1  0.5431980000000  0.5285390000000  0.5487230000000 1.0
C      1  0.4351800000000  0.5288320000000  0.5127450000000 1.0
C      1  0.5191410000000  0.4756400000000  0.4367280000000 1.0
C      1  0.5445670000000  0.4756640000000  0.5478200000000 1.0
C      1  0.4357640000000  0.4759450000000  0.5141050000000 1.0
C      1  0.5495280000000  0.4691700000000  0.4991200000000 1.0
C      1  0.4753610000000  0.4694490000000  0.5428000000000 1.0
C      1  0.4744500000000  0.4691910000000  0.4567050000000 1.0
C      1  0.5345730000000  0.5245100000000  0.5001270000000 1.0
C      1  0.4816950000000  0.5246820000000  0.5297050000000 1.0
C      1  0.4826480000000  0.5245430000000  0.4691590000000 1.0
C      1  0.4341150000000  0.4746870000000  0.4829980000000 1.0
C      1  0.5468920000000  0.4746100000000  0.4510240000000 1.0
C      1  0.5182720000000  0.4747130000000  0.5647170000000 1.0
C      1  0.4349570000000  0.5283760000000  0.4814570000000 1.0
C      1  0.5476890000000  0.5282700000000  0.4526770000000 1.0
C      1  0.5164280000000  0.5283700000000  0.5646630000000 1.0
C      1  0.5717580000000  0.5271650000000  0.5565410000000 1.0
C      1  0.4142280000000  0.5270710000000  0.5336530000000 1.0
C      1  0.5131290000000  0.5271420000000  0.4088090000000 1.0
C      1  0.5730540000000  0.4795100000000  0.5555210000000 1.0
C      1  0.4147990000000  0.4794590000000  0.5348790000000 1.0
C      1  0.5116290000000  0.4794830000000  0.4081970000000 1.0
C      1  0.4604380000000  0.5440100000000  0.4764590000000 1.0
C      1  0.5393730000000  0.5439710000000  0.4772280000000 1.0
C      1  0.4992500000000  0.5441030000000  0.5452630000000 1.0
C      1  0.4567730000000  0.4559340000000  0.4754540000000 1.0
C      1  0.5421040000000  0.4559000000000  0.4744330000000 1.0
C      1  0.5003880000000  0.4561060000000  0.5487760000000 1.0
C      1  0.5144710000000  0.4443320000000  0.4740840000000 1.0
C      1  0.5144810000000  0.4443970000000  0.5250930000000 1.0
C      1  0.4703230000000  0.4444400000000  0.4995890000000 1.0
C      1  0.5150810000000  0.5620950000000  0.4745150000000 1.0
C      1  0.5137520000000  0.5621200000000  0.5255160000000 1.0
C      1  0.4702140000000  0.5621500000000  0.4988400000000 1.0
C      1  0.5833780000000  0.5047030000000  0.5132810000000 1.0
C      1  0.4698420000000  0.5046940000000  0.4202720000000 1.0
C      1  0.4460090000000  0.5046200000000  0.5652330000000 1.0
C      1  0.4492820000000  0.5024050000000  0.5149360000000 1.0
C      1  0.5384960000000  0.5020430000000  0.5354610000000 1.0
C      1  0.5114080000000  0.5019890000000  0.4481550000000 1.0
C      1  0.4731720000000  0.4995980000000  0.5513550000000 1.0
C      1  0.5578030000000  0.4994280000000  0.4967460000000 1.0
C      1  0.4682270000000  0.4994610000000  0.4506970000000 1.0
C      1  0.4189840000000  0.5037710000000  0.5512670000000 1.0
C      1  0.5848710000000  0.5039510000000  0.5436590000000 1.0
C      1  0.4954460000000  0.5039190000000  0.4038500000000 1.0
C      1  0.5573500000000  0.5011130000000  0.4634740000000 1.0
C      1  0.4395810000000  0.5011690000000  0.4676980000000 1.0
C      1  0.5022490000000  0.5012250000000  0.5676230000000 1.0
C      1  0.4996830000000  0.5682830000000  0.4996280000000 1.0
C      1  0.4997570000000  0.4401310000000  0.4995830000000 1.0
C      1  0.4996210000000  0.5177450000000  0.4996390000000 1.0
END
