TITL C-21439-636-37 0.000329691676023906 125000 -321.349356140633 0 0 60 (C5) n - 1
REM
REM in /home/nfs/bkarasulu/CARBON/AIRSS/Generating-Clusters/TERSOFF/Higher-Symm/Only-C60
REM
REM
REM
REM
REM
REM ./C.cell (28575a23ae977d3b5fae324c64b13b57)
REM
REM compiler GCC version 9.2.1 20190827 (Red Hat 9.2.1-1)
REM options -cpp -mtune=generic -march=x86-64 -g -O0 -fpre-include=/usr/include/finclude/math-vector-fortran.h
REM seed -1739765465 -968536935 -1860133151 558020734 -1078991490 256856775 1214366215 -664434302 -1385297294 1501524994 653938808 1659451127 1460979060 -1293730674 -1051926809 1537262739 -403443574 1456400585 -753171300 -1207353988 -269643232 615714316 -230885356 2029470543 -393609229 872406315 -1519967648 -1372240587 1817164608 907937697 289729148 -445517828 -1677380076
REM
CELL 1.54180   50.00000   50.00000   50.00000   90.00000   90.00000   90.00000
LATT -1
SFAC C  
C      1  0.5329670000000  0.4466660000000  0.4535580000000 1.0
C      1  0.5544150000000  0.4465140000000  0.5169250000000 1.0
C      1  0.5006570000000  0.4466100000000  0.5569650000000 1.0
C      1  0.4460330000000  0.4466060000000  0.5182320000000 1.0
C      1  0.4659720000000  0.4466390000000  0.4543160000000 1.0
C      1  0.5271070000000  0.4626280000000  0.5511160000000 1.0
C      1  0.4597720000000  0.4626370000000  0.5415620000000 1.0
C      1  0.4480260000000  0.4626200000000  0.4745990000000 1.0
C      1  0.5081240000000  0.4626040000000  0.4426830000000 1.0
C      1  0.5570030000000  0.4626110000000  0.4900060000000 1.0
C      1  0.4577550000000  0.5324570000000  0.5522260000000 1.0
C      1  0.4372780000000  0.5324470000000  0.4759620000000 1.0
C      1  0.5034790000000  0.5324530000000  0.4329120000000 1.0
C      1  0.5648790000000  0.5324700000000  0.4826050000000 1.0
C      1  0.5366070000000  0.5324420000000  0.5563050000000 1.0
C      1  0.4744150000000  0.5287050000000  0.4391560000000 1.0
C      1  0.5499530000000  0.5286950000000  0.4569100000000 1.0
C      1  0.5564400000000  0.5286910000000  0.5341770000000 1.0
C      1  0.4849250000000  0.5287100000000  0.5642680000000 1.0
C      1  0.4342310000000  0.5287010000000  0.5055280000000 1.0
C      1  0.4579590000000  0.4915800000000  0.4625220000000 1.0
C      1  0.5226420000000  0.4915720000000  0.4484140000000 1.0
C      1  0.5560530000000  0.4915800000000  0.5055960000000 1.0
C      1  0.5119970000000  0.4915860000000  0.5550510000000 1.0
C      1  0.4513730000000  0.4915860000000  0.5284260000000 1.0
C      1  0.5060610000000  0.5084000000000  0.5268620000000 1.0
C      1  0.4763190000000  0.5084030000000  0.5140760000000 1.0
C      1  0.4792890000000  0.5083980000000  0.4818330000000 1.0
C      1  0.5108600000000  0.5083920000000  0.4746890000000 1.0
C      1  0.5274110000000  0.5083920000000  0.5025180000000 1.0
C      1  0.4290030000000  0.5060570000000  0.4636170000000 1.0
C      1  0.5126650000000  0.5060710000000  0.4212160000000 1.0
C      1  0.5788910000000  0.5060870000000  0.4877160000000 1.0
C      1  0.5360670000000  0.5060630000000  0.5711800000000 1.0
C      1  0.4434460000000  0.5060650000000  0.5562850000000 1.0
C      1  0.5253820000000  0.5588070000000  0.5035490000000 1.0
C      1  0.5044630000000  0.5588150000000  0.5252440000000 1.0
C      1  0.4773650000000  0.5588200000000  0.5120500000000 1.0
C      1  0.4815390000000  0.5588180000000  0.4821990000000 1.0
C      1  0.5112160000000  0.5588180000000  0.4769470000000 1.0
C      1  0.5223060000000  0.4464720000000  0.5210040000000 1.0
C      1  0.4869210000000  0.4464990000000  0.5276420000000 1.0
C      1  0.4696590000000  0.4464470000000  0.4961170000000 1.0
C      1  0.4943040000000  0.4464610000000  0.4698690000000 1.0
C      1  0.5268160000000  0.4464460000000  0.4853210000000 1.0
C      1  0.4235230000000  0.4830730000000  0.4850010000000 1.0
C      1  0.4906430000000  0.4830860000000  0.4226140000000 1.0
C      1  0.5707270000000  0.4830860000000  0.4672030000000 1.0
C      1  0.5530410000000  0.4830720000000  0.5570900000000 1.0
C      1  0.4620770000000  0.4830890000000  0.5680870000000 1.0
C      1  0.5521950000000  0.4986460000000  0.4492690000000 1.0
C      1  0.5644090000000  0.4986360000000  0.5339710000000 1.0
C      1  0.4876060000000  0.4986430000000  0.5717760000000 1.0
C      1  0.4279200000000  0.4986420000000  0.5103750000000 1.0
C      1  0.4678500000000  0.4986370000000  0.4346490000000 1.0
C      1  0.4597130000000  0.5365780000000  0.5218570000000 1.0
C      1  0.4667650000000  0.5365710000000  0.4684410000000 1.0
C      1  0.5197360000000  0.5365690000000  0.4586470000000 1.0
C      1  0.5454250000000  0.5365610000000  0.5059970000000 1.0
C      1  0.5083270000000  0.5365700000000  0.5450680000000 1.0
END
