TITL C-21441-2359-45 -8.96228478001266e-06 125000 -320.101370096703 0 0 60 (C1) n - 1
REM
REM in /home/nfs/bkarasulu/CARBON/AIRSS/Generating-Clusters/TERSOFF/Higher-Symm/Only-C60
REM
REM
REM
REM
REM
REM ./C.cell (28575a23ae977d3b5fae324c64b13b57)
REM
REM compiler GCC version 9.2.1 20190827 (Red Hat 9.2.1-1)
REM options -cpp -mtune=generic -march=x86-64 -g -O0 -fpre-include=/usr/include/finclude/math-vector-fortran.h
REM seed -1389901363 -125058271 1347825161 -884429897 -1718987116 -1346637506 -1988568488 1480515103 -1638008201 145037821 -850205785 1178637367 1113601922 -1069520399 -1619936277 -515062661 1764882388 -791655865 2107218720 828648828 892243894 1615515900 -776601420 738979449 1870839632 -1882762180 2104343595 -231379429 -2130386716 -586705877 -44119413 -654765789 -1822992922
REM
CELL 1.54180   50.00000   50.00000   50.00000   90.00000   90.00000   90.00000
LATT -1
SFAC C  
C      1  0.5548760000000  0.4591830000000  0.5058400000000 1.0
C      1  0.4891950000000  0.5124170000000  0.5371860000000 1.0
C      1  0.4689430000000  0.5414370000000  0.5597660000000 1.0
C      1  0.4208860000000  0.4725970000000  0.4877920000000 1.0
C      1  0.4615690000000  0.4300190000000  0.4699480000000 1.0
C      1  0.5248420000000  0.4986290000000  0.5059100000000 1.0
C      1  0.4206290000000  0.4976720000000  0.5041200000000 1.0
C      1  0.5408290000000  0.5105700000000  0.5526140000000 1.0
C      1  0.5425170000000  0.4465000000000  0.4801480000000 1.0
C      1  0.5496160000000  0.4867500000000  0.4990280000000 1.0
C      1  0.5059620000000  0.5202060000000  0.4577460000000 1.0
C      1  0.4946540000000  0.5000540000000  0.5678720000000 1.0
C      1  0.5453890000000  0.4550460000000  0.5336410000000 1.0
C      1  0.4795670000000  0.4988260000000  0.4922870000000 1.0
C      1  0.5536080000000  0.5282360000000  0.4941480000000 1.0
C      1  0.5418130000000  0.4796010000000  0.5561190000000 1.0
C      1  0.4976870000000  0.4306870000000  0.5343620000000 1.0
C      1  0.4839910000000  0.4694360000000  0.4943280000000 1.0
C      1  0.5094860000000  0.4588090000000  0.5028580000000 1.0
C      1  0.5360460000000  0.5175480000000  0.4285870000000 1.0
C      1  0.5621950000000  0.4992850000000  0.4757960000000 1.0
C      1  0.5321390000000  0.5767650000000  0.4690880000000 1.0
C      1  0.4628180000000  0.4503680000000  0.5066560000000 1.0
C      1  0.4605360000000  0.5206530000000  0.4769160000000 1.0
C      1  0.5060870000000  0.5113070000000  0.4867580000000 1.0
C      1  0.4636410000000  0.4730620000000  0.4577840000000 1.0
C      1  0.5438440000000  0.4730650000000  0.4579190000000 1.0
C      1  0.5381320000000  0.5434900000000  0.4441880000000 1.0
C      1  0.4678960000000  0.4985000000000  0.5212430000000 1.0
C      1  0.5430970000000  0.5555910000000  0.5360490000000 1.0
C      1  0.5540830000000  0.4943480000000  0.4349340000000 1.0
C      1  0.5150220000000  0.5596990000000  0.5414080000000 1.0
C      1  0.5031920000000  0.5415720000000  0.4937490000000 1.0
C      1  0.4871380000000  0.5591420000000  0.4481420000000 1.0
C      1  0.5013050000000  0.5460350000000  0.5646990000000 1.0
C      1  0.5531090000000  0.5289030000000  0.5272510000000 1.0
C      1  0.5081210000000  0.5033030000000  0.4329540000000 1.0
C      1  0.4770950000000  0.5485760000000  0.4743010000000 1.0
C      1  0.5118200000000  0.4309380000000  0.4856650000000 1.0
C      1  0.4899550000000  0.4601350000000  0.4512410000000 1.0
C      1  0.5134690000000  0.4566920000000  0.5354330000000 1.0
C      1  0.4777870000000  0.5088170000000  0.4287710000000 1.0
C      1  0.5153140000000  0.5671250000000  0.4434910000000 1.0
C      1  0.4599930000000  0.5017860000000  0.4516280000000 1.0
C      1  0.5165430000000  0.5210600000000  0.5707930000000 1.0
C      1  0.4447970000000  0.5153730000000  0.5090640000000 1.0
C      1  0.5138400000000  0.4762900000000  0.4442320000000 1.0
C      1  0.5333980000000  0.5461230000000  0.4801510000000 1.0
C      1  0.5082520000000  0.4700200000000  0.5653670000000 1.0
C      1  0.5116590000000  0.4912900000000  0.5293700000000 1.0
C      1  0.4842620000000  0.4258060000000  0.5086060000000 1.0
C      1  0.4624760000000  0.4708670000000  0.5307550000000 1.0
C      1  0.4670320000000  0.4894550000000  0.5801390000000 1.0
C      1  0.4913390000000  0.4330340000000  0.4627650000000 1.0
C      1  0.4729280000000  0.4653350000000  0.5587150000000 1.0
C      1  0.4724620000000  0.5649700000000  0.5194770000000 1.0
C      1  0.4632770000000  0.5681430000000  0.4924210000000 1.0
C      1  0.4951150000000  0.5451750000000  0.5232340000000 1.0
C      1  0.4465540000000  0.5361050000000  0.5353110000000 1.0
C      1  0.4461680000000  0.4575740000000  0.4792360000000 1.0
END
