TITL C-21453-3943-35 -0.00012612918604127 125000 -331.785017867294 0 0 60 (C4) n - 1
REM
REM in /home/nfs/bkarasulu/CARBON/AIRSS/Generating-Clusters/TERSOFF/Higher-Symm/Only-C60
REM
REM
REM
REM
REM
REM ./C.cell (28575a23ae977d3b5fae324c64b13b57)
REM
REM compiler GCC version 9.2.1 20190827 (Red Hat 9.2.1-1)
REM options -cpp -mtune=generic -march=x86-64 -g -O0 -fpre-include=/usr/include/finclude/math-vector-fortran.h
REM seed 472193762 -304107452 -1781064999 5099328 897254392 -1356976891 285522719 -1942462506 986486985 -1559145760 -1244821331 906526084 -1807166197 -1593657183 -861221358 1646865906 -1204427168 -1795608081 -2075860719 1523770283 282286371 -293185743 -853884250 -574398646 -242494972 -1471902472 1007748877 72380898 1489760295 680778354 1895460311 269080767 429300988
REM
CELL 1.54180   50.00000   50.00000   50.00000   90.00000   90.00000   90.00000
LATT -1
SFAC C  
C      1  0.5684450000000  0.4912650000000  0.5211650000000 1.0
C      1  0.5211670000000  0.4912660000000  0.4315550000000 1.0
C      1  0.4315470000000  0.4912690000000  0.4788380000000 1.0
C      1  0.4788220000000  0.4912730000000  0.5684550000000 1.0
C      1  0.5684480000000  0.5128280000000  0.4788370000000 1.0
C      1  0.5211690000000  0.5128170000000  0.5684550000000 1.0
C      1  0.4315550000000  0.5128190000000  0.5211660000000 1.0
C      1  0.4788310000000  0.5128290000000  0.4315530000000 1.0
C      1  0.5046390000000  0.4529140000000  0.5406050000000 1.0
C      1  0.5406070000000  0.4529130000000  0.4953620000000 1.0
C      1  0.4953600000000  0.4529130000000  0.4593910000000 1.0
C      1  0.4593920000000  0.4529130000000  0.5046420000000 1.0
C      1  0.5046360000000  0.5511670000000  0.4593900000000 1.0
C      1  0.5406020000000  0.5511600000000  0.5046270000000 1.0
C      1  0.4953580000000  0.5511690000000  0.5406010000000 1.0
C      1  0.4594070000000  0.5511770000000  0.4953540000000 1.0
C      1  0.4716730000000  0.4947830000000  0.4537490000000 1.0
C      1  0.4537580000000  0.4947950000000  0.5283390000000 1.0
C      1  0.5283320000000  0.4947890000000  0.5462450000000 1.0
C      1  0.5462490000000  0.4947850000000  0.4716700000000 1.0
C      1  0.4716840000000  0.5093140000000  0.5462520000000 1.0
C      1  0.4537600000000  0.5092970000000  0.4716640000000 1.0
C      1  0.5283310000000  0.5093050000000  0.4537540000000 1.0
C      1  0.5462460000000  0.5093020000000  0.5283270000000 1.0
C      1  0.5062510000000  0.5222540000000  0.4768800000000 1.0
C      1  0.4768730000000  0.5222470000000  0.4937590000000 1.0
C      1  0.4937350000000  0.5222590000000  0.5231130000000 1.0
C      1  0.5231440000000  0.5222440000000  0.5062350000000 1.0
C      1  0.5062480000000  0.4818420000000  0.5231160000000 1.0
C      1  0.4768830000000  0.4818380000000  0.5062490000000 1.0
C      1  0.4937530000000  0.4818390000000  0.4768830000000 1.0
C      1  0.5231130000000  0.4818390000000  0.4937520000000 1.0
C      1  0.5467670000000  0.5409140000000  0.5354660000000 1.0
C      1  0.5354750000000  0.5409140000000  0.4532420000000 1.0
C      1  0.4532460000000  0.5409090000000  0.4645250000000 1.0
C      1  0.4645120000000  0.5409170000000  0.5467720000000 1.0
C      1  0.5467620000000  0.4631780000000  0.4645250000000 1.0
C      1  0.5354760000000  0.4631810000000  0.5467600000000 1.0
C      1  0.4532480000000  0.4631610000000  0.5354700000000 1.0
C      1  0.4645210000000  0.4631820000000  0.4532410000000 1.0
C      1  0.4776350000000  0.4295640000000  0.5023310000000 1.0
C      1  0.5023380000000  0.4295680000000  0.5223680000000 1.0
C      1  0.5223670000000  0.4295630000000  0.4976720000000 1.0
C      1  0.4976680000000  0.4295650000000  0.4776370000000 1.0
C      1  0.4776340000000  0.5745400000000  0.4976630000000 1.0
C      1  0.5023310000000  0.5745220000000  0.4776350000000 1.0
C      1  0.5223750000000  0.5745370000000  0.5023270000000 1.0
C      1  0.4976580000000  0.5745310000000  0.5223730000000 1.0
C      1  0.4444730000000  0.5413140000000  0.5218680000000 1.0
C      1  0.5218670000000  0.5413290000000  0.5555400000000 1.0
C      1  0.5555170000000  0.5413220000000  0.4781480000000 1.0
C      1  0.4781360000000  0.5413280000000  0.4444770000000 1.0
C      1  0.4444760000000  0.4627710000000  0.4781380000000 1.0
C      1  0.5218700000000  0.4627650000000  0.4444750000000 1.0
C      1  0.5555250000000  0.4627670000000  0.5218660000000 1.0
C      1  0.4781250000000  0.4627460000000  0.5555190000000 1.0
C      1  0.5845190000000  0.5020440000000  0.4999980000000 1.0
C      1  0.4999960000000  0.5020440000000  0.4154830000000 1.0
C      1  0.5000010000000  0.5020540000000  0.5845120000000 1.0
C      1  0.4154670000000  0.5020470000000  0.4999850000000 1.0
END
