TITL C-3985254-1270-779 -0.00109959167837663 125000 -320.867706033172 0 0 60 (C5) n - 1
REM
REM in /home/nfs/bkarasulu/CARBON/AIRSS/Generating-Clusters/TERSOFF/Higher-Symm/Only-C60
REM
REM
REM
REM
REM
REM ./C.cell (28575a23ae977d3b5fae324c64b13b57)
REM
REM compiler GCC version 9.2.1 20190827 (Red Hat 9.2.1-1)
REM options -cpp -mtune=generic -march=x86-64 -g -O0 -fpre-include=/usr/include/finclude/math-vector-fortran.h
REM seed 1924703849 -1644296428 -1967130124 1521001980 -1074080691 1660886416 1939661674 -18582421 -1287434080 1537361675 -1110672168 1971770129 1353311241 -614815394 -1207857839 2038486096 480650909 2140706394 931041379 771255991 -1792905471 -791875222 -110941078 876725229 243935892 2067965149 -287937638 -865917513 1441206542 -1318259908 -91539501 1819031026 -546555764
REM
CELL 1.54180   50.00000   50.00000   50.00000   90.00000   90.00000   90.00000
LATT -1
SFAC C  
C      1  0.4979890000000  0.4587960000000  0.5255280000000 1.0
C      1  0.4751110000000  0.4588080000000  0.5059730000000 1.0
C      1  0.4866170000000  0.4588070000000  0.4781890000000 1.0
C      1  0.5166260000000  0.4587900000000  0.4805200000000 1.0
C      1  0.5236730000000  0.4588010000000  0.5097950000000 1.0
C      1  0.4316600000000  0.5089610000000  0.5154360000000 1.0
C      1  0.4642030000000  0.5089620000000  0.4397700000000 1.0
C      1  0.5462190000000  0.5089680000000  0.4473370000000 1.0
C      1  0.5643620000000  0.5089630000000  0.5276840000000 1.0
C      1  0.4935610000000  0.5089640000000  0.5697680000000 1.0
C      1  0.4957870000000  0.5083160000000  0.5253350000000 1.0
C      1  0.4746030000000  0.5083150000000  0.5038170000000 1.0
C      1  0.4885200000000  0.5083170000000  0.4770190000000 1.0
C      1  0.5183090000000  0.5083170000000  0.4819760000000 1.0
C      1  0.5227990000000  0.5083170000000  0.5118380000000 1.0
C      1  0.5258210000000  0.5745110000000  0.4982860000000 1.0
C      1  0.5096120000000  0.5745090000000  0.5240360000000 1.0
C      1  0.4801130000000  0.5745070000000  0.5165780000000 1.0
C      1  0.4780910000000  0.5745090000000  0.4862180000000 1.0
C      1  0.5063400000000  0.5745110000000  0.4749130000000 1.0
C      1  0.4614170000000  0.5041480000000  0.5580470000000 1.0
C      1  0.4328680000000  0.5041580000000  0.4812460000000 1.0
C      1  0.4970960000000  0.5041470000000  0.4303710000000 1.0
C      1  0.5653290000000  0.5041490000000  0.4757160000000 1.0
C      1  0.5432790000000  0.5041460000000  0.5546270000000 1.0
C      1  0.5113610000000  0.5506450000000  0.4542880000000 1.0
C      1  0.5469870000000  0.5506460000000  0.4966840000000 1.0
C      1  0.5176740000000  0.5506400000000  0.5436640000000 1.0
C      1  0.4639370000000  0.5506350000000  0.5303030000000 1.0
C      1  0.4600370000000  0.5506390000000  0.4750680000000 1.0
C      1  0.4615530000000  0.5355240000000  0.5026890000000 1.0
C      1  0.4855610000000  0.5355280000000  0.4642590000000 1.0
C      1  0.5295290000000  0.5355300000000  0.4752220000000 1.0
C      1  0.5326880000000  0.5355280000000  0.5204270000000 1.0
C      1  0.4906770000000  0.5355240000000  0.5373970000000 1.0
C      1  0.5293970000000  0.4422740000000  0.5478990000000 1.0
C      1  0.4635290000000  0.4422760000000  0.5427700000000 1.0
C      1  0.4480540000000  0.4422730000000  0.4785240000000 1.0
C      1  0.5043920000000  0.4422670000000  0.4439650000000 1.0
C      1  0.5546580000000  0.4422590000000  0.4868500000000 1.0
C      1  0.4466060000000  0.5240230000000  0.5401680000000 1.0
C      1  0.4452980000000  0.5240250000000  0.4616340000000 1.0
C      1  0.5195860000000  0.5240220000000  0.4361200000000 1.0
C      1  0.5668080000000  0.5240280000000  0.4988890000000 1.0
C      1  0.5217030000000  0.5240280000000  0.5631950000000 1.0
C      1  0.4964210000000  0.4845180000000  0.5458360000000 1.0
C      1  0.4553020000000  0.4845130000000  0.5107520000000 1.0
C      1  0.4759490000000  0.4845040000000  0.4608150000000 1.0
C      1  0.5298410000000  0.4845030000000  0.4650200000000 1.0
C      1  0.5424920000000  0.4845120000000  0.5175650000000 1.0
C      1  0.4753240000000  0.4335940000000  0.4596900000000 1.0
C      1  0.5307150000000  0.4335890000000  0.4640810000000 1.0
C      1  0.5436550000000  0.4335990000000  0.5181100000000 1.0
C      1  0.4962690000000  0.4336070000000  0.5471210000000 1.0
C      1  0.4540360000000  0.4336060000000  0.5110100000000 1.0
C      1  0.5292500000000  0.4746950000000  0.5486170000000 1.0
C      1  0.4628010000000  0.4746930000000  0.5428370000000 1.0
C      1  0.4477270000000  0.4746900000000  0.4778530000000 1.0
C      1  0.5049040000000  0.4746870000000  0.4434510000000 1.0
C      1  0.5552750000000  0.4746790000000  0.4872080000000 1.0
END
