TITL C-3985254-1270-2020 -3.11076434560617e-06 125000 -339.246843583461 0 0 60 (C2) n - 1
REM
REM in /home/nfs/bkarasulu/CARBON/AIRSS/Generating-Clusters/TERSOFF/Higher-Symm/Only-C60
REM
REM
REM
REM
REM
REM ./C.cell (28575a23ae977d3b5fae324c64b13b57)
REM
REM compiler GCC version 9.2.1 20190827 (Red Hat 9.2.1-1)
REM options -cpp -mtune=generic -march=x86-64 -g -O0 -fpre-include=/usr/include/finclude/math-vector-fortran.h
REM seed -175193312 502286055 717538543 504595165 -1375045909 356833989 324376996 1297499467 -675220126 981650680 -1727971404 1235744398 594548692 -813148743 -511286481 -1505065803 703861458 2111518029 216144497 -1845368220 -623036282 -968735530 1899030221 466157392 770062864 -2099816750 353000112 -565540840 2131462263 275525877 -1197690944 1119902033 1873743543
REM
CELL 1.54180   50.00000   50.00000   50.00000   90.00000   90.00000   90.00000
LATT -1
SFAC C  
C      1  0.4752250000000  0.5056810000000  0.5773000000000 1.0
C      1  0.5283010000000  0.5093770000000  0.5837240000000 1.0
C      1  0.5690300000000  0.5067740000000  0.5506330000000 1.0
C      1  0.5800810000000  0.5041440000000  0.4986870000000 1.0
C      1  0.5666380000000  0.5108520000000  0.4508900000000 1.0
C      1  0.5247750000000  0.5056810000000  0.4227000000000 1.0
C      1  0.4716990000000  0.5093770000000  0.4162760000000 1.0
C      1  0.4309700000000  0.5067740000000  0.4493670000000 1.0
C      1  0.4199190000000  0.5041440000000  0.5013130000000 1.0
C      1  0.4333620000000  0.5108520000000  0.5491100000000 1.0
C      1  0.5688550000000  0.5182240000000  0.5228040000000 1.0
C      1  0.5727160000000  0.5242830000000  0.4764700000000 1.0
C      1  0.5437160000000  0.5245520000000  0.4381190000000 1.0
C      1  0.4989960000000  0.5219430000000  0.4216910000000 1.0
C      1  0.4520960000000  0.5242870000000  0.4348550000000 1.0
C      1  0.4311460000000  0.5182250000000  0.4771960000000 1.0
C      1  0.4272840000000  0.5242830000000  0.5235300000000 1.0
C      1  0.4562840000000  0.5245520000000  0.5618810000000 1.0
C      1  0.5010040000000  0.5219430000000  0.5783090000000 1.0
C      1  0.5479040000000  0.5242860000000  0.5651450000000 1.0
C      1  0.5484360000000  0.5426430000000  0.4847240000000 1.0
C      1  0.5281800000000  0.5432230000000  0.4584700000000 1.0
C      1  0.4981730000000  0.5409830000000  0.4459490000000 1.0
C      1  0.4681220000000  0.5422990000000  0.4554020000000 1.0
C      1  0.4540290000000  0.5376400000000  0.4835130000000 1.0
C      1  0.4515640000000  0.5426430000000  0.5152760000000 1.0
C      1  0.4718200000000  0.5432230000000  0.5415300000000 1.0
C      1  0.5018270000000  0.5409830000000  0.5540510000000 1.0
C      1  0.5318780000000  0.5422990000000  0.5445980000000 1.0
C      1  0.5459710000000  0.5376400000000  0.5164870000000 1.0
C      1  0.4852420000000  0.5001060000000  0.4547920000000 1.0
C      1  0.4633490000000  0.4903860000000  0.4703530000000 1.0
C      1  0.4604640000000  0.4939380000000  0.4978600000000 1.0
C      1  0.4792860000000  0.5082920000000  0.5129870000000 1.0
C      1  0.4881110000000  0.4987590000000  0.5379460000000 1.0
C      1  0.5147580000000  0.5001060000000  0.5452080000000 1.0
C      1  0.5366510000000  0.4903860000000  0.5296470000000 1.0
C      1  0.5395360000000  0.4939380000000  0.5021400000000 1.0
C      1  0.5207140000000  0.5082920000000  0.4870130000000 1.0
C      1  0.5118890000000  0.4987590000000  0.4620540000000 1.0
C      1  0.4702340000000  0.4797810000000  0.5543800000000 1.0
C      1  0.5292000000000  0.4797420000000  0.5702430000000 1.0
C      1  0.5581060000000  0.4749630000000  0.5487700000000 1.0
C      1  0.5613990000000  0.4773000000000  0.4872230000000 1.0
C      1  0.5580920000000  0.4826150000000  0.4569880000000 1.0
C      1  0.5297660000000  0.4797810000000  0.4456200000000 1.0
C      1  0.4708000000000  0.4797420000000  0.4297570000000 1.0
C      1  0.4418940000000  0.4749630000000  0.4512300000000 1.0
C      1  0.4386010000000  0.4773000000000  0.5127770000000 1.0
C      1  0.4419090000000  0.4826150000000  0.5430120000000 1.0
C      1  0.5221960000000  0.4421970000000  0.4813810000000 1.0
C      1  0.5116120000000  0.4566530000000  0.4576470000000 1.0
C      1  0.4821910000000  0.4571470000000  0.4510060000000 1.0
C      1  0.4570990000000  0.4488970000000  0.4710570000000 1.0
C      1  0.4559420000000  0.4523200000000  0.5010750000000 1.0
C      1  0.4778040000000  0.4421970000000  0.5186190000000 1.0
C      1  0.4883880000000  0.4566530000000  0.5423530000000 1.0
C      1  0.5178090000000  0.4571470000000  0.5489940000000 1.0
C      1  0.5429010000000  0.4488970000000  0.5289430000000 1.0
C      1  0.5440580000000  0.4523200000000  0.4989250000000 1.0
END
