TITL C-3985245-9316-101 -0.000517050221551257 125000 -347.44492344857 0 0 60 (C1) n - 1
REM
REM in /home/nfs/bkarasulu/CARBON/AIRSS/Generating-Clusters/TERSOFF/Higher-Symm/Only-C60
REM
REM
REM
REM
REM
REM ./C.cell (28575a23ae977d3b5fae324c64b13b57)
REM
REM compiler GCC version 9.2.1 20190827 (Red Hat 9.2.1-1)
REM options -cpp -mtune=generic -march=x86-64 -g -O0 -fpre-include=/usr/include/finclude/math-vector-fortran.h
REM seed 766133500 1628121022 -1036357710 1631523368 -19744847 238841126 -311146637 -816251183 -1704642048 357184379 -2061035187 354432718 -1450562416 -198076524 1464766147 -926488370 1062844641 -735081667 -2075072902 1064466021 -1714178885 117381681 -1186593081 -311612450 1278648529 -638977361 -935452072 -1847650406 -1805848955 -179106269 -1207712544 -1913774792 1857830655
REM
CELL 1.54180   50.00000   50.00000   50.00000   90.00000   90.00000   90.00000
LATT -1
SFAC C  
C      1  0.4843270000000  0.5107600000000  0.5856060000000 1.0
C      1  0.5847810000000  0.5106700000000  0.4688310000000 1.0
C      1  0.4346730000000  0.5119050000000  0.4447020000000 1.0
C      1  0.5155350000000  0.5108670000000  0.5853540000000 1.0
C      1  0.4145570000000  0.5093640000000  0.4683560000000 1.0
C      1  0.5684780000000  0.5110150000000  0.4422730000000 1.0
C      1  0.5552120000000  0.4710480000000  0.4874390000000 1.0
C      1  0.4627580000000  0.4720330000000  0.4640910000000 1.0
C      1  0.4833640000000  0.4713300000000  0.5512270000000 1.0
C      1  0.4426560000000  0.4701860000000  0.4890560000000 1.0
C      1  0.5378630000000  0.4714000000000  0.4595410000000 1.0
C      1  0.5158120000000  0.4716200000000  0.5506690000000 1.0
C      1  0.5719260000000  0.5400000000000  0.4771880000000 1.0
C      1  0.4455910000000  0.5409730000000  0.4497960000000 1.0
C      1  0.4836760000000  0.5407780000000  0.5731440000000 1.0
C      1  0.4285570000000  0.5391930000000  0.4766230000000 1.0
C      1  0.5557890000000  0.5402500000000  0.4497730000000 1.0
C      1  0.5155470000000  0.5408690000000  0.5732970000000 1.0
C      1  0.5529350000000  0.5443260000000  0.4997510000000 1.0
C      1  0.4740130000000  0.5444730000000  0.4563370000000 1.0
C      1  0.4743130000000  0.5448600000000  0.5453480000000 1.0
C      1  0.4480640000000  0.5429720000000  0.4990510000000 1.0
C      1  0.5269720000000  0.5446900000000  0.4552630000000 1.0
C      1  0.5253840000000  0.5452530000000  0.5458000000000 1.0
C      1  0.4442250000000  0.4412170000000  0.4985130000000 1.0
C      1  0.5250950000000  0.4432540000000  0.5472770000000 1.0
C      1  0.5284150000000  0.4431610000000  0.4541440000000 1.0
C      1  0.5543990000000  0.4425540000000  0.4979450000000 1.0
C      1  0.4744340000000  0.4428200000000  0.5477030000000 1.0
C      1  0.4707580000000  0.4441830000000  0.4558720000000 1.0
C      1  0.4889990000000  0.4816980000000  0.4750400000000 1.0
C      1  0.4778860000000  0.4833760000000  0.5242690000000 1.0
C      1  0.5450640000000  0.4871860000000  0.5104710000000 1.0
C      1  0.5123580000000  0.4871070000000  0.4591440000000 1.0
C      1  0.5198630000000  0.4833810000000  0.5231320000000 1.0
C      1  0.4522320000000  0.4860110000000  0.5123840000000 1.0
C      1  0.4165130000000  0.4836000000000  0.4826040000000 1.0
C      1  0.5283920000000  0.4879650000000  0.5723310000000 1.0
C      1  0.5533910000000  0.4860430000000  0.4378070000000 1.0
C      1  0.5818230000000  0.4851860000000  0.4834200000000 1.0
C      1  0.4714210000000  0.4874620000000  0.5733670000000 1.0
C      1  0.4527910000000  0.4891720000000  0.4415030000000 1.0
C      1  0.5293420000000  0.4268720000000  0.4998650000000 1.0
C      1  0.4848470000000  0.4267100000000  0.4746190000000 1.0
C      1  0.4848790000000  0.4262490000000  0.5257060000000 1.0
C      1  0.4699340000000  0.4261100000000  0.5002200000000 1.0
C      1  0.5144240000000  0.4270310000000  0.4744680000000 1.0
C      1  0.5146930000000  0.4264960000000  0.5254970000000 1.0
C      1  0.4707400000000  0.5225460000000  0.5005610000000 1.0
C      1  0.5149950000000  0.5249990000000  0.5257890000000 1.0
C      1  0.5147870000000  0.5256410000000  0.4754920000000 1.0
C      1  0.5294400000000  0.5249500000000  0.5008140000000 1.0
C      1  0.4853810000000  0.5246430000000  0.5256760000000 1.0
C      1  0.4859180000000  0.5235830000000  0.4748500000000 1.0
C      1  0.5155060000000  0.5681410000000  0.4737380000000 1.0
C      1  0.4691680000000  0.5673130000000  0.5000760000000 1.0
C      1  0.5151960000000  0.5683480000000  0.5266790000000 1.0
C      1  0.4848090000000  0.5681560000000  0.4736640000000 1.0
C      1  0.5307410000000  0.5678290000000  0.5002870000000 1.0
C      1  0.4843590000000  0.5681680000000  0.5265550000000 1.0
END
