TITL C-3985245-9316-233 0.000178222069034649 125000 -337.580394088188 0 0 60 (Ci) n - 1
REM
REM in /home/nfs/bkarasulu/CARBON/AIRSS/Generating-Clusters/TERSOFF/Higher-Symm/Only-C60
REM
REM
REM
REM
REM
REM ./C.cell (28575a23ae977d3b5fae324c64b13b57)
REM
REM compiler GCC version 9.2.1 20190827 (Red Hat 9.2.1-1)
REM options -cpp -mtune=generic -march=x86-64 -g -O0 -fpre-include=/usr/include/finclude/math-vector-fortran.h
REM seed -405473895 1894654233 611597422 -1332281560 1383641802 -2033529988 856107936 -579289558 -1868505614 731849925 -1590502332 1867509461 -252255812 -1603920123 -66039428 -1574353427 1937430423 -1605244833 107317874 977586263 562963840 -1135584446 964671114 1195966528 494787596 -1716510503 -2013451567 -682128578 1378962760 241329954 727249395 1114388575 -2076617980
REM
CELL 1.54180   50.00000   50.00000   50.00000   90.00000   90.00000   90.00000
LATT -1
SFAC C  
C      1  0.4673410000000  0.4965030000000  0.4906990000000 1.0
C      1  0.5326570000000  0.5034940000000  0.5092980000000 1.0
C      1  0.4960930000000  0.5339380000000  0.4907800000000 1.0
C      1  0.5039030000000  0.4660620000000  0.5092230000000 1.0
C      1  0.5422920000000  0.4970410000000  0.4485450000000 1.0
C      1  0.4577060000000  0.5029580000000  0.5514540000000 1.0
C      1  0.5274630000000  0.4778850000000  0.4937140000000 1.0
C      1  0.4725310000000  0.5221190000000  0.5062880000000 1.0
C      1  0.4682130000000  0.5272320000000  0.5695550000000 1.0
C      1  0.5317810000000  0.4727760000000  0.4304440000000 1.0
C      1  0.4804760000000  0.4699530000000  0.4922040000000 1.0
C      1  0.5195150000000  0.5300730000000  0.5077980000000 1.0
C      1  0.4736540000000  0.5164190000000  0.4358190000000 1.0
C      1  0.5263380000000  0.4835900000000  0.5641840000000 1.0
C      1  0.4464630000000  0.4473940000000  0.5020910000000 1.0
C      1  0.5535460000000  0.5525890000000  0.4979050000000 1.0
C      1  0.5168820000000  0.4868450000000  0.4670590000000 1.0
C      1  0.4831160000000  0.5131590000000  0.5329390000000 1.0
C      1  0.5318740000000  0.5616860000000  0.4737950000000 1.0
C      1  0.4681340000000  0.4383080000000  0.5262050000000 1.0
C      1  0.5374680000000  0.5110800000000  0.5543170000000 1.0
C      1  0.4625300000000  0.4889270000000  0.4456850000000 1.0
C      1  0.5174050000000  0.5776570000000  0.4967930000000 1.0
C      1  0.4826110000000  0.4223430000000  0.5032030000000 1.0
C      1  0.5133190000000  0.4590650000000  0.5494930000000 1.0
C      1  0.4866810000000  0.5409460000000  0.4505090000000 1.0
C      1  0.4925270000000  0.5629480000000  0.5034800000000 1.0
C      1  0.5074820000000  0.4370620000000  0.4965180000000 1.0
C      1  0.5212170000000  0.5373120000000  0.5565800000000 1.0
C      1  0.4787850000000  0.4626960000000  0.4434200000000 1.0
C      1  0.4299270000000  0.5358950000000  0.5247840000000 1.0
C      1  0.5700560000000  0.4640880000000  0.4752080000000 1.0
C      1  0.5608110000000  0.5230700000000  0.5047850000000 1.0
C      1  0.4391870000000  0.4769120000000  0.4952190000000 1.0
C      1  0.4314690000000  0.5087010000000  0.5359170000000 1.0
C      1  0.5685260000000  0.4912860000000  0.4640860000000 1.0
C      1  0.5516840000000  0.4410610000000  0.5175320000000 1.0
C      1  0.4483100000000  0.5589340000000  0.4824680000000 1.0
C      1  0.4641920000000  0.4756640000000  0.5603630000000 1.0
C      1  0.5358090000000  0.5243370000000  0.4396350000000 1.0
C      1  0.5160650000000  0.4378180000000  0.4680140000000 1.0
C      1  0.4839450000000  0.5621940000000  0.5319830000000 1.0
C      1  0.4691610000000  0.5625410000000  0.4615540000000 1.0
C      1  0.5308430000000  0.4374640000000  0.5384600000000 1.0
C      1  0.5490800000000  0.4585330000000  0.4942310000000 1.0
C      1  0.4509090000000  0.5414610000000  0.5057720000000 1.0
C      1  0.5624530000000  0.5139550000000  0.5369290000000 1.0
C      1  0.4375430000000  0.4860400000000  0.4630710000000 1.0
C      1  0.4906290000000  0.5392230000000  0.5507220000000 1.0
C      1  0.5093720000000  0.4607880000000  0.4492770000000 1.0
C      1  0.5182070000000  0.5427080000000  0.4542260000000 1.0
C      1  0.4818010000000  0.4572890000000  0.5457700000000 1.0
C      1  0.4746070000000  0.4515300000000  0.4711950000000 1.0
C      1  0.5253960000000  0.5484690000000  0.5287990000000 1.0
C      1  0.5778350000000  0.5114640000000  0.4832960000000 1.0
C      1  0.4221680000000  0.4885110000000  0.5167140000000 1.0
C      1  0.4598280000000  0.4259310000000  0.4793800000000 1.0
C      1  0.5401900000000  0.5740670000000  0.5206130000000 1.0
C      1  0.5065000000000  0.4943590000000  0.5278830000000 1.0
C      1  0.4934980000000  0.5056480000000  0.4721130000000 1.0
END
