TITL C-3985253-1688-553 4.75841366446207e-07 125000 -320.354259106357 0 0 60 (Cs) n - 1
REM
REM in /home/nfs/bkarasulu/CARBON/AIRSS/Generating-Clusters/TERSOFF/Higher-Symm/Only-C60
REM
REM
REM
REM
REM
REM ./C.cell (28575a23ae977d3b5fae324c64b13b57)
REM
REM compiler GCC version 9.2.1 20190827 (Red Hat 9.2.1-1)
REM options -cpp -mtune=generic -march=x86-64 -g -O0 -fpre-include=/usr/include/finclude/math-vector-fortran.h
REM seed -63830888 351614506 -1039552357 -610950649 -1109951789 -1575552331 34593611 -625893506 121134847 -913451882 -452493323 1722480515 398453661 -627640265 -1771741021 160957102 -98434516 1759204981 1669905230 294675895 788366481 1592528080 1915250534 208920110 -1959058710 2046719167 993291112 -1183546448 -142538820 -974651951 1249756131 553469288 -1693613630
REM
CELL 1.54180   50.00000   50.00000   50.00000   90.00000   90.00000   90.00000
LATT -1
SFAC C  
C      1  0.4651770000000  0.4600910000000  0.5158550000000 1.0
C      1  0.4651770000000  0.4600910000000  0.4841450000000 1.0
C      1  0.4785640000000  0.4801590000000  0.5649250000000 1.0
C      1  0.4785640000000  0.4801590000000  0.4350750000000 1.0
C      1  0.4898380000000  0.5139110000000  0.5707450000000 1.0
C      1  0.4898380000000  0.5139110000000  0.4292550000000 1.0
C      1  0.5163250000000  0.4976960000000  0.4403500000000 1.0
C      1  0.5163250000000  0.4976960000000  0.5596500000000 1.0
C      1  0.5078870000000  0.5598900000000  0.4478270000000 1.0
C      1  0.5078870000000  0.5598900000000  0.5521740000000 1.0
C      1  0.5650450000000  0.5276680000000  0.4834280000000 1.0
C      1  0.5650450000000  0.5276680000000  0.5165720000000 1.0
C      1  0.5470710000000  0.5019520000000  0.4400020000000 1.0
C      1  0.5470710000000  0.5019530000000  0.5599980000000 1.0
C      1  0.4336250000000  0.5132100000000  0.5153090000000 1.0
C      1  0.4336250000000  0.5132100000000  0.4846910000000 1.0
C      1  0.5030980000000  0.4753790000000  0.4584130000000 1.0
C      1  0.5030980000000  0.4753790000000  0.5415870000000 1.0
C      1  0.5572270000000  0.5026380000000  0.5309290000000 1.0
C      1  0.5572270000000  0.5026380000000  0.4690710000000 1.0
C      1  0.5576970000000  0.4766630000000  0.4289410000000 1.0
C      1  0.5576970000000  0.4766630000000  0.5710590000000 1.0
C      1  0.4835750000000  0.4910020000000  0.4824210000000 1.0
C      1  0.4835750000000  0.4910020000000  0.5175790000000 1.0
C      1  0.4766500000000  0.4354770000000  0.4723750000000 1.0
C      1  0.4766500000000  0.4354770000000  0.5276240000000 1.0
C      1  0.5308530000000  0.5722280000000  0.5154240000000 1.0
C      1  0.5308530000000  0.5722280000000  0.4845760000000 1.0
C      1  0.4616850000000  0.5177840000000  0.4429390000000 1.0
C      1  0.4616850000000  0.5177840000000  0.5570610000000 1.0
C      1  0.5482570000000  0.4542720000000  0.5553460000000 1.0
C      1  0.5482570000000  0.4542720000000  0.4446540000000 1.0
C      1  0.4988580000000  0.5326760000000  0.4555750000000 1.0
C      1  0.4988580000000  0.5326760000000  0.5444250000000 1.0
C      1  0.5297130000000  0.4585700000000  0.4680080000000 1.0
C      1  0.5297130000000  0.4585700000000  0.5319930000000 1.0
C      1  0.4773820000000  0.5401260000000  0.4826170000000 1.0
C      1  0.4773820000000  0.5401260000000  0.5173830000000 1.0
C      1  0.5131930000000  0.5126860000000  0.5181370000000 1.0
C      1  0.5131930000000  0.5126860000000  0.4818630000000 1.0
C      1  0.5362040000000  0.5404410000000  0.4835560000000 1.0
C      1  0.5362040000000  0.5404410000000  0.5164440000000 1.0
C      1  0.5069900000000  0.5799560000000  0.5308050000000 1.0
C      1  0.5069900000000  0.5799560000000  0.4691960000000 1.0
C      1  0.5367700000000  0.4854870000000  0.5159610000000 1.0
C      1  0.5367700000000  0.4854870000000  0.4840390000000 1.0
C      1  0.4979630000000  0.4203790000000  0.4843240000000 1.0
C      1  0.4979630000000  0.4203800000000  0.5156760000000 1.0
C      1  0.4820000000000  0.5728700000000  0.5155360000000 1.0
C      1  0.4820000000000  0.5728700000000  0.4844640000000 1.0
C      1  0.4604050000000  0.5156720000000  0.5275990000000 1.0
C      1  0.4604050000000  0.5156720000000  0.4724010000000 1.0
C      1  0.5254730000000  0.4347140000000  0.5157580000000 1.0
C      1  0.5254730000000  0.4347140000000  0.4842420000000 1.0
C      1  0.4214340000000  0.4845640000000  0.5168370000000 1.0
C      1  0.4214340000000  0.4845640000000  0.4831630000000 1.0
C      1  0.4501560000000  0.4741460000000  0.5586380000000 1.0
C      1  0.4501560000000  0.4741460000000  0.4413620000000 1.0
C      1  0.4408870000000  0.4676930000000  0.4687990000000 1.0
C      1  0.4408870000000  0.4676930000000  0.5312010000000 1.0
END
