TITL C-3985254-1270-1355 2.30399205204131e-07 125000 -317.190874851854 0 0 60 (C4) n - 1
REM
REM in /home/nfs/bkarasulu/CARBON/AIRSS/Generating-Clusters/TERSOFF/Higher-Symm/Only-C60
REM
REM
REM
REM
REM
REM ./C.cell (28575a23ae977d3b5fae324c64b13b57)
REM
REM compiler GCC version 9.2.1 20190827 (Red Hat 9.2.1-1)
REM options -cpp -mtune=generic -march=x86-64 -g -O0 -fpre-include=/usr/include/finclude/math-vector-fortran.h
REM seed -687140978 -725829842 1124214750 1099179699 -1882899336 -922204577 -972176652 1254351012 466564869 524334565 -999071253 -703375991 -1583880469 -406291176 -612991844 1183679733 -799753002 537329249 -350299031 -1143609754 758456426 401557020 -898534757 1154801800 -1664677706 -158971544 247677834 -1123358619 -1363622925 1067614249 1433562919 1168035625 2010081338
REM
CELL 1.54180   50.00000   50.00000   50.00000   90.00000   90.00000   90.00000
LATT -1
SFAC C  
C      1  0.4484290000000  0.4680130000000  0.5305200000000 1.0
C      1  0.5319870000000  0.4484290000000  0.5305200000000 1.0
C      1  0.5515710000000  0.5319870000000  0.5305200000000 1.0
C      1  0.4680130000000  0.5515710000000  0.5305200000000 1.0
C      1  0.4783780000000  0.5359110000000  0.5550370000000 1.0
C      1  0.4640890000000  0.4783780000000  0.5550370000000 1.0
C      1  0.5216220000000  0.4640890000000  0.5550370000000 1.0
C      1  0.5359110000000  0.5216220000000  0.5550370000000 1.0
C      1  0.4534510000000  0.5035800000000  0.4521670000000 1.0
C      1  0.4964200000000  0.4534510000000  0.4521670000000 1.0
C      1  0.5465490000000  0.4964200000000  0.4521670000000 1.0
C      1  0.5035800000000  0.5465490000000  0.4521670000000 1.0
C      1  0.4300530000000  0.5128270000000  0.4780720000000 1.0
C      1  0.4871730000000  0.4300530000000  0.4780720000000 1.0
C      1  0.5699470000000  0.4871730000000  0.4780720000000 1.0
C      1  0.5128270000000  0.5699470000000  0.4780720000000 1.0
C      1  0.4589970000000  0.4411940000000  0.5215100000000 1.0
C      1  0.5588060000000  0.4589970000000  0.5215100000000 1.0
C      1  0.5410030000000  0.5588060000000  0.5215100000000 1.0
C      1  0.4411940000000  0.5410030000000  0.5215100000000 1.0
C      1  0.5476090000000  0.5338550000000  0.4872840000000 1.0
C      1  0.4661450000000  0.5476090000000  0.4872840000000 1.0
C      1  0.4523910000000  0.4661450000000  0.4872840000000 1.0
C      1  0.5338550000000  0.4523910000000  0.4872840000000 1.0
C      1  0.5144410000000  0.5344150000000  0.4999910000000 1.0
C      1  0.4655850000000  0.5144410000000  0.4999910000000 1.0
C      1  0.4855590000000  0.4655850000000  0.4999910000000 1.0
C      1  0.5344150000000  0.4855590000000  0.4999910000000 1.0
C      1  0.5092970000000  0.5188170000000  0.5228130000000 1.0
C      1  0.4811830000000  0.5092970000000  0.5228130000000 1.0
C      1  0.4907030000000  0.4811830000000  0.5228130000000 1.0
C      1  0.5188170000000  0.4907030000000  0.5228130000000 1.0
C      1  0.5617240000000  0.5083100000000  0.5065700000000 1.0
C      1  0.4916900000000  0.5617240000000  0.5065700000000 1.0
C      1  0.4382760000000  0.4916900000000  0.5065700000000 1.0
C      1  0.5083100000000  0.4382760000000  0.5065700000000 1.0
C      1  0.4744060000000  0.5514710000000  0.4594630000000 1.0
C      1  0.4485290000000  0.4744060000000  0.4594630000000 1.0
C      1  0.5255940000000  0.4485290000000  0.4594630000000 1.0
C      1  0.5514710000000  0.5255940000000  0.4594630000000 1.0
C      1  0.5610830000000  0.4862080000000  0.5332960000000 1.0
C      1  0.5137920000000  0.5610830000000  0.5332960000000 1.0
C      1  0.4389170000000  0.5137920000000  0.5332960000000 1.0
C      1  0.4862080000000  0.4389170000000  0.5332960000000 1.0
C      1  0.5223700000000  0.4952090000000  0.4732770000000 1.0
C      1  0.5047910000000  0.5223700000000  0.4732770000000 1.0
C      1  0.4776300000000  0.5047910000000  0.4732770000000 1.0
C      1  0.4952090000000  0.4776300000000  0.4732770000000 1.0
C      1  0.5409890000000  0.4910190000000  0.5581690000000 1.0
C      1  0.5089810000000  0.5409890000000  0.5581690000000 1.0
C      1  0.4590110000000  0.5089810000000  0.5581690000000 1.0
C      1  0.4910190000000  0.4590110000000  0.5581690000000 1.0
C      1  0.5417180000000  0.5650800000000  0.4913340000000 1.0
C      1  0.4349200000000  0.5417180000000  0.4913340000000 1.0
C      1  0.4582820000000  0.4349200000000  0.4913340000000 1.0
C      1  0.5650800000000  0.4582820000000  0.4913340000000 1.0
C      1  0.4977020000000  0.4769810000000  0.4304950000000 1.0
C      1  0.5230190000000  0.4977020000000  0.4304950000000 1.0
C      1  0.5022980000000  0.5230190000000  0.4304950000000 1.0
C      1  0.4769810000000  0.5022980000000  0.4304950000000 1.0
END
