TITL C-3985257-5396-269 1.96200262444814e-06 125000 -354.010213359901 0 0 60 (Cs) n - 1
REM
REM in /home/nfs/bkarasulu/CARBON/AIRSS/Generating-Clusters/TERSOFF/Higher-Symm/Only-C60
REM
REM
REM
REM
REM
REM ./C.cell (28575a23ae977d3b5fae324c64b13b57)
REM
REM compiler GCC version 9.2.1 20190827 (Red Hat 9.2.1-1)
REM options -cpp -mtune=generic -march=x86-64 -g -O0 -fpre-include=/usr/include/finclude/math-vector-fortran.h
REM seed 1774498074 1388011040 656873921 1176353183 472079354 764830356 -1395044665 1624744448 41531962 -1769091668 641645276 1107530846 879917348 502613522 -1175489507 374666161 1600576342 1406243681 -1269080296 -791239884 1813835393 -570393744 1485572591 -1761305127 -1726584147 -780174650 482048042 2076936676 552725010 1761240447 -1422508796 -1823254664 1151661829
REM
CELL 1.54180   50.00000   50.00000   50.00000   90.00000   90.00000   90.00000
LATT -1
SFAC C  
C      1  0.5021090000000  0.5270640000000  0.4398960000000 1.0
C      1  0.5021090000000  0.5270640000000  0.5601040000000 1.0
C      1  0.4586520000000  0.5597170000000  0.5173320000000 1.0
C      1  0.4586510000000  0.5597180000000  0.4826680000000 1.0
C      1  0.5534350000000  0.5077590000000  0.5164940000000 1.0
C      1  0.5534340000000  0.5077580000000  0.4835070000000 1.0
C      1  0.5444680000000  0.5022620000000  0.4282210000000 1.0
C      1  0.5444670000000  0.5022630000000  0.5717810000000 1.0
C      1  0.4687710000000  0.4649210000000  0.4443360000000 1.0
C      1  0.4687720000000  0.4649200000000  0.5556630000000 1.0
C      1  0.5403950000000  0.5596540000000  0.5153600000000 1.0
C      1  0.5403950000000  0.5596530000000  0.4846410000000 1.0
C      1  0.4555140000000  0.4916230000000  0.4486920000000 1.0
C      1  0.4555150000000  0.4916220000000  0.5513070000000 1.0
C      1  0.4799710000000  0.4828470000000  0.4858580000000 1.0
C      1  0.4799710000000  0.4828500000000  0.5141450000000 1.0
C      1  0.5409950000000  0.4359720000000  0.4843920000000 1.0
C      1  0.5409980000000  0.4359770000000  0.5156020000000 1.0
C      1  0.4892790000000  0.4389010000000  0.5151640000000 1.0
C      1  0.4892770000000  0.4388990000000  0.4848330000000 1.0
C      1  0.4290600000000  0.5139650000000  0.4853560000000 1.0
C      1  0.4290610000000  0.5139640000000  0.5146440000000 1.0
C      1  0.5124040000000  0.5621140000000  0.5259740000000 1.0
C      1  0.5124040000000  0.5621140000000  0.4740270000000 1.0
C      1  0.4359600000000  0.4889840000000  0.5291970000000 1.0
C      1  0.4359590000000  0.4889840000000  0.4708030000000 1.0
C      1  0.5345140000000  0.5269110000000  0.4402620000000 1.0
C      1  0.5345140000000  0.5269120000000  0.5597390000000 1.0
C      1  0.4954710000000  0.4646610000000  0.4332540000000 1.0
C      1  0.4954730000000  0.4646590000000  0.5667450000000 1.0
C      1  0.5648560000000  0.4574400000000  0.4842990000000 1.0
C      1  0.5648620000000  0.4574420000000  0.5157050000000 1.0
C      1  0.4888310000000  0.5772840000000  0.5152480000000 1.0
C      1  0.4888310000000  0.5772840000000  0.4847520000000 1.0
C      1  0.5044260000000  0.5341450000000  0.5290780000000 1.0
C      1  0.5044260000000  0.5341440000000  0.4709220000000 1.0
C      1  0.5200690000000  0.5107360000000  0.4840430000000 1.0
C      1  0.5200710000000  0.5107370000000  0.5159560000000 1.0
C      1  0.5171390000000  0.4678730000000  0.4528550000000 1.0
C      1  0.5171410000000  0.4678740000000  0.5471440000000 1.0
C      1  0.5499650000000  0.5350550000000  0.5325700000000 1.0
C      1  0.5499650000000  0.5350540000000  0.4674320000000 1.0
C      1  0.5160370000000  0.4434080000000  0.5290490000000 1.0
C      1  0.5160350000000  0.4434050000000  0.4709470000000 1.0
C      1  0.4747480000000  0.5307550000000  0.5176860000000 1.0
C      1  0.4747470000000  0.5307550000000  0.4823130000000 1.0
C      1  0.4713650000000  0.5166860000000  0.4519550000000 1.0
C      1  0.4713660000000  0.5166860000000  0.5480440000000 1.0
C      1  0.5049450000000  0.4877740000000  0.4726100000000 1.0
C      1  0.5049460000000  0.4877770000000  0.5273920000000 1.0
C      1  0.4640440000000  0.4475800000000  0.4697540000000 1.0
C      1  0.4640450000000  0.4475800000000  0.5302440000000 1.0
C      1  0.4424570000000  0.4631610000000  0.5146260000000 1.0
C      1  0.4424570000000  0.4631620000000  0.4853740000000 1.0
C      1  0.4349810000000  0.5404340000000  0.5271110000000 1.0
C      1  0.4349800000000  0.5404350000000  0.4728900000000 1.0
C      1  0.5443570000000  0.4783800000000  0.5553640000000 1.0
C      1  0.5443550000000  0.4783780000000  0.4446370000000 1.0
C      1  0.5607760000000  0.4819310000000  0.4689370000000 1.0
C      1  0.5607790000000  0.4819330000000  0.5310650000000 1.0
END
