TITL C-3985259-1859-1349 1.42800840481583e-07 125000 -327.047319852229 0 0 60 (Td) n - 1
REM
REM in /home/nfs/bkarasulu/CARBON/AIRSS/Generating-Clusters/TERSOFF/Higher-Symm/Only-C60
REM
REM
REM
REM
REM
REM ./C.cell (28575a23ae977d3b5fae324c64b13b57)
REM
REM compiler GCC version 9.2.1 20190827 (Red Hat 9.2.1-1)
REM options -cpp -mtune=generic -march=x86-64 -g -O0 -fpre-include=/usr/include/finclude/math-vector-fortran.h
REM seed -16966846 -376002883 584003338 -695648400 -168829047 -100637942 1809233266 -234598751 -1122017866 -1301442852 -2003382709 -749416123 2070626781 483719462 -1657770066 -1906252978 1432481972 549298291 1816541404 280609107 -686215201 1425175265 1500346784 1329122259 -1956780862 1249299327 -2077012022 1743803703 -1738405156 245711032 1089053915 -442108632 1130109511
REM
CELL 1.54180   50.00000   50.00000   50.00000   90.00000   90.00000   90.00000
LATT -1
SFAC C  
C      1  0.5447810000000  0.4766190000000  0.4991890000000 1.0
C      1  0.4991890000000  0.5447810000000  0.4766190000000 1.0
C      1  0.4766190000000  0.4991890000000  0.5447810000000 1.0
C      1  0.5447810000000  0.5233810000000  0.5008110000000 1.0
C      1  0.4552190000000  0.5233810000000  0.4991890000000 1.0
C      1  0.4552190000000  0.4766190000000  0.5008110000000 1.0
C      1  0.4991890000000  0.4552190000000  0.5233810000000 1.0
C      1  0.5008110000000  0.4552190000000  0.4766190000000 1.0
C      1  0.5008110000000  0.5447810000000  0.5233810000000 1.0
C      1  0.4766190000000  0.5008110000000  0.4552190000000 1.0
C      1  0.5233810000000  0.5008110000000  0.5447810000000 1.0
C      1  0.5233810000000  0.4991890000000  0.4552190000000 1.0
C      1  0.5447810000000  0.4991890000000  0.4766190000000 1.0
C      1  0.4991890000000  0.4766190000000  0.5447810000000 1.0
C      1  0.4766190000000  0.5447810000000  0.4991890000000 1.0
C      1  0.5447810000000  0.5008110000000  0.5233810000000 1.0
C      1  0.4552190000000  0.4991890000000  0.5233810000000 1.0
C      1  0.4552190000000  0.5008110000000  0.4766190000000 1.0
C      1  0.4991890000000  0.5233810000000  0.4552190000000 1.0
C      1  0.5008110000000  0.4766190000000  0.4552190000000 1.0
C      1  0.5008110000000  0.5233810000000  0.5447810000000 1.0
C      1  0.4766190000000  0.4552190000000  0.5008110000000 1.0
C      1  0.5233810000000  0.5447810000000  0.5008110000000 1.0
C      1  0.5233810000000  0.4552190000000  0.4991890000000 1.0
C      1  0.4287830000000  0.5356050000000  0.5134830000000 1.0
C      1  0.5134830000000  0.4287830000000  0.5356050000000 1.0
C      1  0.5356050000000  0.5134830000000  0.4287830000000 1.0
C      1  0.4287830000000  0.4643950000000  0.4865170000000 1.0
C      1  0.5712170000000  0.4643950000000  0.5134830000000 1.0
C      1  0.5712170000000  0.5356050000000  0.4865170000000 1.0
C      1  0.5134830000000  0.5712170000000  0.4643950000000 1.0
C      1  0.4865170000000  0.5712170000000  0.5356050000000 1.0
C      1  0.4865170000000  0.4287830000000  0.4643950000000 1.0
C      1  0.5356050000000  0.4865170000000  0.5712170000000 1.0
C      1  0.4643950000000  0.4865170000000  0.4287830000000 1.0
C      1  0.4643950000000  0.5134830000000  0.5712170000000 1.0
C      1  0.4287830000000  0.5134830000000  0.5356050000000 1.0
C      1  0.5134830000000  0.5356050000000  0.4287830000000 1.0
C      1  0.5356050000000  0.4287830000000  0.5134830000000 1.0
C      1  0.4287830000000  0.4865170000000  0.4643950000000 1.0
C      1  0.5712170000000  0.5134830000000  0.4643950000000 1.0
C      1  0.5712170000000  0.4865170000000  0.5356050000000 1.0
C      1  0.5134830000000  0.4643950000000  0.5712170000000 1.0
C      1  0.4865170000000  0.5356050000000  0.5712170000000 1.0
C      1  0.4865170000000  0.4643950000000  0.4287830000000 1.0
C      1  0.5356050000000  0.5712170000000  0.4865170000000 1.0
C      1  0.4643950000000  0.4287830000000  0.4865170000000 1.0
C      1  0.4643950000000  0.5712170000000  0.5134830000000 1.0
C      1  0.5638240000000  0.5192400000000  0.4361760000000 1.0
C      1  0.5638240000000  0.4361760000000  0.5192400000000 1.0
C      1  0.4361760000000  0.5638240000000  0.5192400000000 1.0
C      1  0.5638240000000  0.4807600000000  0.5638240000000 1.0
C      1  0.5638240000000  0.5638240000000  0.4807600000000 1.0
C      1  0.4807600000000  0.5638240000000  0.5638240000000 1.0
C      1  0.4361760000000  0.5192400000000  0.5638240000000 1.0
C      1  0.4361760000000  0.4807600000000  0.4361760000000 1.0
C      1  0.4361760000000  0.4361760000000  0.4807600000000 1.0
C      1  0.4807600000000  0.4361760000000  0.4361760000000 1.0
C      1  0.5192400000000  0.4361760000000  0.5638240000000 1.0
C      1  0.5192400000000  0.5638240000000  0.4361760000000 1.0
END
