TITL C-3985251-913-64 0.00110352590616633 125000 -310.873622831288 0 0 60 (C5) n - 1
REM
REM in /home/nfs/bkarasulu/CARBON/AIRSS/Generating-Clusters/TERSOFF/Higher-Symm/Only-C60
REM
REM
REM
REM
REM
REM ./C.cell (28575a23ae977d3b5fae324c64b13b57)
REM
REM compiler GCC version 9.2.1 20190827 (Red Hat 9.2.1-1)
REM options -cpp -mtune=generic -march=x86-64 -g -O0 -fpre-include=/usr/include/finclude/math-vector-fortran.h
REM seed 1315006094 -197828038 -968795219 507855451 -437142833 -1234755215 -1659821090 -1172803932 -501707288 -1158420621 -1254913116 -1060941180 988470528 1066098270 -880387583 -1880975776 507618739 -368495749 -1049240535 1291173648 2108743131 1760180546 -2057494089 -631141886 -100347801 298529460 -1504903381 -1478677887 -109924301 -1777184529 1329780962 908687687 -1023318974
REM
CELL 1.54180   50.00000   50.00000   50.00000   90.00000   90.00000   90.00000
LATT -1
SFAC C  
C      1  0.4963080000000  0.5260360000000  0.4322630000000 1.0
C      1  0.4741050000000  0.5045550000000  0.4322440000000 1.0
C      1  0.4876890000000  0.4767960000000  0.4322390000000 1.0
C      1  0.5182670000000  0.4811390000000  0.4322440000000 1.0
C      1  0.5235990000000  0.5115540000000  0.4322570000000 1.0
C      1  0.5240060000000  0.5079100000000  0.5052410000000 1.0
C      1  0.4998910000000  0.5252660000000  0.5052400000000 1.0
C      1  0.4759310000000  0.5076900000000  0.5052330000000 1.0
C      1  0.4852360000000  0.4794680000000  0.5052370000000 1.0
C      1  0.5149510000000  0.4796050000000  0.5052430000000 1.0
C      1  0.4450420000000  0.4491300000000  0.4908640000000 1.0
C      1  0.5313990000000  0.4320320000000  0.4908460000000 1.0
C      1  0.5743430000000  0.5088660000000  0.4908420000000 1.0
C      1  0.5145560000000  0.5734630000000  0.4908540000000 1.0
C      1  0.4346500000000  0.5365290000000  0.4908390000000 1.0
C      1  0.4736310000000  0.4618290000000  0.5268220000000 1.0
C      1  0.5281470000000  0.4631230000000  0.5268220000000 1.0
C      1  0.5437650000000  0.5153670000000  0.5268070000000 1.0
C      1  0.4989140000000  0.5463600000000  0.5268050000000 1.0
C      1  0.4555670000000  0.5132790000000  0.5268080000000 1.0
C      1  0.5588010000000  0.5392110000000  0.4824570000000 1.0
C      1  0.4809020000000  0.5680340000000  0.4824530000000 1.0
C      1  0.4293760000000  0.5028620000000  0.4824710000000 1.0
C      1  0.4754670000000  0.4337370000000  0.4824450000000 1.0
C      1  0.5554410000000  0.4561990000000  0.4824410000000 1.0
C      1  0.5558730000000  0.4685850000000  0.5141890000000 1.0
C      1  0.5471420000000  0.5434240000000  0.5141820000000 1.0
C      1  0.4732770000000  0.5582440000000  0.5141790000000 1.0
C      1  0.4363290000000  0.4925650000000  0.5142090000000 1.0
C      1  0.4873950000000  0.4371440000000  0.5142020000000 1.0
C      1  0.5296920000000  0.5014110000000  0.4725250000000 1.0
C      1  0.5078390000000  0.5286920000000  0.4725310000000 1.0
C      1  0.4751430000000  0.5163060000000  0.4725210000000 1.0
C      1  0.4767980000000  0.4813810000000  0.4725130000000 1.0
C      1  0.5105180000000  0.4721970000000  0.4725170000000 1.0
C      1  0.4565880000000  0.5113100000000  0.5773200000000 1.0
C      1  0.4758330000000  0.4622160000000  0.5773540000000 1.0
C      1  0.5284700000000  0.4653670000000  0.5773540000000 1.0
C      1  0.5417500000000  0.5163860000000  0.5773100000000 1.0
C      1  0.4973290000000  0.5447750000000  0.5772980000000 1.0
C      1  0.4747290000000  0.4543940000000  0.4523370000000 1.0
C      1  0.5355170000000  0.4618610000000  0.4523810000000 1.0
C      1  0.5472430000000  0.5220090000000  0.4523780000000 1.0
C      1  0.4936960000000  0.5517620000000  0.4523640000000 1.0
C      1  0.4488260000000  0.5099780000000  0.4523730000000 1.0
C      1  0.4446830000000  0.4637190000000  0.5178330000000 1.0
C      1  0.5174130000000  0.4361680000000  0.5178320000000 1.0
C      1  0.5660810000000  0.4968300000000  0.5178180000000 1.0
C      1  0.5234370000000  0.5618620000000  0.5178230000000 1.0
C      1  0.4484250000000  0.5413860000000  0.5178000000000 1.0
C      1  0.4731460000000  0.5074100000000  0.5527470000000 1.0
C      1  0.4846450000000  0.4767450000000  0.5527650000000 1.0
C      1  0.5173630000000  0.4782100000000  0.5527600000000 1.0
C      1  0.5260800000000  0.5097780000000  0.5527390000000 1.0
C      1  0.4987550000000  0.5278210000000  0.5527340000000 1.0
C      1  0.4463270000000  0.4750690000000  0.4754490000000 1.0
C      1  0.5071660000000  0.4412590000000  0.4754150000000 1.0
C      1  0.5580850000000  0.4886450000000  0.4754150000000 1.0
C      1  0.5287440000000  0.5517420000000  0.4754140000000 1.0
C      1  0.4596780000000  0.5433070000000  0.4754020000000 1.0
END
