TITL C-3985256-5419-112 -0.000144108207108732 125000 -326.713763592032 0 0 60 (C1) n - 1
REM
REM in /home/nfs/bkarasulu/CARBON/AIRSS/Generating-Clusters/TERSOFF/Higher-Symm/Only-C60
REM
REM
REM
REM
REM
REM ./C.cell (28575a23ae977d3b5fae324c64b13b57)
REM
REM compiler GCC version 9.2.1 20190827 (Red Hat 9.2.1-1)
REM options -cpp -mtune=generic -march=x86-64 -g -O0 -fpre-include=/usr/include/finclude/math-vector-fortran.h
REM seed -612054808 -743665173 -731774357 -1450753190 1747926922 -1018759029 -201882554 -1967460074 -1796937894 -1884777609 801490082 798685567 -1405700761 1747287024 922455396 -2109364564 -826424197 972813045 1431511977 -1160799102 -1443229732 -1173053092 -406005392 -1144484806 811003836 -1974495147 518604185 -1510618401 722248109 -877132017 -1738957793 647611913 894966945
REM
CELL 1.54180   50.00000   50.00000   50.00000   90.00000   90.00000   90.00000
LATT -1
SFAC C  
C      1  0.4970740000000  0.4524310000000  0.4469450000000 1.0
C      1  0.5429160000000  0.5257190000000  0.4454280000000 1.0
C      1  0.4569790000000  0.5234910000000  0.4447130000000 1.0
C      1  0.4812620000000  0.5353930000000  0.4767980000000 1.0
C      1  0.4806740000000  0.4682310000000  0.4822330000000 1.0
C      1  0.5401840000000  0.4989650000000  0.4776340000000 1.0
C      1  0.5329340000000  0.4419740000000  0.4894730000000 1.0
C      1  0.5330260000000  0.5585730000000  0.4903940000000 1.0
C      1  0.4338340000000  0.4988520000000  0.4897350000000 1.0
C      1  0.4674320000000  0.5203110000000  0.5157460000000 1.0
C      1  0.5013330000000  0.4626310000000  0.5183490000000 1.0
C      1  0.5343230000000  0.5180550000000  0.5165030000000 1.0
C      1  0.5128680000000  0.5382140000000  0.4746080000000 1.0
C      1  0.4613100000000  0.4899470000000  0.4729800000000 1.0
C      1  0.5261680000000  0.4704320000000  0.4748810000000 1.0
C      1  0.4683060000000  0.4617840000000  0.4426280000000 1.0
C      1  0.5462540000000  0.4939730000000  0.4450170000000 1.0
C      1  0.4818320000000  0.5439190000000  0.4442270000000 1.0
C      1  0.5019750000000  0.5671300000000  0.5352440000000 1.0
C      1  0.4418550000000  0.4673460000000  0.5347830000000 1.0
C      1  0.5569220000000  0.4637760000000  0.5350520000000 1.0
C      1  0.5546580000000  0.5377030000000  0.4704710000000 1.0
C      1  0.4406540000000  0.5276030000000  0.4695740000000 1.0
C      1  0.5030610000000  0.4347360000000  0.4705410000000 1.0
C      1  0.4526550000000  0.5518610000000  0.4909400000000 1.0
C      1  0.4776410000000  0.4341240000000  0.4919380000000 1.0
C      1  0.5691220000000  0.5146620000000  0.4916740000000 1.0
C      1  0.4923740000000  0.4701500000000  0.5444100000000 1.0
C      1  0.5304160000000  0.5071210000000  0.5429760000000 1.0
C      1  0.4782790000000  0.5225370000000  0.5424120000000 1.0
C      1  0.5126690000000  0.4193730000000  0.5375430000000 1.0
C      1  0.5634620000000  0.5515010000000  0.5380760000000 1.0
C      1  0.4233300000000  0.5282690000000  0.5367770000000 1.0
C      1  0.4648480000000  0.4789350000000  0.5504990000000 1.0
C      1  0.5361830000000  0.4790120000000  0.5505110000000 1.0
C      1  0.4996750000000  0.5412420000000  0.5500180000000 1.0
C      1  0.4817930000000  0.5089200000000  0.4924990000000 1.0
C      1  0.5038110000000  0.4811070000000  0.4955120000000 1.0
C      1  0.5172160000000  0.5120220000000  0.4932570000000 1.0
C      1  0.4628570000000  0.4931150000000  0.4412220000000 1.0
C      1  0.5208910000000  0.4718140000000  0.4419190000000 1.0
C      1  0.5143000000000  0.5366120000000  0.4412180000000 1.0
C      1  0.4345460000000  0.5177030000000  0.5615080000000 1.0
C      1  0.5168590000000  0.4336840000000  0.5627680000000 1.0
C      1  0.5481850000000  0.5470580000000  0.5625320000000 1.0
C      1  0.4381980000000  0.5259280000000  0.5114140000000 1.0
C      1  0.5074140000000  0.4340150000000  0.5122810000000 1.0
C      1  0.5542420000000  0.5402820000000  0.5123390000000 1.0
C      1  0.5715830000000  0.4794200000000  0.4577560000000 1.0
C      1  0.4808490000000  0.5728540000000  0.4578370000000 1.0
C      1  0.4466290000000  0.4475240000000  0.4574530000000 1.0
C      1  0.5045840000000  0.5697320000000  0.5054810000000 1.0
C      1  0.4385960000000  0.4689010000000  0.5047440000000 1.0
C      1  0.5574340000000  0.4606940000000  0.5051180000000 1.0
C      1  0.4464730000000  0.4445990000000  0.4874630000000 1.0
C      1  0.5755320000000  0.4793810000000  0.4883390000000 1.0
C      1  0.4792670000000  0.5754750000000  0.4885690000000 1.0
C      1  0.4619460000000  0.5066860000000  0.5613040000000 1.0
C      1  0.5137330000000  0.4632610000000  0.5639120000000 1.0
C      1  0.5245740000000  0.5292350000000  0.5618230000000 1.0
END
