TITL C-3985250-725-467 3.87107009650914e-07 125000 -347.93266651332 0 0 60 (C6h) n - 1
REM
REM in /home/nfs/bkarasulu/CARBON/AIRSS/Generating-Clusters/TERSOFF/Higher-Symm/Only-C60
REM
REM
REM
REM
REM
REM ./C.cell (28575a23ae977d3b5fae324c64b13b57)
REM
REM compiler GCC version 9.2.1 20190827 (Red Hat 9.2.1-1)
REM options -cpp -mtune=generic -march=x86-64 -g -O0 -fpre-include=/usr/include/finclude/math-vector-fortran.h
REM seed 1695531252 1745284771 1920053935 -228148943 -1977067548 -1329159043 1991923205 -1852578044 2135745751 1338464952 -998129685 889843255 839569154 -1687321549 1043841750 -96617038 790395529 1278350189 -402331428 2065152129 500431646 1117483215 -683850752 -81014498 1583453701 1410755582 1780799396 -887401952 -464900405 1162888295 943132875 661862402 287452376
REM
CELL 1.54180   50.00000   50.00000   50.00000   90.00000   90.00000   90.00000
LATT -1
SFAC C  
C      1  0.4843420000000  0.4867610000000  0.4719900000000 1.0
C      1  0.4843420000000  0.5176370000000  0.4745300000000 1.0
C      1  0.4843420000000  0.5308770000000  0.5025390000000 1.0
C      1  0.4843420000000  0.5132390000000  0.5280100000000 1.0
C      1  0.4843420000000  0.4823630000000  0.5254700000000 1.0
C      1  0.4843420000000  0.4691230000000  0.4974610000000 1.0
C      1  0.5156580000000  0.4867610000000  0.4719900000000 1.0
C      1  0.5156580000000  0.5176370000000  0.4745300000000 1.0
C      1  0.5156580000000  0.5308770000000  0.5025390000000 1.0
C      1  0.5156580000000  0.5132390000000  0.5280100000000 1.0
C      1  0.5156580000000  0.4823630000000  0.5254700000000 1.0
C      1  0.5156580000000  0.4691230000000  0.4974610000000 1.0
C      1  0.4843250000000  0.4813380000000  0.5706590000000 1.0
C      1  0.4843250000000  0.4294770000000  0.5191680000000 1.0
C      1  0.4843250000000  0.4481380000000  0.4485090000000 1.0
C      1  0.4843250000000  0.5186620000000  0.4293410000000 1.0
C      1  0.4843250000000  0.5705230000000  0.4808320000000 1.0
C      1  0.4843250000000  0.5518620000000  0.5514910000000 1.0
C      1  0.5156750000000  0.4813380000000  0.5706590000000 1.0
C      1  0.5156750000000  0.4294770000000  0.5191680000000 1.0
C      1  0.5156750000000  0.4481380000000  0.4485090000000 1.0
C      1  0.5156750000000  0.5186620000000  0.4293410000000 1.0
C      1  0.5156750000000  0.5705230000000  0.4808320000000 1.0
C      1  0.5156750000000  0.5518620000000  0.5514910000000 1.0
C      1  0.5319580000000  0.5571890000000  0.5045420000000 1.0
C      1  0.5319580000000  0.5246610000000  0.5517980000000 1.0
C      1  0.5319580000000  0.4674720000000  0.5472560000000 1.0
C      1  0.5319580000000  0.4428110000000  0.4954580000000 1.0
C      1  0.5319580000000  0.4753390000000  0.4482020000000 1.0
C      1  0.5319580000000  0.5325280000000  0.4527440000000 1.0
C      1  0.4680420000000  0.5571890000000  0.5045420000000 1.0
C      1  0.4680420000000  0.5246610000000  0.5517980000000 1.0
C      1  0.4680420000000  0.4674720000000  0.5472560000000 1.0
C      1  0.4680420000000  0.4428110000000  0.4954580000000 1.0
C      1  0.4680420000000  0.4753390000000  0.4482020000000 1.0
C      1  0.4680420000000  0.5325280000000  0.4527440000000 1.0
C      1  0.4718900000000  0.5073850000000  0.5751140000000 1.0
C      1  0.4718900000000  0.4386420000000  0.5439530000000 1.0
C      1  0.4718900000000  0.4312560000000  0.4688390000000 1.0
C      1  0.4718900000000  0.4926150000000  0.4248860000000 1.0
C      1  0.4718900000000  0.5613580000000  0.4560470000000 1.0
C      1  0.4718900000000  0.5687440000000  0.5311610000000 1.0
C      1  0.5281100000000  0.5073850000000  0.5751140000000 1.0
C      1  0.5281100000000  0.4386420000000  0.5439530000000 1.0
C      1  0.5281100000000  0.4312560000000  0.4688390000000 1.0
C      1  0.5281100000000  0.4926150000000  0.4248860000000 1.0
C      1  0.5281100000000  0.5613580000000  0.4560470000000 1.0
C      1  0.5281100000000  0.5687440000000  0.5311610000000 1.0
C      1  0.5575500000000  0.5318520000000  0.5016300000000 1.0
C      1  0.5575500000000  0.5145140000000  0.5283990000000 1.0
C      1  0.5575500000000  0.4826620000000  0.5267690000000 1.0
C      1  0.5575500000000  0.4681480000000  0.4983700000000 1.0
C      1  0.5575500000000  0.4854860000000  0.4716010000000 1.0
C      1  0.5575500000000  0.5173380000000  0.4732310000000 1.0
C      1  0.4424500000000  0.5318520000000  0.5016300000000 1.0
C      1  0.4424500000000  0.5145140000000  0.5283990000000 1.0
C      1  0.4424500000000  0.4826620000000  0.5267690000000 1.0
C      1  0.4424500000000  0.4681480000000  0.4983700000000 1.0
C      1  0.4424500000000  0.4854860000000  0.4716010000000 1.0
C      1  0.4424500000000  0.5173380000000  0.4732310000000 1.0
END
