TITL C-3985244-725-127 -0.000151687034009427 125000 -336.353264204807 0 0 60 (C1) n - 1
REM
REM in /home/nfs/bkarasulu/CARBON/AIRSS/Generating-Clusters/TERSOFF/Higher-Symm/Only-C60
REM
REM
REM
REM
REM
REM ./C.cell (28575a23ae977d3b5fae324c64b13b57)
REM
REM compiler GCC version 9.2.1 20190827 (Red Hat 9.2.1-1)
REM options -cpp -mtune=generic -march=x86-64 -g -O0 -fpre-include=/usr/include/finclude/math-vector-fortran.h
REM seed 596837783 847793160 603777409 -1774336733 -89086650 136912563 -472698909 1127751404 -1397630548 -1260599423 -53094138 -1245664320 643801951 83327085 2097246208 -385194526 -361343409 1710814258 111063941 -1876480515 -1399502663 -601886381 1306673125 812402964 1570285299 -1951886223 -47023159 -1326191429 2078102680 935245981 -552392512 -1690098326 1193280202
REM
CELL 1.54180   50.00000   50.00000   50.00000   90.00000   90.00000   90.00000
LATT -1
SFAC C  
C      1  0.4489760000000  0.5041200000000  0.4655840000000 1.0
C      1  0.4625230000000  0.4743400000000  0.4650490000000 1.0
C      1  0.4867190000000  0.4509100000000  0.4640270000000 1.0
C      1  0.5147000000000  0.4484080000000  0.4734240000000 1.0
C      1  0.5379880000000  0.4651440000000  0.4645710000000 1.0
C      1  0.5492750000000  0.4985560000000  0.4652340000000 1.0
C      1  0.5383640000000  0.5248520000000  0.4752590000000 1.0
C      1  0.5153010000000  0.5410490000000  0.4629760000000 1.0
C      1  0.4877410000000  0.5465900000000  0.4749860000000 1.0
C      1  0.4620980000000  0.5350550000000  0.4655570000000 1.0
C      1  0.5634490000000  0.4597480000000  0.5112970000000 1.0
C      1  0.5731540000000  0.4872300000000  0.5113630000000 1.0
C      1  0.5491630000000  0.5479910000000  0.5176980000000 1.0
C      1  0.5267400000000  0.5697480000000  0.5189550000000 1.0
C      1  0.4955470000000  0.5706450000000  0.5174840000000 1.0
C      1  0.4359660000000  0.5416650000000  0.5109430000000 1.0
C      1  0.4258970000000  0.5141070000000  0.5108230000000 1.0
C      1  0.4549200000000  0.4554490000000  0.5131760000000 1.0
C      1  0.4753010000000  0.4307940000000  0.5165570000000 1.0
C      1  0.5065930000000  0.4278390000000  0.5173690000000 1.0
C      1  0.5569150000000  0.4500380000000  0.4842400000000 1.0
C      1  0.5735720000000  0.4991010000000  0.4843720000000 1.0
C      1  0.5561680000000  0.5393410000000  0.4919780000000 1.0
C      1  0.5266890000000  0.5679340000000  0.4829170000000 1.0
C      1  0.4851250000000  0.5695020000000  0.4914980000000 1.0
C      1  0.4434080000000  0.5509370000000  0.4839760000000 1.0
C      1  0.4258130000000  0.5022450000000  0.4842850000000 1.0
C      1  0.4453760000000  0.4621240000000  0.4866470000000 1.0
C      1  0.4725100000000  0.4302270000000  0.4834540000000 1.0
C      1  0.5194500000000  0.4278040000000  0.4922320000000 1.0
C      1  0.5174240000000  0.5474710000000  0.5650600000000 1.0
C      1  0.4872430000000  0.5449730000000  0.5652290000000 1.0
C      1  0.4558980000000  0.5340920000000  0.5602690000000 1.0
C      1  0.4466720000000  0.5064890000000  0.5597660000000 1.0
C      1  0.4662220000000  0.4790680000000  0.5613840000000 1.0
C      1  0.4819340000000  0.4532090000000  0.5632020000000 1.0
C      1  0.5120110000000  0.4533700000000  0.5652790000000 1.0
C      1  0.5429420000000  0.4665800000000  0.5606190000000 1.0
C      1  0.5527050000000  0.4942850000000  0.5606020000000 1.0
C      1  0.5355920000000  0.5230870000000  0.5647760000000 1.0
C      1  0.5274050000000  0.5700910000000  0.5497520000000 1.0
C      1  0.4780100000000  0.5632180000000  0.5396790000000 1.0
C      1  0.4478080000000  0.5529930000000  0.5357940000000 1.0
C      1  0.4287380000000  0.4974260000000  0.5347010000000 1.0
C      1  0.4468560000000  0.4717460000000  0.5362180000000 1.0
C      1  0.4709750000000  0.4314440000000  0.5471110000000 1.0
C      1  0.5229340000000  0.4359190000000  0.5401050000000 1.0
C      1  0.5521790000000  0.4479680000000  0.5362790000000 1.0
C      1  0.5716370000000  0.5032720000000  0.5363800000000 1.0
C      1  0.5560790000000  0.5307310000000  0.5400790000000 1.0
C      1  0.4475450000000  0.5044140000000  0.4317790000000 1.0
C      1  0.4589550000000  0.4746290000000  0.4297470000000 1.0
C      1  0.4853850000000  0.4579660000000  0.4337390000000 1.0
C      1  0.5102780000000  0.4637820000000  0.4195390000000 1.0
C      1  0.5355020000000  0.4702000000000  0.4329180000000 1.0
C      1  0.5475070000000  0.4988610000000  0.4333740000000 1.0
C      1  0.5347050000000  0.5214550000000  0.4204670000000 1.0
C      1  0.5137050000000  0.5372940000000  0.4330370000000 1.0
C      1  0.4872070000000  0.5384440000000  0.4206000000000 1.0
C      1  0.4625080000000  0.5320280000000  0.4345850000000 1.0
END
