TITL C-3985247-764-286 9.6628134722208e-06 125000 -295.809057863988 0 0 60 (Ci) n - 1
REM
REM in /home/nfs/bkarasulu/CARBON/AIRSS/Generating-Clusters/TERSOFF/Higher-Symm/Only-C60
REM
REM
REM
REM
REM
REM ./C.cell (28575a23ae977d3b5fae324c64b13b57)
REM
REM compiler GCC version 9.2.1 20190827 (Red Hat 9.2.1-1)
REM options -cpp -mtune=generic -march=x86-64 -g -O0 -fpre-include=/usr/include/finclude/math-vector-fortran.h
REM seed 1518234221 -1885672931 -1196933530 1861066298 244363637 -1326492367 -1311205418 463150380 1512236480 -2030436559 -1382764344 717433506 -1196772522 -1280548680 733374527 2123235933 1987000881 -503080561 1930605081 580467401 1838007588 354711978 1741697072 1889614339 598416702 1726731811 68485064 1956440731 1547880951 -1579030207 726288748 -227051753 -2119143928
REM
CELL 1.54180   50.00000   50.00000   50.00000   90.00000   90.00000   90.00000
LATT -1
SFAC C  
C      1  0.4540620000000  0.4580090000000  0.5084520000000 1.0
C      1  0.4590770000000  0.5402350000000  0.4810980000000 1.0
C      1  0.4787010000000  0.4628280000000  0.4632570000000 1.0
C      1  0.5047730000000  0.5370070000000  0.4578770000000 1.0
C      1  0.5311940000000  0.4598080000000  0.4671780000000 1.0
C      1  0.5459380000000  0.5419910000000  0.4915480000000 1.0
C      1  0.5409230000000  0.4597650000000  0.5189020000000 1.0
C      1  0.5213000000000  0.5371720000000  0.5367420000000 1.0
C      1  0.4952270000000  0.4629960000000  0.5421240000000 1.0
C      1  0.4688060000000  0.5401920000000  0.5328230000000 1.0
C      1  0.4415480000000  0.5698010000000  0.5067040000000 1.0
C      1  0.4504550000000  0.4298990000000  0.4696310000000 1.0
C      1  0.4767220000000  0.5687930000000  0.4465210000000 1.0
C      1  0.5099010000000  0.4327470000000  0.4419430000000 1.0
C      1  0.5418250000000  0.5677360000000  0.4582200000000 1.0
C      1  0.5584520000000  0.4301990000000  0.4932960000000 1.0
C      1  0.5495450000000  0.5701010000000  0.5303690000000 1.0
C      1  0.5232770000000  0.4312060000000  0.5534790000000 1.0
C      1  0.4900990000000  0.5672530000000  0.5580570000000 1.0
C      1  0.4581750000000  0.4322640000000  0.5417800000000 1.0
C      1  0.4463410000000  0.4806330000000  0.5320160000000 1.0
C      1  0.4369280000000  0.5200400000000  0.4961130000000 1.0
C      1  0.4501430000000  0.4807960000000  0.4614120000000 1.0
C      1  0.4829030000000  0.5180900000000  0.4398370000000 1.0
C      1  0.5235070000000  0.4818990000000  0.4424650000000 1.0
C      1  0.5536580000000  0.5193670000000  0.4679840000000 1.0
C      1  0.5630720000000  0.4799600000000  0.5038870000000 1.0
C      1  0.5498570000000  0.5192040000000  0.5385880000000 1.0
C      1  0.5170970000000  0.4819100000000  0.5601630000000 1.0
C      1  0.4764930000000  0.5181010000000  0.5575350000000 1.0
C      1  0.5062530000000  0.4360880000000  0.5265030000000 1.0
C      1  0.4893540000000  0.5654540000000  0.5257950000000 1.0
C      1  0.4761040000000  0.4337650000000  0.5148450000000 1.0
C      1  0.4724350000000  0.5654220000000  0.4979210000000 1.0
C      1  0.4794970000000  0.4360510000000  0.4823700000000 1.0
C      1  0.4937470000000  0.5639120000000  0.4734970000000 1.0
C      1  0.5106460000000  0.4345460000000  0.4742050000000 1.0
C      1  0.5238960000000  0.5662350000000  0.4851550000000 1.0
C      1  0.5275650000000  0.4345780000000  0.5020790000000 1.0
C      1  0.5205040000000  0.5639490000000  0.5176300000000 1.0
C      1  0.5342600000000  0.5389140000000  0.4513460000000 1.0
C      1  0.5581950000000  0.4582310000000  0.4806770000000 1.0
C      1  0.5588500000000  0.5429610000000  0.5189170000000 1.0
C      1  0.5364250000000  0.4587820000000  0.5489180000000 1.0
C      1  0.5012080000000  0.5387110000000  0.5594560000000 1.0
C      1  0.4657400000000  0.4610860000000  0.5486540000000 1.0
C      1  0.4418050000000  0.5417690000000  0.5193220000000 1.0
C      1  0.4411490000000  0.4570390000000  0.4810830000000 1.0
C      1  0.4635760000000  0.5412180000000  0.4510820000000 1.0
C      1  0.4987920000000  0.4612880000000  0.4405440000000 1.0
C      1  0.5717820000000  0.5041350000000  0.4873080000000 1.0
C      1  0.5658040000000  0.4946130000000  0.5306740000000 1.0
C      1  0.5346700000000  0.5066040000000  0.5622510000000 1.0
C      1  0.4904640000000  0.4938470000000  0.5702200000000 1.0
C      1  0.4497150000000  0.5045000000000  0.5512510000000 1.0
C      1  0.4282180000000  0.4958650000000  0.5126920000000 1.0
C      1  0.4341970000000  0.5053870000000  0.4693260000000 1.0
C      1  0.4653300000000  0.4933960000000  0.4377490000000 1.0
C      1  0.5095370000000  0.5061510000000  0.4297790000000 1.0
C      1  0.5502860000000  0.4954990000000  0.4487490000000 1.0
END
