TITL C-3985247-764-430 0.000489647000987581 125000 -298.890116851481 0 0 60 (S10) n - 1
REM
REM in /home/nfs/bkarasulu/CARBON/AIRSS/Generating-Clusters/TERSOFF/Higher-Symm/Only-C60
REM
REM
REM
REM
REM
REM ./C.cell (28575a23ae977d3b5fae324c64b13b57)
REM
REM compiler GCC version 9.2.1 20190827 (Red Hat 9.2.1-1)
REM options -cpp -mtune=generic -march=x86-64 -g -O0 -fpre-include=/usr/include/finclude/math-vector-fortran.h
REM seed -499825998 -703987148 1444708464 282065629 1921453614 -431421744 -1511242129 1822920324 2057198138 1219755275 557611418 1243769672 -1356225986 -1959182790 -127413249 -146828673 2004240475 -576992968 -1679659961 1172132880 -255425374 505354330 -1189703531 2021731422 206053061 2070887569 1253266508 -107493272 1248484150 957369102 128086907 261879544 1724994349
REM
CELL 1.54180   50.00000   50.00000   50.00000   90.00000   90.00000   90.00000
LATT -1
SFAC C  
C      1  0.4721770000000  0.4725220000000  0.4910140000000 1.0
C      1  0.4613400000000  0.4941290000000  0.5089840000000 1.0
C      1  0.4652710000000  0.5179750000000  0.4910250000000 1.0
C      1  0.4824660000000  0.5349590000000  0.5089760000000 1.0
C      1  0.5063630000000  0.5385780000000  0.4910270000000 1.0
C      1  0.5278230000000  0.5274780000000  0.5089860000000 1.0
C      1  0.5386600000000  0.5058710000000  0.4910160000000 1.0
C      1  0.5347290000000  0.4820250000000  0.5089750000000 1.0
C      1  0.5175340000000  0.4650410000000  0.4910240000000 1.0
C      1  0.4936370000000  0.4614220000000  0.5089730000000 1.0
C      1  0.5244920000000  0.4440130000000  0.5314280000000 1.0
C      1  0.4869020000000  0.4403140000000  0.4685760000000 1.0
C      1  0.4543230000000  0.4594100000000  0.5314260000000 1.0
C      1  0.4391900000000  0.4940120000000  0.4685760000000 1.0
C      1  0.4472860000000  0.5309000000000  0.5314220000000 1.0
C      1  0.4755080000000  0.5559870000000  0.4685720000000 1.0
C      1  0.5130980000000  0.5596860000000  0.5314240000000 1.0
C      1  0.5456770000000  0.5405900000000  0.4685740000000 1.0
C      1  0.5608100000000  0.5059880000000  0.5314240000000 1.0
C      1  0.5527140000000  0.4691000000000  0.4685780000000 1.0
C      1  0.4928650000000  0.5752120000000  0.5142920000000 1.0
C      1  0.5384390000000  0.5650440000000  0.4857070000000 1.0
C      1  0.5693180000000  0.5300280000000  0.5142910000000 1.0
C      1  0.5737310000000  0.4835480000000  0.4857080000000 1.0
C      1  0.5499820000000  0.4433440000000  0.5142920000000 1.0
C      1  0.5071350000000  0.4247880000000  0.4857080000000 1.0
C      1  0.4615610000000  0.4349560000000  0.5142930000000 1.0
C      1  0.4306820000000  0.4699720000000  0.4857090000000 1.0
C      1  0.4262690000000  0.5164520000000  0.5142920000000 1.0
C      1  0.4500180000000  0.5566560000000  0.4857080000000 1.0
C      1  0.5179450000000  0.5248590000000  0.4599440000000 1.0
C      1  0.5291310000000  0.5095680000000  0.5400650000000 1.0
C      1  0.5291790000000  0.4906130000000  0.4599320000000 1.0
C      1  0.5180990000000  0.4752530000000  0.5400640000000 1.0
C      1  0.5001050000000  0.4693470000000  0.4599440000000 1.0
C      1  0.4820550000000  0.4751410000000  0.5400560000000 1.0
C      1  0.4708690000000  0.4904320000000  0.4599350000000 1.0
C      1  0.4708210000000  0.5093870000000  0.5400680000000 1.0
C      1  0.4819010000000  0.5247470000000  0.4599360000000 1.0
C      1  0.4998950000000  0.5306530000000  0.5400560000000 1.0
C      1  0.5688510000000  0.5180980000000  0.4841950000000 1.0
C      1  0.5663400000000  0.4741720000000  0.5158050000000 1.0
C      1  0.5384890000000  0.4401100000000  0.4841940000000 1.0
C      1  0.4959360000000  0.4289250000000  0.5158050000000 1.0
C      1  0.4549360000000  0.4448880000000  0.4841960000000 1.0
C      1  0.4311490000000  0.4819020000000  0.5158050000000 1.0
C      1  0.4336600000000  0.5258280000000  0.4841950000000 1.0
C      1  0.4615110000000  0.5598900000000  0.5158060000000 1.0
C      1  0.5040640000000  0.5710750000000  0.4841950000000 1.0
C      1  0.5450640000000  0.5551120000000  0.5158040000000 1.0
C      1  0.5243500000000  0.5105080000000  0.5731910000000 1.0
C      1  0.5258760000000  0.4941880000000  0.4268100000000 1.0
C      1  0.5175190000000  0.4800880000000  0.5731920000000 1.0
C      1  0.5024700000000  0.4735940000000  0.4268070000000 1.0
C      1  0.4864760000000  0.4771850000000  0.5731930000000 1.0
C      1  0.4756500000000  0.4894920000000  0.4268090000000 1.0
C      1  0.4741240000000  0.5058120000000  0.5731900000000 1.0
C      1  0.4824810000000  0.5199120000000  0.4268080000000 1.0
C      1  0.4975300000000  0.5264060000000  0.5731930000000 1.0
C      1  0.5135240000000  0.5228150000000  0.4268070000000 1.0
END
