TITL C-3985251-913-492 0.00115471369972947 125000 -301.079875621743 0 0 60 (S12) n - 1
REM
REM in /home/nfs/bkarasulu/CARBON/AIRSS/Generating-Clusters/TERSOFF/Higher-Symm/Only-C60
REM
REM
REM
REM
REM
REM ./C.cell (28575a23ae977d3b5fae324c64b13b57)
REM
REM compiler GCC version 9.2.1 20190827 (Red Hat 9.2.1-1)
REM options -cpp -mtune=generic -march=x86-64 -g -O0 -fpre-include=/usr/include/finclude/math-vector-fortran.h
REM seed 1461189218 56882085 -1718368994 1282627947 1720175071 -511722526 416090430 1299216256 309149200 -1044030904 81488242 397356982 398961118 -1222406413 1373813030 585059322 1127630597 832191866 808671109 2144774809 195182940 1835867173 872571613 1551171621 -557262925 1984571929 -542189004 -164676945 -1273470294 -2050331453 1303633575 -272299229 1307381323
REM
CELL 1.54180   50.00000   50.00000   50.00000   90.00000   90.00000   90.00000
LATT -1
SFAC C  
C      1  0.5117670000000  0.4693470000000  0.5191690000000 1.0
C      1  0.4948580000000  0.4675590000000  0.4808310000000 1.0
C      1  0.4793310000000  0.4744800000000  0.5191690000000 1.0
C      1  0.4693470000000  0.4882330000000  0.4808310000000 1.0
C      1  0.4675590000000  0.5051420000000  0.5191690000000 1.0
C      1  0.4744800000000  0.5206690000000  0.4808310000000 1.0
C      1  0.4882330000000  0.5306530000000  0.5191690000000 1.0
C      1  0.5051420000000  0.5324410000000  0.4808310000000 1.0
C      1  0.5206690000000  0.5255200000000  0.5191690000000 1.0
C      1  0.5306530000000  0.5117670000000  0.4808310000000 1.0
C      1  0.5324410000000  0.4948580000000  0.5191690000000 1.0
C      1  0.5255200000000  0.4793310000000  0.4808310000000 1.0
C      1  0.5301020000000  0.4871450000000  0.4468560000000 1.0
C      1  0.5196420000000  0.4738200000000  0.5531400000000 1.0
C      1  0.5039130000000  0.4675030000000  0.4468510000000 1.0
C      1  0.4871450000000  0.4698980000000  0.5531440000000 1.0
C      1  0.4738200000000  0.4803580000000  0.4468600000000 1.0
C      1  0.4675030000000  0.4960870000000  0.5531490000000 1.0
C      1  0.4698980000000  0.5128550000000  0.4468560000000 1.0
C      1  0.4803580000000  0.5261800000000  0.5531400000000 1.0
C      1  0.4960870000000  0.5324970000000  0.4468510000000 1.0
C      1  0.5128550000000  0.5301020000000  0.5531440000000 1.0
C      1  0.5261800000000  0.5196420000000  0.4468600000000 1.0
C      1  0.5324970000000  0.5039130000000  0.5531490000000 1.0
C      1  0.5508380000000  0.5567950000000  0.4712450000000 1.0
C      1  0.5724220000000  0.5237650000000  0.5287570000000 1.0
C      1  0.5746060000000  0.4843710000000  0.4712380000000 1.0
C      1  0.5567950000000  0.4491620000000  0.5287550000000 1.0
C      1  0.5237650000000  0.4275780000000  0.4712430000000 1.0
C      1  0.4843710000000  0.4253940000000  0.5287620000000 1.0
C      1  0.4491620000000  0.4432050000000  0.4712450000000 1.0
C      1  0.4275780000000  0.4762350000000  0.5287570000000 1.0
C      1  0.4253940000000  0.5156290000000  0.4712380000000 1.0
C      1  0.4432050000000  0.5508380000000  0.5287550000000 1.0
C      1  0.4762350000000  0.5724220000000  0.4712430000000 1.0
C      1  0.5156290000000  0.5746060000000  0.5287620000000 1.0
C      1  0.4380820000000  0.5101440000000  0.4989050000000 1.0
C      1  0.4514420000000  0.5397510000000  0.5011050000000 1.0
C      1  0.4778180000000  0.5587070000000  0.4988920000000 1.0
C      1  0.5101440000000  0.5619180000000  0.5010950000000 1.0
C      1  0.5397510000000  0.5485580000000  0.4988950000000 1.0
C      1  0.5587070000000  0.5221820000000  0.5011080000000 1.0
C      1  0.5619180000000  0.4898560000000  0.4989050000000 1.0
C      1  0.5485580000000  0.4602490000000  0.5011050000000 1.0
C      1  0.5221820000000  0.4412930000000  0.4988920000000 1.0
C      1  0.4898560000000  0.4380820000000  0.5010950000000 1.0
C      1  0.4602490000000  0.4514420000000  0.4988950000000 1.0
C      1  0.4412930000000  0.4778180000000  0.5011080000000 1.0
C      1  0.5410750000000  0.4530190000000  0.5526780000000 1.0
C      1  0.5120810000000  0.4387770000000  0.4473190000000 1.0
C      1  0.4798510000000  0.4409410000000  0.5526800000000 1.0
C      1  0.4530190000000  0.4589250000000  0.4473220000000 1.0
C      1  0.4387770000000  0.4879190000000  0.5526810000000 1.0
C      1  0.4409410000000  0.5201490000000  0.4473200000000 1.0
C      1  0.4589250000000  0.5469810000000  0.5526780000000 1.0
C      1  0.4879190000000  0.5612230000000  0.4473190000000 1.0
C      1  0.5201490000000  0.5590590000000  0.5526800000000 1.0
C      1  0.5469810000000  0.5410750000000  0.4473220000000 1.0
C      1  0.5612230000000  0.5120810000000  0.5526810000000 1.0
C      1  0.5590590000000  0.4798510000000  0.4473200000000 1.0
END
