TITL C-3985253-1688-657 -0.0108311875959011 125000 -314.368872020965 0 0 60 (C4) n - 1
REM
REM in /home/nfs/bkarasulu/CARBON/AIRSS/Generating-Clusters/TERSOFF/Higher-Symm/Only-C60
REM
REM
REM
REM
REM
REM ./C.cell (28575a23ae977d3b5fae324c64b13b57)
REM
REM compiler GCC version 9.2.1 20190827 (Red Hat 9.2.1-1)
REM options -cpp -mtune=generic -march=x86-64 -g -O0 -fpre-include=/usr/include/finclude/math-vector-fortran.h
REM seed 338675719 1708783083 1530403857 -1313479491 1317177077 -1276144008 -2145518395 -826035801 -1947860425 1856865057 750209918 -35561141 -109668530 -2006532885 -2045589505 -1717584498 768707823 1184294660 -128914671 1297178796 1611163814 -1797958488 1229567299 -836492318 1431348276 1446050587 -1142855141 -499581332 1876026619 -1545555510 1694534610 -891302693 -828979668
REM
CELL 1.54180   50.00000   50.00000   50.00000   90.00000   90.00000   90.00000
LATT -1
SFAC C  
C      1  0.5404610000000  0.4804250000000  0.5629350000000 1.0
C      1  0.5404610000000  0.4370650000000  0.4804250000000 1.0
C      1  0.5404610000000  0.5195750000000  0.4370650000000 1.0
C      1  0.5404610000000  0.5629350000000  0.5195750000000 1.0
C      1  0.4952150000000  0.4491530000000  0.4500740000000 1.0
C      1  0.4952150000000  0.5499260000000  0.4491530000000 1.0
C      1  0.4952150000000  0.5508470000000  0.5499260000000 1.0
C      1  0.4952150000000  0.4500740000000  0.5508470000000 1.0
C      1  0.4824580000000  0.5051310000000  0.4783500000000 1.0
C      1  0.4824580000000  0.5216500000000  0.5051310000000 1.0
C      1  0.4824580000000  0.4948690000000  0.5216500000000 1.0
C      1  0.4824580000000  0.4783500000000  0.4948690000000 1.0
C      1  0.4756220000000  0.4918310000000  0.4339120000000 1.0
C      1  0.4756220000000  0.5660880000000  0.4918310000000 1.0
C      1  0.4756220000000  0.5081690000000  0.5660880000000 1.0
C      1  0.4756220000000  0.4339120000000  0.5081690000000 1.0
C      1  0.4961270000000  0.5290640000000  0.4281010000000 1.0
C      1  0.4961270000000  0.5718990000000  0.5290640000000 1.0
C      1  0.4961270000000  0.4709360000000  0.5718990000000 1.0
C      1  0.4961270000000  0.4281010000000  0.4709360000000 1.0
C      1  0.5636590000000  0.4763170000000  0.5104920000000 1.0
C      1  0.5636590000000  0.4895080000000  0.4763170000000 1.0
C      1  0.5636590000000  0.5236830000000  0.4895080000000 1.0
C      1  0.5636590000000  0.5104920000000  0.5236830000000 1.0
C      1  0.4486250000000  0.5401950000000  0.5341100000000 1.0
C      1  0.4486250000000  0.4658900000000  0.5401950000000 1.0
C      1  0.4486250000000  0.4598050000000  0.4658900000000 1.0
C      1  0.4486250000000  0.5341100000000  0.4598050000000 1.0
C      1  0.5143110000000  0.5133670000000  0.4790870000000 1.0
C      1  0.5143110000000  0.5209130000000  0.5133670000000 1.0
C      1  0.5143110000000  0.4866330000000  0.5209130000000 1.0
C      1  0.5143110000000  0.4790870000000  0.4866330000000 1.0
C      1  0.4661020000000  0.4903700000000  0.5440560000000 1.0
C      1  0.4661020000000  0.4559440000000  0.4903700000000 1.0
C      1  0.4661020000000  0.5096300000000  0.4559440000000 1.0
C      1  0.4661020000000  0.5440560000000  0.5096300000000 1.0
C      1  0.5161450000000  0.5300100000000  0.5484810000000 1.0
C      1  0.5161450000000  0.4515190000000  0.5300100000000 1.0
C      1  0.5161450000000  0.4699900000000  0.4515190000000 1.0
C      1  0.5161450000000  0.5484810000000  0.4699900000000 1.0
C      1  0.5387960000000  0.5032160000000  0.4626820000000 1.0
C      1  0.5387960000000  0.5373180000000  0.5032160000000 1.0
C      1  0.5387960000000  0.4967840000000  0.5373180000000 1.0
C      1  0.5387960000000  0.4626820000000  0.4967840000000 1.0
C      1  0.4333650000000  0.4833010000000  0.5172980000000 1.0
C      1  0.4333650000000  0.4827020000000  0.4833010000000 1.0
C      1  0.4333650000000  0.5166990000000  0.4827020000000 1.0
C      1  0.4333650000000  0.5172980000000  0.5166990000000 1.0
C      1  0.5489270000000  0.4629260000000  0.4561520000000 1.0
C      1  0.5489270000000  0.5438480000000  0.4629260000000 1.0
C      1  0.5489270000000  0.5370740000000  0.5438480000000 1.0
C      1  0.5489270000000  0.4561520000000  0.5370740000000 1.0
C      1  0.5107390000000  0.5005170000000  0.5685570000000 1.0
C      1  0.5107390000000  0.4314430000000  0.5005170000000 1.0
C      1  0.5107390000000  0.4994830000000  0.4314430000000 1.0
C      1  0.5107390000000  0.5685570000000  0.4994830000000 1.0
C      1  0.4694490000000  0.5369750000000  0.5567940000000 1.0
C      1  0.4694490000000  0.4432060000000  0.5369750000000 1.0
C      1  0.4694490000000  0.4630250000000  0.4432060000000 1.0
C      1  0.4694490000000  0.5567940000000  0.4630250000000 1.0
END
