TITL C-3985246-2097-92 0.00445167705239345 125000 -300.272193049032 0 0 60 (Cs) n - 1
REM
REM in /home/nfs/bkarasulu/CARBON/AIRSS/Generating-Clusters/TERSOFF/Higher-Symm/Only-C60
REM
REM
REM
REM
REM
REM ./C.cell (28575a23ae977d3b5fae324c64b13b57)
REM
REM compiler GCC version 9.2.1 20190827 (Red Hat 9.2.1-1)
REM options -cpp -mtune=generic -march=x86-64 -g -O0 -fpre-include=/usr/include/finclude/math-vector-fortran.h
REM seed 1089301725 -1824098414 -86826748 -1961406506 822029209 -2145909897 -380736426 -476915330 391173477 2028800366 -2078379812 1656435842 -1393744571 -2085134783 -267790901 -624463165 -695178872 393002540 1422120114 2133874333 201746078 2091485635 346889134 -262234473 1598732239 1655463172 1451818994 -1719877532 1903994725 1818644278 358717936 1111991661 -1555927558
REM
CELL 1.54180   50.00000   50.00000   50.00000   90.00000   90.00000   90.00000
LATT -1
SFAC C  
C      1  0.4746260000000  0.5441800000000  0.4595710000000 1.0
C      1  0.4746260000000  0.5441800000000  0.5404290000000 1.0
C      1  0.5353380000000  0.5677400000000  0.4699730000000 1.0
C      1  0.5353380000000  0.5677400000000  0.5300270000000 1.0
C      1  0.4500400000000  0.4806340000000  0.4426730000000 1.0
C      1  0.4500400000000  0.4806340000000  0.5573270000000 1.0
C      1  0.5294910000000  0.4494620000000  0.4544890000000 1.0
C      1  0.5294910000000  0.4494620000000  0.5455110000000 1.0
C      1  0.5037520000000  0.5191910000000  0.5784750000000 1.0
C      1  0.5037520000000  0.5191910000000  0.4215250000000 1.0
C      1  0.5345550000000  0.5541030000000  0.5562710000000 1.0
C      1  0.5345550000000  0.5541030000000  0.4437290000000 1.0
C      1  0.5464560000000  0.4507100000000  0.5179590000000 1.0
C      1  0.5464560000000  0.4507100000000  0.4820410000000 1.0
C      1  0.4497340000000  0.5401290000000  0.5182620000000 1.0
C      1  0.4497340000000  0.5401290000000  0.4817380000000 1.0
C      1  0.5095120000000  0.5644140000000  0.4852640000000 1.0
C      1  0.5095120000000  0.5644140000000  0.5147360000000 1.0
C      1  0.4806000000000  0.4671570000000  0.5586310000000 1.0
C      1  0.4806000000000  0.4671570000000  0.4413690000000 1.0
C      1  0.4789530000000  0.4728350000000  0.5276760000000 1.0
C      1  0.4789530000000  0.4728350000000  0.4723240000000 1.0
C      1  0.4529780000000  0.5089220000000  0.4841590000000 1.0
C      1  0.4529780000000  0.5089220000000  0.5158410000000 1.0
C      1  0.5583080000000  0.4822120000000  0.4814360000000 1.0
C      1  0.5583080000000  0.4822120000000  0.5185640000000 1.0
C      1  0.4356380000000  0.4878650000000  0.5298310000000 1.0
C      1  0.4356380000000  0.4878650000000  0.4701690000000 1.0
C      1  0.4902030000000  0.4249270000000  0.4821210000000 1.0
C      1  0.4902030000000  0.4249270000000  0.5178790000000 1.0
C      1  0.5277700000000  0.4909950000000  0.5172870000000 1.0
C      1  0.5277700000000  0.4909950000000  0.4827130000000 1.0
C      1  0.4846570000000  0.5056040000000  0.5176810000000 1.0
C      1  0.4846570000000  0.5056040000000  0.4823190000000 1.0
C      1  0.5050620000000  0.4677450000000  0.4855100000000 1.0
C      1  0.5050620000000  0.4677450000000  0.5144900000000 1.0
C      1  0.4999280000000  0.4402630000000  0.5452420000000 1.0
C      1  0.4999280000000  0.4402630000000  0.4547580000000 1.0
C      1  0.5291250000000  0.5248920000000  0.4846920000000 1.0
C      1  0.5291250000000  0.5248920000000  0.5153080000000 1.0
C      1  0.5303340000000  0.5238540000000  0.5594530000000 1.0
C      1  0.5303340000000  0.5238540000000  0.4405470000000 1.0
C      1  0.4093910000000  0.4919190000000  0.4852180000000 1.0
C      1  0.4093910000000  0.4919190000000  0.5147820000000 1.0
C      1  0.5090150000000  0.4997210000000  0.4577350000000 1.0
C      1  0.5090150000000  0.4997210000000  0.5422650000000 1.0
C      1  0.4990100000000  0.5363180000000  0.5233660000000 1.0
C      1  0.4990100000000  0.5363180000000  0.4766340000000 1.0
C      1  0.5516610000000  0.4957420000000  0.4485250000000 1.0
C      1  0.5516610000000  0.4957420000000  0.5514750000000 1.0
C      1  0.4798690000000  0.5358340000000  0.4302530000000 1.0
C      1  0.4798690000000  0.5358340000000  0.5697470000000 1.0
C      1  0.5530850000000  0.5478430000000  0.5154310000000 1.0
C      1  0.5530850000000  0.5478430000000  0.4845690000000 1.0
C      1  0.4524090000000  0.4660760000000  0.5145590000000 1.0
C      1  0.4524090000000  0.4660760000000  0.4854410000000 1.0
C      1  0.5339340000000  0.4733690000000  0.4359920000000 1.0
C      1  0.5339340000000  0.4733690000000  0.5640080000000 1.0
C      1  0.5045650000000  0.4853440000000  0.4277830000000 1.0
C      1  0.5045650000000  0.4853440000000  0.5722170000000 1.0
END
