TITL C-3985251-913-434 4.32037622958017e-08 125000 -325.760066972988 0 0 60 (C3) n - 1
REM
REM in /home/nfs/bkarasulu/CARBON/AIRSS/Generating-Clusters/TERSOFF/Higher-Symm/Only-C60
REM
REM
REM
REM
REM
REM ./C.cell (28575a23ae977d3b5fae324c64b13b57)
REM
REM compiler GCC version 9.2.1 20190827 (Red Hat 9.2.1-1)
REM options -cpp -mtune=generic -march=x86-64 -g -O0 -fpre-include=/usr/include/finclude/math-vector-fortran.h
REM seed -1527267691 -1375942699 67914100 525353431 -2086674531 -76025777 1828175793 1240948419 -732447774 1119630125 1525137973 1716639246 820281782 2070238827 1636580093 -684657436 1644494931 604266890 -1294367588 -355599260 -2129007678 -549781357 -1871877327 -1589344719 -1058275469 -2087861726 -510594828 -975684352 -2077819509 -761256186 -46419956 858806425 -990810304
REM
CELL 1.54180   50.00000   50.00000   50.00000   90.00000   90.00000   90.00000
LATT -1
SFAC C  
C      1  0.4519120000000  0.5290960000000  0.5464400000000 1.0
C      1  0.4987910000000  0.4438080000000  0.5464400000000 1.0
C      1  0.5492130000000  0.5270510000000  0.5464980000000 1.0
C      1  0.4519250000000  0.4708520000000  0.5464210000000 1.0
C      1  0.4987660000000  0.5561610000000  0.5464780000000 1.0
C      1  0.5492250000000  0.4729410000000  0.5464810000000 1.0
C      1  0.5630450000000  0.5336070000000  0.4370770000000 1.0
C      1  0.4394480000000  0.5377930000000  0.4370040000000 1.0
C      1  0.4976200000000  0.4286610000000  0.4370040000000 1.0
C      1  0.5630620000000  0.4664640000000  0.4370560000000 1.0
C      1  0.4394650000000  0.4622200000000  0.4369800000000 1.0
C      1  0.4975870000000  0.5713800000000  0.4370520000000 1.0
C      1  0.5251350000000  0.4240920000000  0.4825640000000 1.0
C      1  0.5531920000000  0.5597200000000  0.4826250000000 1.0
C      1  0.4217060000000  0.5162050000000  0.4825310000000 1.0
C      1  0.5251000000000  0.5759310000000  0.4826140000000 1.0
C      1  0.5532190000000  0.4403150000000  0.4825860000000 1.0
C      1  0.4217130000000  0.4837710000000  0.4825210000000 1.0
C      1  0.4443770000000  0.5239170000000  0.4619380000000 1.0
C      1  0.5071440000000  0.4398690000000  0.4619480000000 1.0
C      1  0.5485480000000  0.5362510000000  0.4620050000000 1.0
C      1  0.4443880000000  0.4760830000000  0.4619220000000 1.0
C      1  0.5071170000000  0.5601590000000  0.4619880000000 1.0
C      1  0.5485640000000  0.4637960000000  0.4619810000000 1.0
C      1  0.4378780000000  0.5363210000000  0.5025020000000 1.0
C      1  0.4996040000000  0.4280400000000  0.5025030000000 1.0
C      1  0.5625140000000  0.5356370000000  0.5025770000000 1.0
C      1  0.4378940000000  0.4636490000000  0.5024780000000 1.0
C      1  0.4995710000000  0.5719580000000  0.5025510000000 1.0
C      1  0.5625300000000  0.4643900000000  0.5025530000000 1.0
C      1  0.5008180000000  0.5313190000000  0.4714460000000 1.0
C      1  0.4725020000000  0.4850480000000  0.4714130000000 1.0
C      1  0.5267320000000  0.4836610000000  0.4714460000000 1.0
C      1  0.5008330000000  0.4687000000000  0.4714250000000 1.0
C      1  0.4724950000000  0.5149580000000  0.4714230000000 1.0
C      1  0.5267240000000  0.5163700000000  0.4714560000000 1.0
C      1  0.4382010000000  0.5770390000000  0.5351720000000 1.0
C      1  0.4641400000000  0.4079620000000  0.5351320000000 1.0
C      1  0.5975960000000  0.5149640000000  0.5352480000000 1.0
C      1  0.4382360000000  0.4229090000000  0.5351210000000 1.0
C      1  0.4640970000000  0.5919980000000  0.5351930000000 1.0
C      1  0.5976020000000  0.4850570000000  0.5352380000000 1.0
C      1  0.5006730000000  0.4696380000000  0.5309310000000 1.0
C      1  0.5259210000000  0.5157650000000  0.5309620000000 1.0
C      1  0.4733500000000  0.5145670000000  0.5309290000000 1.0
C      1  0.5006590000000  0.5303420000000  0.5309510000000 1.0
C      1  0.5259280000000  0.4842270000000  0.5309510000000 1.0
C      1  0.4733570000000  0.4854010000000  0.5309200000000 1.0
C      1  0.4938920000000  0.5425160000000  0.5011760000000 1.0
C      1  0.4662330000000  0.4734520000000  0.5011370000000 1.0
C      1  0.5398730000000  0.4840310000000  0.5011850000000 1.0
C      1  0.4939110000000  0.4574810000000  0.5011480000000 1.0
C      1  0.4662210000000  0.5265320000000  0.5011540000000 1.0
C      1  0.5398660000000  0.5159870000000  0.5011950000000 1.0
C      1  0.4353030000000  0.5478990000000  0.5306980000000 1.0
C      1  0.4908300000000  0.4200220000000  0.5306900000000 1.0
C      1  0.5738110000000  0.5320480000000  0.5307770000000 1.0
C      1  0.4353250000000  0.4520510000000  0.5306670000000 1.0
C      1  0.4907940000000  0.5799530000000  0.5307430000000 1.0
C      1  0.5738260000000  0.4679650000000  0.5307560000000 1.0
END
