TITL C-3985245-9316-693 -0.0250598828023939 125000 -321.729438683012 0 0 60 (C3) n - 1
REM
REM in /home/nfs/bkarasulu/CARBON/AIRSS/Generating-Clusters/TERSOFF/Higher-Symm/Only-C60
REM
REM
REM
REM
REM
REM ./C.cell (28575a23ae977d3b5fae324c64b13b57)
REM
REM compiler GCC version 9.2.1 20190827 (Red Hat 9.2.1-1)
REM options -cpp -mtune=generic -march=x86-64 -g -O0 -fpre-include=/usr/include/finclude/math-vector-fortran.h
REM seed 1277570137 -1096732686 1585517253 2141732283 -1781860974 -1947282094 -2121053275 1415361590 -342824235 748279188 -1486808037 1519340208 -903623225 -1813602351 -1331702754 -2020614501 -1041403137 124126745 1730900851 60080639 1946835904 -1515898731 1581704077 -1042890973 -773730025 1947207358 230444865 1916439635 267872251 1406236762 1561045664 -1473262098 512168724
REM
CELL 1.54180   50.00000   50.00000   50.00000   90.00000   90.00000   90.00000
LATT -1
SFAC C  
C      1  0.5381170000000  0.4989010000000  0.4974240000000 1.0
C      1  0.4820220000000  0.5333940000000  0.4971500000000 1.0
C      1  0.4799990000000  0.4675860000000  0.4974980000000 1.0
C      1  0.4771130000000  0.5120260000000  0.5377810000000 1.0
C      1  0.5010230000000  0.4742080000000  0.5377160000000 1.0
C      1  0.5218230000000  0.5138150000000  0.5377780000000 1.0
C      1  0.5062050000000  0.4799810000000  0.4661670000000 1.0
C      1  0.5141180000000  0.5153470000000  0.4661860000000 1.0
C      1  0.4795560000000  0.5048290000000  0.4665150000000 1.0
C      1  0.4667050000000  0.4903420000000  0.5143850000000 1.0
C      1  0.5250480000000  0.4760010000000  0.5143070000000 1.0
C      1  0.5082630000000  0.5337060000000  0.5144100000000 1.0
C      1  0.4645960000000  0.5436310000000  0.5344290000000 1.0
C      1  0.4799040000000  0.4475110000000  0.5344430000000 1.0
C      1  0.5554700000000  0.5088510000000  0.5344190000000 1.0
C      1  0.4596820000000  0.5128560000000  0.4938130000000 1.0
C      1  0.5091210000000  0.4585310000000  0.4937490000000 1.0
C      1  0.5313080000000  0.5286190000000  0.4937670000000 1.0
C      1  0.4602400000000  0.4457960000000  0.4872370000000 1.0
C      1  0.5668790000000  0.4927030000000  0.4871800000000 1.0
C      1  0.4728800000000  0.5615710000000  0.4871840000000 1.0
C      1  0.5488160000000  0.4449050000000  0.4877590000000 1.0
C      1  0.5233100000000  0.5697380000000  0.4877890000000 1.0
C      1  0.4277470000000  0.4853400000000  0.4876380000000 1.0
C      1  0.4786620000000  0.5679740000000  0.5208870000000 1.0
C      1  0.4517250000000  0.4475030000000  0.5208960000000 1.0
C      1  0.5695860000000  0.4844640000000  0.5209010000000 1.0
C      1  0.4322210000000  0.5168850000000  0.4726220000000 1.0
C      1  0.5192280000000  0.4327110000000  0.4725450000000 1.0
C      1  0.5486950000000  0.5502180000000  0.4725220000000 1.0
C      1  0.5194630000000  0.4491180000000  0.4416440000000 1.0
C      1  0.5344160000000  0.5424270000000  0.4415000000000 1.0
C      1  0.4462280000000  0.5085810000000  0.4416950000000 1.0
C      1  0.5568920000000  0.4685240000000  0.4712210000000 1.0
C      1  0.4988260000000  0.5649940000000  0.4712300000000 1.0
C      1  0.4442710000000  0.4664830000000  0.4712070000000 1.0
C      1  0.4840210000000  0.4365090000000  0.4663320000000 1.0
C      1  0.5631180000000  0.5178650000000  0.4662520000000 1.0
C      1  0.4528760000000  0.5454890000000  0.4663380000000 1.0
C      1  0.4612270000000  0.4802090000000  0.4503650000000 1.0
C      1  0.5364780000000  0.4762710000000  0.4503770000000 1.0
C      1  0.5023350000000  0.5434660000000  0.4503500000000 1.0
C      1  0.5366280000000  0.5557100000000  0.5396630000000 1.0
C      1  0.4334080000000  0.5038750000000  0.5396650000000 1.0
C      1  0.5299390000000  0.4404050000000  0.5396670000000 1.0
C      1  0.5224030000000  0.4521480000000  0.5664080000000 1.0
C      1  0.5302640000000  0.5433410000000  0.5664310000000 1.0
C      1  0.4473280000000  0.5045290000000  0.5664280000000 1.0
C      1  0.4793130000000  0.5034710000000  0.5683270000000 1.0
C      1  0.5073080000000  0.4803460000000  0.5682730000000 1.0
C      1  0.5133360000000  0.5161690000000  0.5683650000000 1.0
C      1  0.4719390000000  0.5313320000000  0.4431410000000 1.0
C      1  0.4869420000000  0.4600790000000  0.4431970000000 1.0
C      1  0.5410530000000  0.5086940000000  0.4432640000000 1.0
C      1  0.5520070000000  0.5372480000000  0.5204790000000 1.0
C      1  0.4417210000000  0.5264430000000  0.5204900000000 1.0
C      1  0.5062400000000  0.4363250000000  0.5204850000000 1.0
C      1  0.4360320000000  0.4781740000000  0.5200070000000 1.0
C      1  0.5508750000000  0.4555380000000  0.5200350000000 1.0
C      1  0.5130520000000  0.5662960000000  0.5200660000000 1.0
END
