TITL C-3985250-725-605 -0.00066029529155275 125000 -339.459970832384 0 0 60 (C1) n - 1
REM
REM in /home/nfs/bkarasulu/CARBON/AIRSS/Generating-Clusters/TERSOFF/Higher-Symm/Only-C60
REM
REM
REM
REM
REM
REM ./C.cell (28575a23ae977d3b5fae324c64b13b57)
REM
REM compiler GCC version 9.2.1 20190827 (Red Hat 9.2.1-1)
REM options -cpp -mtune=generic -march=x86-64 -g -O0 -fpre-include=/usr/include/finclude/math-vector-fortran.h
REM seed -1756608332 -248845643 669762206 148840149 -1531903927 -1785353142 1136473565 527891695 -691344674 -340572039 1120694300 -1807775339 1824099103 -1290320465 -632521300 -12854210 -1045142713 396005822 2052942513 -93173501 1096427432 -1175971437 1908181957 1958786936 -247476786 1635803530 1143812111 1639282962 -1982447311 175571858 -2094090350 1984095092 1466688420
REM
CELL 1.54180   50.00000   50.00000   50.00000   90.00000   90.00000   90.00000
LATT -1
SFAC C  
C      1  0.4978990000000  0.5130240000000  0.4604040000000 1.0
C      1  0.5301090000000  0.5209820000000  0.4955410000000 1.0
C      1  0.4850120000000  0.5060430000000  0.5585530000000 1.0
C      1  0.5533490000000  0.5040840000000  0.5504920000000 1.0
C      1  0.5093420000000  0.4630730000000  0.5069080000000 1.0
C      1  0.4951480000000  0.5709680000000  0.4534560000000 1.0
C      1  0.4708740000000  0.5046210000000  0.4681530000000 1.0
C      1  0.5461290000000  0.4889010000000  0.4675580000000 1.0
C      1  0.5398870000000  0.5327220000000  0.5445250000000 1.0
C      1  0.5600260000000  0.5307190000000  0.4899550000000 1.0
C      1  0.5339020000000  0.4699370000000  0.4483390000000 1.0
C      1  0.5758210000000  0.5128990000000  0.5071000000000 1.0
C      1  0.4782230000000  0.4322590000000  0.4808300000000 1.0
C      1  0.5620520000000  0.4902150000000  0.5214570000000 1.0
C      1  0.5204970000000  0.5601850000000  0.4615160000000 1.0
C      1  0.5545050000000  0.4733580000000  0.4948050000000 1.0
C      1  0.4744230000000  0.5236450000000  0.4266780000000 1.0
C      1  0.4536630000000  0.4759620000000  0.5048640000000 1.0
C      1  0.5171560000000  0.4628790000000  0.5553630000000 1.0
C      1  0.5054850000000  0.4244340000000  0.5266800000000 1.0
C      1  0.5096690000000  0.5098710000000  0.5736710000000 1.0
C      1  0.4614750000000  0.4531190000000  0.5206880000000 1.0
C      1  0.4875160000000  0.4599540000000  0.5636940000000 1.0
C      1  0.4861480000000  0.4651840000000  0.4426580000000 1.0
C      1  0.4430000000000  0.5331690000000  0.4802410000000 1.0
C      1  0.5518390000000  0.5574420000000  0.5020120000000 1.0
C      1  0.4707170000000  0.5600600000000  0.4637970000000 1.0
C      1  0.4682170000000  0.5529040000000  0.4959800000000 1.0
C      1  0.4585080000000  0.5060350000000  0.5717790000000 1.0
C      1  0.4313740000000  0.5109560000000  0.4985910000000 1.0
C      1  0.4272850000000  0.4798520000000  0.4896630000000 1.0
C      1  0.4733330000000  0.4968520000000  0.5005260000000 1.0
C      1  0.4563440000000  0.5380060000000  0.4473550000000 1.0
C      1  0.4887910000000  0.5093910000000  0.5279780000000 1.0
C      1  0.5257890000000  0.4456900000000  0.4665290000000 1.0
C      1  0.5266070000000  0.4876100000000  0.5227680000000 1.0
C      1  0.5532240000000  0.5198300000000  0.4605180000000 1.0
C      1  0.4856520000000  0.4399150000000  0.5092960000000 1.0
C      1  0.5305350000000  0.4892300000000  0.5651790000000 1.0
C      1  0.4447230000000  0.5149040000000  0.5260720000000 1.0
C      1  0.5007420000000  0.5512380000000  0.5090660000000 1.0
C      1  0.4464750000000  0.4927490000000  0.5484830000000 1.0
C      1  0.4408070000000  0.4643730000000  0.4664450000000 1.0
C      1  0.4621920000000  0.4801860000000  0.4530790000000 1.0
C      1  0.4965050000000  0.4424380000000  0.4603590000000 1.0
C      1  0.4919530000000  0.5494490000000  0.5430690000000 1.0
C      1  0.5307180000000  0.5352570000000  0.4466120000000 1.0
C      1  0.5370310000000  0.4484740000000  0.4998180000000 1.0
C      1  0.4633560000000  0.4658810000000  0.5463470000000 1.0
C      1  0.5539590000000  0.5550620000000  0.5312850000000 1.0
C      1  0.5244690000000  0.5623690000000  0.4913030000000 1.0
C      1  0.5097130000000  0.4820850000000  0.4329330000000 1.0
C      1  0.4500410000000  0.4371270000000  0.4733490000000 1.0
C      1  0.5305920000000  0.4404260000000  0.5348560000000 1.0
C      1  0.5051800000000  0.5152420000000  0.4315450000000 1.0
C      1  0.5190530000000  0.5020110000000  0.4775700000000 1.0
C      1  0.4995780000000  0.4841460000000  0.4908450000000 1.0
C      1  0.5171990000000  0.5218240000000  0.5225680000000 1.0
C      1  0.5145030000000  0.5374480000000  0.5614430000000 1.0
C      1  0.4616850000000  0.5413300000000  0.5268540000000 1.0
END
