TITL C-3985247-764-95 -7.19422459597719e-07 125000 -314.149659283553 0 0 60 (C6) n - 1
REM
REM in /home/nfs/bkarasulu/CARBON/AIRSS/Generating-Clusters/TERSOFF/Higher-Symm/Only-C60
REM
REM
REM
REM
REM
REM ./C.cell (28575a23ae977d3b5fae324c64b13b57)
REM
REM compiler GCC version 9.2.1 20190827 (Red Hat 9.2.1-1)
REM options -cpp -mtune=generic -march=x86-64 -g -O0 -fpre-include=/usr/include/finclude/math-vector-fortran.h
REM seed 1815315358 -1586827127 718315439 1416268578 381179974 810947019 -2063186228 2110774066 -884144488 -628698021 1870871335 2013466428 2025788605 1352560780 1270098261 288103957 988955804 1787082235 -797256786 549329904 1219581821 -1480261481 -992611624 1362575115 -1125053069 1071280246 1440331541 -439104879 -1263548672 -316208095 167801980 932022157 3560659
REM
CELL 1.54180   50.00000   50.00000   50.00000   90.00000   90.00000   90.00000
LATT -1
SFAC C  
C      1  0.5606150000000  0.5505870000000  0.5045890000000 1.0
C      1  0.5606150000000  0.5213190000000  0.5461040000000 1.0
C      1  0.5606150000000  0.4707330000000  0.5415150000000 1.0
C      1  0.5606150000000  0.4494130000000  0.4954110000000 1.0
C      1  0.5606150000000  0.4786810000000  0.4538960000000 1.0
C      1  0.5606150000000  0.5292670000000  0.4584850000000 1.0
C      1  0.4393850000000  0.4494130000000  0.5045890000000 1.0
C      1  0.4393850000000  0.4786810000000  0.5461040000000 1.0
C      1  0.4393850000000  0.5292670000000  0.5415150000000 1.0
C      1  0.4393850000000  0.5505870000000  0.4954110000000 1.0
C      1  0.4393850000000  0.5213190000000  0.4538960000000 1.0
C      1  0.4393850000000  0.4707330000000  0.4584850000000 1.0
C      1  0.4917580000000  0.5490300000000  0.5132040000000 1.0
C      1  0.4917580000000  0.5130800000000  0.5490630000000 1.0
C      1  0.4917580000000  0.4640500000000  0.5358600000000 1.0
C      1  0.4917580000000  0.4509700000000  0.4867960000000 1.0
C      1  0.4917580000000  0.4869200000000  0.4509370000000 1.0
C      1  0.4917580000000  0.5359500000000  0.4641400000000 1.0
C      1  0.5082420000000  0.4509700000000  0.5132040000000 1.0
C      1  0.5082420000000  0.4869200000000  0.5490630000000 1.0
C      1  0.5082420000000  0.5359500000000  0.5358600000000 1.0
C      1  0.5082420000000  0.5490300000000  0.4867960000000 1.0
C      1  0.5082420000000  0.5130800000000  0.4509370000000 1.0
C      1  0.5082420000000  0.4640500000000  0.4641400000000 1.0
C      1  0.5340940000000  0.4821620000000  0.4747280000000 1.0
C      1  0.5340940000000  0.5129670000000  0.4719160000000 1.0
C      1  0.5340940000000  0.5308050000000  0.4971880000000 1.0
C      1  0.5340940000000  0.5178380000000  0.5252720000000 1.0
C      1  0.5340940000000  0.4870330000000  0.5280840000000 1.0
C      1  0.5340940000000  0.4691950000000  0.5028120000000 1.0
C      1  0.4659060000000  0.5178380000000  0.4747280000000 1.0
C      1  0.4659060000000  0.4870330000000  0.4719160000000 1.0
C      1  0.4659060000000  0.4691950000000  0.4971880000000 1.0
C      1  0.4659060000000  0.4821620000000  0.5252720000000 1.0
C      1  0.4659060000000  0.5129670000000  0.5280840000000 1.0
C      1  0.4659060000000  0.5308050000000  0.5028120000000 1.0
C      1  0.4709520000000  0.5560380000000  0.4539270000000 1.0
C      1  0.4709520000000  0.5679190000000  0.5254940000000 1.0
C      1  0.4709520000000  0.5118820000000  0.5715670000000 1.0
C      1  0.4709520000000  0.4439620000000  0.5460730000000 1.0
C      1  0.4709520000000  0.4320810000000  0.4745060000000 1.0
C      1  0.4709520000000  0.4881180000000  0.4284330000000 1.0
C      1  0.5290480000000  0.4439620000000  0.4539270000000 1.0
C      1  0.5290480000000  0.4320810000000  0.5254940000000 1.0
C      1  0.5290480000000  0.4881180000000  0.5715670000000 1.0
C      1  0.5290480000000  0.5560380000000  0.5460730000000 1.0
C      1  0.5290480000000  0.5679190000000  0.4745060000000 1.0
C      1  0.5290480000000  0.5118820000000  0.4284330000000 1.0
C      1  0.4430470000000  0.5512540000000  0.4635630000000 1.0
C      1  0.4430470000000  0.5571820000000  0.5261690000000 1.0
C      1  0.4430470000000  0.5059290000000  0.5626060000000 1.0
C      1  0.4430470000000  0.4487460000000  0.5364370000000 1.0
C      1  0.4430470000000  0.4428180000000  0.4738310000000 1.0
C      1  0.4430470000000  0.4940710000000  0.4373940000000 1.0
C      1  0.5569530000000  0.4487460000000  0.4635630000000 1.0
C      1  0.5569530000000  0.4428180000000  0.5261690000000 1.0
C      1  0.5569530000000  0.4940710000000  0.5626060000000 1.0
C      1  0.5569530000000  0.5512540000000  0.5364370000000 1.0
C      1  0.5569530000000  0.5571820000000  0.4738310000000 1.0
C      1  0.5569530000000  0.5059290000000  0.4373940000000 1.0
END
