TITL C-3985245-9316-646 -0.000845482982803318 125000 -329.497273445181 0 0 60 (D2) n - 1
REM
REM in /home/nfs/bkarasulu/CARBON/AIRSS/Generating-Clusters/TERSOFF/Higher-Symm/Only-C60
REM
REM
REM
REM
REM
REM ./C.cell (28575a23ae977d3b5fae324c64b13b57)
REM
REM compiler GCC version 9.2.1 20190827 (Red Hat 9.2.1-1)
REM options -cpp -mtune=generic -march=x86-64 -g -O0 -fpre-include=/usr/include/finclude/math-vector-fortran.h
REM seed 1171024356 1193291207 -432730957 -747991029 1956144275 143102756 -1064278187 -1677766915 1205160825 -1926675788 -117668053 2092176884 1050025019 -1698928831 -1885434817 -118171453 108103595 -116785056 -1314079448 -1743498044 -762988127 -517138962 1887935402 -1261105476 -1401486106 -665603781 1292935354 1135982337 1609206091 1610423930 1435786192 -1434972934 -258118275
REM
CELL 1.54180   50.00000   50.00000   50.00000   90.00000   90.00000   90.00000
LATT -1
SFAC C  
C      1  0.5352890000000  0.4981230000000  0.5501740000000 1.0
C      1  0.5352900000000  0.5018770000000  0.4498250000000 1.0
C      1  0.4647110000000  0.4981200000000  0.4498370000000 1.0
C      1  0.4647130000000  0.5018750000000  0.5501630000000 1.0
C      1  0.4472540000000  0.4762480000000  0.5008170000000 1.0
C      1  0.4472550000000  0.5237510000000  0.4991830000000 1.0
C      1  0.5527380000000  0.4762540000000  0.4991890000000 1.0
C      1  0.5527400000000  0.5237470000000  0.5008120000000 1.0
C      1  0.4859830000000  0.5580230000000  0.5051940000000 1.0
C      1  0.4859820000000  0.4419760000000  0.4948060000000 1.0
C      1  0.5140190000000  0.5580250000000  0.4948080000000 1.0
C      1  0.5140180000000  0.4419720000000  0.5051950000000 1.0
C      1  0.5193800000000  0.5181890000000  0.4298170000000 1.0
C      1  0.5193800000000  0.4818100000000  0.5701820000000 1.0
C      1  0.4806250000000  0.5181800000000  0.5701730000000 1.0
C      1  0.4806230000000  0.4818170000000  0.4298270000000 1.0
C      1  0.4702540000000  0.4953320000000  0.4793080000000 1.0
C      1  0.4702620000000  0.5046680000000  0.5206910000000 1.0
C      1  0.5297330000000  0.4953380000000  0.5207020000000 1.0
C      1  0.5297360000000  0.5046650000000  0.4792970000000 1.0
C      1  0.4527820000000  0.4593490000000  0.4606850000000 1.0
C      1  0.4527830000000  0.5406520000000  0.5393150000000 1.0
C      1  0.5472100000000  0.4593510000000  0.5393160000000 1.0
C      1  0.5472140000000  0.5406540000000  0.4606840000000 1.0
C      1  0.4793930000000  0.4461040000000  0.5628130000000 1.0
C      1  0.4793920000000  0.5538950000000  0.4371870000000 1.0
C      1  0.5206110000000  0.4461050000000  0.4371920000000 1.0
C      1  0.5206120000000  0.5538940000000  0.5628090000000 1.0
C      1  0.5560740000000  0.5209910000000  0.5524540000000 1.0
C      1  0.5560740000000  0.4790080000000  0.4475480000000 1.0
C      1  0.4439310000000  0.5209910000000  0.4475440000000 1.0
C      1  0.4439320000000  0.4790090000000  0.5524570000000 1.0
C      1  0.4937460000000  0.5439590000000  0.5601350000000 1.0
C      1  0.4937440000000  0.4560380000000  0.4398650000000 1.0
C      1  0.5062580000000  0.5439620000000  0.4398650000000 1.0
C      1  0.5062570000000  0.4560380000000  0.5601340000000 1.0
C      1  0.4923290000000  0.5209120000000  0.4866050000000 1.0
C      1  0.4923290000000  0.4790900000000  0.5133930000000 1.0
C      1  0.5076710000000  0.5209100000000  0.5134010000000 1.0
C      1  0.5076550000000  0.4791060000000  0.4865940000000 1.0
C      1  0.5688600000000  0.5092140000000  0.5264790000000 1.0
C      1  0.5688610000000  0.4907860000000  0.4735220000000 1.0
C      1  0.4311460000000  0.5092130000000  0.4735180000000 1.0
C      1  0.4311400000000  0.4907850000000  0.5264840000000 1.0
C      1  0.4842320000000  0.5423860000000  0.5318700000000 1.0
C      1  0.4842310000000  0.4576120000000  0.4681300000000 1.0
C      1  0.5157640000000  0.5423880000000  0.4681320000000 1.0
C      1  0.5157620000000  0.4576150000000  0.5318660000000 1.0
C      1  0.5387680000000  0.5490320000000  0.5126460000000 1.0
C      1  0.5387790000000  0.4509570000000  0.4873550000000 1.0
C      1  0.4612360000000  0.5490320000000  0.4873520000000 1.0
C      1  0.4612350000000  0.4509680000000  0.5126490000000 1.0
C      1  0.4324060000000  0.5221500000000  0.5256420000000 1.0
C      1  0.4324070000000  0.4778500000000  0.4743590000000 1.0
C      1  0.5675930000000  0.5221530000000  0.4743550000000 1.0
C      1  0.5675910000000  0.4778480000000  0.5256450000000 1.0
C      1  0.5418140000000  0.4535070000000  0.4554770000000 1.0
C      1  0.5418160000000  0.5464930000000  0.5445240000000 1.0
C      1  0.4581880000000  0.4535050000000  0.5445280000000 1.0
C      1  0.4581880000000  0.5464940000000  0.4554720000000 1.0
END
