TITL C-3985254-1270-1160 9.79722750434081e-06 125000 -310.100180988385 0 0 60 (Ci) n - 1
REM
REM in /home/nfs/bkarasulu/CARBON/AIRSS/Generating-Clusters/TERSOFF/Higher-Symm/Only-C60
REM
REM
REM
REM
REM
REM ./C.cell (28575a23ae977d3b5fae324c64b13b57)
REM
REM compiler GCC version 9.2.1 20190827 (Red Hat 9.2.1-1)
REM options -cpp -mtune=generic -march=x86-64 -g -O0 -fpre-include=/usr/include/finclude/math-vector-fortran.h
REM seed 1226977153 -1799982321 457797109 -2023486005 -708757187 1804403621 -2100236552 -1039566896 263159678 -1652591413 -1185002757 1291648814 1989786247 2004663043 275055833 -1674437836 -867709349 1156081450 -1338880700 731902215 1403925068 110075556 -1563163206 2010816846 1550850905 1412759939 -1465293285 1130917523 -411576260 376622970 -951504230 1421123541 -1425855094
REM
CELL 1.54180   50.00000   50.00000   50.00000   90.00000   90.00000   90.00000
LATT -1
SFAC C  
C      1  0.4723280000000  0.4702570000000  0.4427160000000 1.0
C      1  0.5276720000000  0.5297430000000  0.5572840000000 1.0
C      1  0.4785270000000  0.4769740000000  0.5082370000000 1.0
C      1  0.5214730000000  0.5230260000000  0.4917630000000 1.0
C      1  0.5424120000000  0.5569040000000  0.4714860000000 1.0
C      1  0.4575880000000  0.4430960000000  0.5285140000000 1.0
C      1  0.4983680000000  0.4550040000000  0.4491220000000 1.0
C      1  0.5016320000000  0.5449960000000  0.5508780000000 1.0
C      1  0.4646870000000  0.4967090000000  0.5582530000000 1.0
C      1  0.5353130000000  0.5032910000000  0.4417470000000 1.0
C      1  0.4516480000000  0.4719560000000  0.5168750000000 1.0
C      1  0.5483520000000  0.5280440000000  0.4831250000000 1.0
C      1  0.4924590000000  0.5788630000000  0.5122170000000 1.0
C      1  0.5075410000000  0.4211370000000  0.4877830000000 1.0
C      1  0.4809470000000  0.4919880000000  0.4838270000000 1.0
C      1  0.5190530000000  0.5080120000000  0.5161730000000 1.0
C      1  0.5025810000000  0.4666800000000  0.5228530000000 1.0
C      1  0.4974190000000  0.5333200000000  0.4771470000000 1.0
C      1  0.4681670000000  0.5254540000000  0.4887770000000 1.0
C      1  0.5318330000000  0.4745460000000  0.5112230000000 1.0
C      1  0.5432820000000  0.5192000000000  0.5350600000000 1.0
C      1  0.4567180000000  0.4808000000000  0.4649400000000 1.0
C      1  0.4361170000000  0.5140470000000  0.4953690000000 1.0
C      1  0.5638830000000  0.4859530000000  0.5046310000000 1.0
C      1  0.4430830000000  0.4584920000000  0.4780500000000 1.0
C      1  0.5569170000000  0.5415080000000  0.5219500000000 1.0
C      1  0.5079580000000  0.4682620000000  0.5585710000000 1.0
C      1  0.4920420000000  0.5317380000000  0.4414290000000 1.0
C      1  0.5387900000000  0.4704450000000  0.5437900000000 1.0
C      1  0.4612100000000  0.5295550000000  0.4562100000000 1.0
C      1  0.5270830000000  0.4408730000000  0.5003500000000 1.0
C      1  0.4729170000000  0.5591270000000  0.4996500000000 1.0
C      1  0.5236990000000  0.4587460000000  0.4721200000000 1.0
C      1  0.4763010000000  0.5412540000000  0.5278800000000 1.0
C      1  0.4345250000000  0.4958720000000  0.5196120000000 1.0
C      1  0.5654750000000  0.5041280000000  0.4803880000000 1.0
C      1  0.5191580000000  0.5768220000000  0.4739200000000 1.0
C      1  0.4808420000000  0.4231780000000  0.5260800000000 1.0
C      1  0.4888380000000  0.5156540000000  0.5678040000000 1.0
C      1  0.5111620000000  0.4843460000000  0.4321960000000 1.0
C      1  0.4911120000000  0.5128400000000  0.5259910000000 1.0
C      1  0.5088880000000  0.4871600000000  0.4740090000000 1.0
C      1  0.4827470000000  0.5630190000000  0.4428880000000 1.0
C      1  0.5172530000000  0.4369810000000  0.5571120000000 1.0
C      1  0.4850930000000  0.4330250000000  0.4746070000000 1.0
C      1  0.5149070000000  0.5669750000000  0.5253930000000 1.0
C      1  0.5501030000000  0.4630460000000  0.4595740000000 1.0
C      1  0.4498970000000  0.5369540000000  0.5404260000000 1.0
C      1  0.5078760000000  0.4338330000000  0.5278140000000 1.0
C      1  0.4921240000000  0.5661670000000  0.4721860000000 1.0
C      1  0.5408170000000  0.5610760000000  0.5078210000000 1.0
C      1  0.4591830000000  0.4389250000000  0.4921790000000 1.0
C      1  0.4728900000000  0.4657370000000  0.5525270000000 1.0
C      1  0.5271100000000  0.5342630000000  0.4474730000000 1.0
C      1  0.5085430000000  0.4944790000000  0.5743830000000 1.0
C      1  0.4914570000000  0.5055210000000  0.4256170000000 1.0
C      1  0.4407740000000  0.5060800000000  0.4635720000000 1.0
C      1  0.5592260000000  0.4939200000000  0.5364280000000 1.0
C      1  0.5581210000000  0.4905070000000  0.4553900000000 1.0
C      1  0.4418790000000  0.5094930000000  0.5446100000000 1.0
END
