TITL C-3985255-5397-49 3.87916448209543e-05 125000 -335.676164975727 0 0 60 (C1) n - 1
REM
REM in /home/nfs/bkarasulu/CARBON/AIRSS/Generating-Clusters/TERSOFF/Higher-Symm/Only-C60
REM
REM
REM
REM
REM
REM ./C.cell (28575a23ae977d3b5fae324c64b13b57)
REM
REM compiler GCC version 9.2.1 20190827 (Red Hat 9.2.1-1)
REM options -cpp -mtune=generic -march=x86-64 -g -O0 -fpre-include=/usr/include/finclude/math-vector-fortran.h
REM seed 1540431728 23775451 555545304 -983155496 394589717 -1926763711 -1462468676 1513243017 -2078217694 -8319268 -1486324003 -2042859192 -1210219720 1709792244 591479283 -73931913 -787405368 1044778995 -391309885 2022826009 -1479726546 -1634487869 2077137895 -1336721823 337479822 836065047 831379062 817414235 -336201972 1456972823 -1795676212 -1328224294 -1661756119
REM
CELL 1.54180   50.00000   50.00000   50.00000   90.00000   90.00000   90.00000
LATT -1
SFAC C  
C      1  0.5365860000000  0.4545120000000  0.5390120000000 1.0
C      1  0.5361030000000  0.4685320000000  0.4487110000000 1.0
C      1  0.4440950000000  0.5062560000000  0.5021100000000 1.0
C      1  0.5457770000000  0.5540900000000  0.4815530000000 1.0
C      1  0.4778610000000  0.4697870000000  0.4943230000000 1.0
C      1  0.5428710000000  0.4812600000000  0.5485650000000 1.0
C      1  0.4525490000000  0.4737150000000  0.4597300000000 1.0
C      1  0.4360360000000  0.5055040000000  0.5307840000000 1.0
C      1  0.5264980000000  0.4781950000000  0.4916260000000 1.0
C      1  0.4919270000000  0.4513350000000  0.4575650000000 1.0
C      1  0.4483660000000  0.5521670000000  0.5275850000000 1.0
C      1  0.4731230000000  0.5118070000000  0.5066880000000 1.0
C      1  0.5235580000000  0.4944830000000  0.5661970000000 1.0
C      1  0.5515420000000  0.5450230000000  0.5401040000000 1.0
C      1  0.5154280000000  0.4889080000000  0.4389600000000 1.0
C      1  0.4469060000000  0.5231010000000  0.4538660000000 1.0
C      1  0.4899160000000  0.4950680000000  0.5256110000000 1.0
C      1  0.4775000000000  0.5204510000000  0.5566350000000 1.0
C      1  0.5129780000000  0.5340660000000  0.5027040000000 1.0
C      1  0.4621270000000  0.4590560000000  0.5842510000000 1.0
C      1  0.5580220000000  0.5274460000000  0.4880440000000 1.0
C      1  0.5500520000000  0.4434040000000  0.5139380000000 1.0
C      1  0.5685810000000  0.5358200000000  0.5170170000000 1.0
C      1  0.5742950000000  0.4537900000000  0.5023160000000 1.0
C      1  0.4747530000000  0.5092530000000  0.4571820000000 1.0
C      1  0.5211490000000  0.4476240000000  0.4633370000000 1.0
C      1  0.5541480000000  0.5120060000000  0.4594370000000 1.0
C      1  0.4673970000000  0.5711940000000  0.4866390000000 1.0
C      1  0.4905010000000  0.5217020000000  0.4818420000000 1.0
C      1  0.4591130000000  0.4690470000000  0.5571540000000 1.0
C      1  0.5159330000000  0.5080040000000  0.5192370000000 1.0
C      1  0.4828720000000  0.4807520000000  0.4448930000000 1.0
C      1  0.5081290000000  0.4490900000000  0.5407260000000 1.0
C      1  0.4758630000000  0.5496430000000  0.4686080000000 1.0
C      1  0.4867200000000  0.4644860000000  0.5258970000000 1.0
C      1  0.5281270000000  0.5159510000000  0.4449690000000 1.0
C      1  0.5001300000000  0.5552500000000  0.5253280000000 1.0
C      1  0.4909140000000  0.5467180000000  0.4295290000000 1.0
C      1  0.5616230000000  0.4823590000000  0.4593540000000 1.0
C      1  0.5220830000000  0.5415890000000  0.5436500000000 1.0
C      1  0.4741650000000  0.5454410000000  0.5392970000000 1.0
C      1  0.5062250000000  0.4241390000000  0.5070000000000 1.0
C      1  0.4471190000000  0.4785740000000  0.4903220000000 1.0
C      1  0.4383850000000  0.4575680000000  0.5102510000000 1.0
C      1  0.5270000000000  0.4426170000000  0.4942470000000 1.0
C      1  0.4558240000000  0.4985310000000  0.5514940000000 1.0
C      1  0.5523130000000  0.4974920000000  0.5010840000000 1.0
C      1  0.5170190000000  0.5560660000000  0.4752980000000 1.0
C      1  0.5570050000000  0.4976480000000  0.5301490000000 1.0
C      1  0.4771230000000  0.4287030000000  0.5062010000000 1.0
C      1  0.4589310000000  0.4479180000000  0.5307170000000 1.0
C      1  0.5088990000000  0.5187050000000  0.5592320000000 1.0
C      1  0.5724520000000  0.4784990000000  0.4875290000000 1.0
C      1  0.4446700000000  0.5551160000000  0.4987740000000 1.0
C      1  0.4994780000000  0.4883740000000  0.4839450000000 1.0
C      1  0.4366980000000  0.5289970000000  0.4835010000000 1.0
C      1  0.4626710000000  0.5478030000000  0.4403490000000 1.0
C      1  0.4961210000000  0.5721330000000  0.4977090000000 1.0
C      1  0.4729000000000  0.4425400000000  0.4791690000000 1.0
C      1  0.5128500000000  0.5406930000000  0.4480580000000 1.0
END
