TITL C-3985245-9316-449 -1.16360220243405e-08 125000 -284.63664416715 0 0 60 (Th) n - 1
REM
REM in /home/nfs/bkarasulu/CARBON/AIRSS/Generating-Clusters/TERSOFF/Higher-Symm/Only-C60
REM
REM
REM
REM
REM
REM ./C.cell (28575a23ae977d3b5fae324c64b13b57)
REM
REM compiler GCC version 9.2.1 20190827 (Red Hat 9.2.1-1)
REM options -cpp -mtune=generic -march=x86-64 -g -O0 -fpre-include=/usr/include/finclude/math-vector-fortran.h
REM seed -1289376699 -778910222 818054278 700852856 -601519655 1597526269 1444543455 -711331346 1606237565 -922934051 -1481182148 -1162895205 -289389758 -1932624720 -1405632129 -164943276 -1740328157 283092445 489555154 2052125079 1305156438 -1233400201 -889180812 -1858688917 -1946909958 1757773101 -1341471531 -1152981491 1218878027 411298812 792418522 607695849 1517378940
REM
CELL 1.54180   50.00000   50.00000   50.00000   90.00000   90.00000   90.00000
LATT -1
SFAC C  
C      1  0.4752810000000  0.4839540000000  0.4251420000000 1.0
C      1  0.4251420000000  0.4752810000000  0.4839540000000 1.0
C      1  0.4839540000000  0.4251420000000  0.4752810000000 1.0
C      1  0.5247190000000  0.4839540000000  0.5748580000000 1.0
C      1  0.4752810000000  0.5160460000000  0.5748580000000 1.0
C      1  0.5247190000000  0.5160460000000  0.4251420000000 1.0
C      1  0.5748580000000  0.4752810000000  0.5160460000000 1.0
C      1  0.4251420000000  0.5247190000000  0.5160460000000 1.0
C      1  0.5748580000000  0.5247190000000  0.4839540000000 1.0
C      1  0.5160460000000  0.4251420000000  0.5247190000000 1.0
C      1  0.4839540000000  0.5748580000000  0.5247190000000 1.0
C      1  0.5160460000000  0.5748580000000  0.4752810000000 1.0
C      1  0.4752810000000  0.5160460000000  0.4251420000000 1.0
C      1  0.4251420000000  0.5247190000000  0.4839540000000 1.0
C      1  0.4839540000000  0.5748580000000  0.4752810000000 1.0
C      1  0.5247190000000  0.5160460000000  0.5748580000000 1.0
C      1  0.4752810000000  0.4839540000000  0.5748580000000 1.0
C      1  0.5247190000000  0.4839540000000  0.4251420000000 1.0
C      1  0.5748580000000  0.5247190000000  0.5160460000000 1.0
C      1  0.4251420000000  0.4752810000000  0.5160460000000 1.0
C      1  0.5748580000000  0.4752810000000  0.4839540000000 1.0
C      1  0.5160460000000  0.5748580000000  0.5247190000000 1.0
C      1  0.4839540000000  0.4251420000000  0.5247190000000 1.0
C      1  0.5160460000000  0.4251420000000  0.4752810000000 1.0
C      1  0.5176290000000  0.4827060000000  0.5429290000000 1.0
C      1  0.5429290000000  0.5176290000000  0.4827060000000 1.0
C      1  0.4827060000000  0.5429290000000  0.5176290000000 1.0
C      1  0.4823710000000  0.4827060000000  0.4570710000000 1.0
C      1  0.5176290000000  0.5172940000000  0.4570710000000 1.0
C      1  0.4823710000000  0.5172940000000  0.5429290000000 1.0
C      1  0.4570710000000  0.5176290000000  0.5172940000000 1.0
C      1  0.5429290000000  0.4823710000000  0.5172940000000 1.0
C      1  0.4570710000000  0.4823710000000  0.4827060000000 1.0
C      1  0.5172940000000  0.5429290000000  0.4823710000000 1.0
C      1  0.4827060000000  0.4570710000000  0.4823710000000 1.0
C      1  0.5172940000000  0.4570710000000  0.5176290000000 1.0
C      1  0.5176290000000  0.5172940000000  0.5429290000000 1.0
C      1  0.5429290000000  0.4823710000000  0.4827060000000 1.0
C      1  0.4827060000000  0.4570710000000  0.5176290000000 1.0
C      1  0.4823710000000  0.5172940000000  0.4570710000000 1.0
C      1  0.5176290000000  0.4827060000000  0.4570710000000 1.0
C      1  0.4823710000000  0.4827060000000  0.5429290000000 1.0
C      1  0.4570710000000  0.4823710000000  0.5172940000000 1.0
C      1  0.5429290000000  0.5176290000000  0.5172940000000 1.0
C      1  0.4570710000000  0.5176290000000  0.4827060000000 1.0
C      1  0.5172940000000  0.4570710000000  0.4823710000000 1.0
C      1  0.4827060000000  0.5429290000000  0.4823710000000 1.0
C      1  0.5172940000000  0.5429290000000  0.5176290000000 1.0
C      1  0.5000000000000  0.5260440000000  0.4117470000000 1.0
C      1  0.5000000000000  0.4739560000000  0.5882530000000 1.0
C      1  0.5882530000000  0.5000000000000  0.4739560000000 1.0
C      1  0.5882530000000  0.5000000000000  0.5260440000000 1.0
C      1  0.4117470000000  0.5000000000000  0.5260440000000 1.0
C      1  0.4117470000000  0.5000000000000  0.4739560000000 1.0
C      1  0.5260440000000  0.4117470000000  0.5000000000000 1.0
C      1  0.5000000000000  0.5260440000000  0.5882530000000 1.0
C      1  0.4739560000000  0.4117470000000  0.5000000000000 1.0
C      1  0.5260440000000  0.5882530000000  0.5000000000000 1.0
C      1  0.4739560000000  0.5882530000000  0.5000000000000 1.0
C      1  0.5000000000000  0.4739560000000  0.4117470000000 1.0
END
