TITL C-3985252-168-362 0.0018676892097949 125000 -343.755650581856 0 0 60 (Cs) n - 1
REM
REM in /home/nfs/bkarasulu/CARBON/AIRSS/Generating-Clusters/TERSOFF/Higher-Symm/Only-C60
REM
REM
REM
REM
REM
REM ./C.cell (28575a23ae977d3b5fae324c64b13b57)
REM
REM compiler GCC version 9.2.1 20190827 (Red Hat 9.2.1-1)
REM options -cpp -mtune=generic -march=x86-64 -g -O0 -fpre-include=/usr/include/finclude/math-vector-fortran.h
REM seed -893724884 -1950543891 -747420158 -2104050427 -609159897 1987624102 -1462131128 -632980416 1803932233 -1239543268 497419425 -1448394185 1948551831 -2051872491 -928760648 2081464845 340612874 -1330984809 -1488804199 1343782959 -1048935768 -624388895 1530383787 652688422 -1669653866 48849677 496868960 1535053729 66564201 652271271 365373503 -953369463 -1847342816
REM
CELL 1.54180   50.00000   50.00000   50.00000   90.00000   90.00000   90.00000
LATT -1
SFAC C  
C      1  0.5554250000000  0.4735170000000  0.5326400000000 1.0
C      1  0.5557030000000  0.5236160000000  0.5327240000000 1.0
C      1  0.5144120000000  0.5490220000000  0.5167480000000 1.0
C      1  0.5144680000000  0.4479500000000  0.5167270000000 1.0
C      1  0.5090530000000  0.5521890000000  0.4861130000000 1.0
C      1  0.5090770000000  0.4449780000000  0.4861470000000 1.0
C      1  0.3998490000000  0.4842010000000  0.5205350000000 1.0
C      1  0.3998220000000  0.5128810000000  0.5205430000000 1.0
C      1  0.4628340000000  0.4471130000000  0.5167080000000 1.0
C      1  0.4628220000000  0.5500180000000  0.5167630000000 1.0
C      1  0.4532650000000  0.5321200000000  0.4694550000000 1.0
C      1  0.4532670000000  0.4650050000000  0.4693920000000 1.0
C      1  0.5546610000000  0.4490360000000  0.4871810000000 1.0
C      1  0.5546290000000  0.5480400000000  0.4872410000000 1.0
C      1  0.5307370000000  0.4415870000000  0.4433680000000 1.0
C      1  0.5308060000000  0.5555380000000  0.4433930000000 1.0
C      1  0.4610780000000  0.4420570000000  0.4871220000000 1.0
C      1  0.4611090000000  0.5550480000000  0.4871700000000 1.0
C      1  0.4883770000000  0.5578700000000  0.5293990000000 1.0
C      1  0.4883800000000  0.4392680000000  0.5293280000000 1.0
C      1  0.5042600000000  0.4759260000000  0.4798870000000 1.0
C      1  0.5041920000000  0.5212250000000  0.4798140000000 1.0
C      1  0.5644310000000  0.5229720000000  0.4742040000000 1.0
C      1  0.5644300000000  0.4741060000000  0.4741740000000 1.0
C      1  0.5410610000000  0.4836910000000  0.5570040000000 1.0
C      1  0.5415880000000  0.5134090000000  0.5572320000000 1.0
C      1  0.5271360000000  0.5271480000000  0.4379440000000 1.0
C      1  0.5270980000000  0.4699880000000  0.4379730000000 1.0
C      1  0.4714180000000  0.5245920000000  0.4463800000000 1.0
C      1  0.4714860000000  0.4725650000000  0.4463770000000 1.0
C      1  0.5007870000000  0.4829080000000  0.4494860000000 1.0
C      1  0.5007720000000  0.5142500000000  0.4494120000000 1.0
C      1  0.4242600000000  0.5234360000000  0.5087030000000 1.0
C      1  0.4242930000000  0.4736830000000  0.5086850000000 1.0
C      1  0.5584840000000  0.4235380000000  0.5312080000000 1.0
C      1  0.5584910000000  0.5736700000000  0.5311470000000 1.0
C      1  0.5478740000000  0.5492220000000  0.5183010000000 1.0
C      1  0.5478560000000  0.4478620000000  0.5181970000000 1.0
C      1  0.4322940000000  0.5139530000000  0.4809710000000 1.0
C      1  0.4323070000000  0.4831860000000  0.4809490000000 1.0
C      1  0.5143940000000  0.5193840000000  0.5216230000000 1.0
C      1  0.5149840000000  0.4775290000000  0.5220970000000 1.0
C      1  0.4493790000000  0.4718790000000  0.5255450000000 1.0
C      1  0.4493680000000  0.5252150000000  0.5255550000000 1.0
C      1  0.5516190000000  0.4838630000000  0.4478370000000 1.0
C      1  0.5516270000000  0.5132400000000  0.4478490000000 1.0
C      1  0.4473960000000  0.5195060000000  0.5559140000000 1.0
C      1  0.4473870000000  0.4775560000000  0.5559240000000 1.0
C      1  0.4854510000000  0.4296880000000  0.4793950000000 1.0
C      1  0.4854250000000  0.5674630000000  0.4793400000000 1.0
C      1  0.5332130000000  0.5615670000000  0.4717210000000 1.0
C      1  0.5331930000000  0.4355540000000  0.4716870000000 1.0
C      1  0.5650950000000  0.4985020000000  0.5184230000000 1.0
C      1  0.4723970000000  0.4985540000000  0.5618260000000 1.0
C      1  0.4929560000000  0.4985550000000  0.5381260000000 1.0
C      1  0.4248140000000  0.4985500000000  0.5640380000000 1.0
C      1  0.5705470000000  0.4985570000000  0.4902450000000 1.0
C      1  0.4804220000000  0.4985020000000  0.4908750000000 1.0
C      1  0.4679380000000  0.4985060000000  0.5181340000000 1.0
C      1  0.5240440000000  0.4985680000000  0.4974520000000 1.0
END
