TITL C-3985259-1859-833 0.000324661608758174 125000 -321.77128475205 0 0 60 (C1) n - 1
REM
REM in /home/nfs/bkarasulu/CARBON/AIRSS/Generating-Clusters/TERSOFF/Higher-Symm/Only-C60
REM
REM
REM
REM
REM
REM ./C.cell (28575a23ae977d3b5fae324c64b13b57)
REM
REM compiler GCC version 9.2.1 20190827 (Red Hat 9.2.1-1)
REM options -cpp -mtune=generic -march=x86-64 -g -O0 -fpre-include=/usr/include/finclude/math-vector-fortran.h
REM seed -1872420644 1498562210 -1891462673 1343956701 -1466767765 -243591098 1859101925 -2004716920 -887644549 1953896909 -411969484 -853812120 -2002352134 -278091960 819054337 -776114774 -400330751 -390202603 -1278563238 265577941 -1393700548 -1887245266 -2112913268 301531169 -1070325589 -1330249723 250076331 883244517 1698940078 -847246784 481645654 240062258 -937959879
REM
CELL 1.54180   50.00000   50.00000   50.00000   90.00000   90.00000   90.00000
LATT -1
SFAC C  
C      1  0.4989120000000  0.4752200000000  0.5243430000000 1.0
C      1  0.5314610000000  0.4793820000000  0.5695300000000 1.0
C      1  0.4784080000000  0.4492320000000  0.4660790000000 1.0
C      1  0.4669190000000  0.5434590000000  0.4898530000000 1.0
C      1  0.5400490000000  0.5620800000000  0.5071540000000 1.0
C      1  0.4779250000000  0.5244910000000  0.5131470000000 1.0
C      1  0.4652640000000  0.4406060000000  0.5149100000000 1.0
C      1  0.5093650000000  0.4605120000000  0.5713890000000 1.0
C      1  0.6015950000000  0.4917970000000  0.5178050000000 1.0
C      1  0.4997290000000  0.4996040000000  0.5508710000000 1.0
C      1  0.5159210000000  0.5466070000000  0.4764600000000 1.0
C      1  0.4552830000000  0.5314690000000  0.5478010000000 1.0
C      1  0.4866430000000  0.4341250000000  0.4951370000000 1.0
C      1  0.5082690000000  0.5170410000000  0.5052020000000 1.0
C      1  0.5178240000000  0.5215930000000  0.5565810000000 1.0
C      1  0.5722740000000  0.4504840000000  0.4993430000000 1.0
C      1  0.4366580000000  0.5058850000000  0.4727280000000 1.0
C      1  0.4233620000000  0.5486400000000  0.4989730000000 1.0
C      1  0.5177380000000  0.5136570000000  0.4472210000000 1.0
C      1  0.4805260000000  0.4960050000000  0.4807090000000 1.0
C      1  0.5108890000000  0.5405110000000  0.4336750000000 1.0
C      1  0.4798510000000  0.5483290000000  0.5376120000000 1.0
C      1  0.4738060000000  0.4885690000000  0.5092870000000 1.0
C      1  0.5312240000000  0.4678720000000  0.4308250000000 1.0
C      1  0.4435840000000  0.4818220000000  0.5376650000000 1.0
C      1  0.4992020000000  0.5754360000000  0.4766480000000 1.0
C      1  0.5224610000000  0.5831280000000  0.4961630000000 1.0
C      1  0.4568120000000  0.5149460000000  0.4516860000000 1.0
C      1  0.4333640000000  0.4767340000000  0.4697240000000 1.0
C      1  0.5365740000000  0.5522200000000  0.5348770000000 1.0
C      1  0.5450790000000  0.4540290000000  0.4549390000000 1.0
C      1  0.4493590000000  0.4654320000000  0.5134310000000 1.0
C      1  0.4877820000000  0.4594540000000  0.5517060000000 1.0
C      1  0.4419750000000  0.5111820000000  0.5302890000000 1.0
C      1  0.4327820000000  0.5209640000000  0.5005990000000 1.0
C      1  0.5251870000000  0.4930250000000  0.5163080000000 1.0
C      1  0.4703180000000  0.4896610000000  0.4388780000000 1.0
C      1  0.5462750000000  0.5426910000000  0.4832970000000 1.0
C      1  0.5429420000000  0.4438190000000  0.5173940000000 1.0
C      1  0.5412560000000  0.5138520000000  0.4694670000000 1.0
C      1  0.5425080000000  0.4896120000000  0.4866330000000 1.0
C      1  0.5043740000000  0.4868480000000  0.4369260000000 1.0
C      1  0.5018600000000  0.4658920000000  0.4607520000000 1.0
C      1  0.5427900000000  0.4906740000000  0.5430220000000 1.0
C      1  0.4917160000000  0.4051350000000  0.4919500000000 1.0
C      1  0.5142440000000  0.4508790000000  0.5053100000000 1.0
C      1  0.5653980000000  0.4673030000000  0.4761660000000 1.0
C      1  0.5491490000000  0.5216550000000  0.5471760000000 1.0
C      1  0.5587610000000  0.4660660000000  0.5358600000000 1.0
C      1  0.4562050000000  0.4661770000000  0.4532040000000 1.0
C      1  0.4998120000000  0.5196960000000  0.4725740000000 1.0
C      1  0.4740880000000  0.5738740000000  0.5233880000000 1.0
C      1  0.4733210000000  0.5721610000000  0.4942500000000 1.0
C      1  0.4745340000000  0.5354440000000  0.4623810000000 1.0
C      1  0.5067770000000  0.5487280000000  0.5505180000000 1.0
C      1  0.4285330000000  0.4638500000000  0.4940870000000 1.0
C      1  0.5866560000000  0.4673580000000  0.5223160000000 1.0
C      1  0.5237540000000  0.4636650000000  0.4788960000000 1.0
C      1  0.4895680000000  0.5586210000000  0.4461270000000 1.0
C      1  0.4611030000000  0.4708000000000  0.5587600000000 1.0
END
