TITL C-3985247-764-678 0.00203823265357737 125000 -350.19526394194 0 0 60 (C2h) n - 1
REM
REM in /home/nfs/bkarasulu/CARBON/AIRSS/Generating-Clusters/TERSOFF/Higher-Symm/Only-C60
REM
REM
REM
REM
REM
REM ./C.cell (28575a23ae977d3b5fae324c64b13b57)
REM
REM compiler GCC version 9.2.1 20190827 (Red Hat 9.2.1-1)
REM options -cpp -mtune=generic -march=x86-64 -g -O0 -fpre-include=/usr/include/finclude/math-vector-fortran.h
REM seed -1229249291 1158320003 -683547403 -364450970 -1208883059 1467088805 1647387541 -522255099 1729482294 35739151 -607869394 -1522736491 790713897 1849335719 541324318 -1919138108 -294259769 760578131 -1221891859 2071236421 926561161 2140974486 451738249 -1110001939 -468535188 1598091103 468991560 -1070925989 375770710 250421495 -688124359 -931805343 880924952
REM
CELL 1.54180   50.00000   50.00000   50.00000   90.00000   90.00000   90.00000
LATT -1
SFAC C  
C      1  0.4696560000000  0.4328090000000  0.5153330000000 1.0
C      1  0.5303510000000  0.5671820000000  0.5153330000000 1.0
C      1  0.4696590000000  0.4328050000000  0.4846670000000 1.0
C      1  0.5303390000000  0.5671910000000  0.4846680000000 1.0
C      1  0.4413830000000  0.5428910000000  0.4772200000000 1.0
C      1  0.5586140000000  0.4571000000000  0.4772240000000 1.0
C      1  0.4413830000000  0.5428910000000  0.5227800000000 1.0
C      1  0.5586180000000  0.4571130000000  0.5227820000000 1.0
C      1  0.4819000000000  0.5272520000000  0.5553070000000 1.0
C      1  0.5181010000000  0.4727480000000  0.5553070000000 1.0
C      1  0.4818990000000  0.5272520000000  0.4446930000000 1.0
C      1  0.5181000000000  0.4727490000000  0.4446930000000 1.0
C      1  0.5189990000000  0.4163330000000  0.5160480000000 1.0
C      1  0.4810010000000  0.5836670000000  0.5160490000000 1.0
C      1  0.5189990000000  0.4163330000000  0.4839510000000 1.0
C      1  0.4810010000000  0.5836660000000  0.4839520000000 1.0
C      1  0.4595270000000  0.4643650000000  0.4701780000000 1.0
C      1  0.5404730000000  0.5356360000000  0.4701770000000 1.0
C      1  0.4595270000000  0.4643650000000  0.5298220000000 1.0
C      1  0.5404730000000  0.5356350000000  0.5298220000000 1.0
C      1  0.5085080000000  0.5828090000000  0.4723980000000 1.0
C      1  0.4914920000000  0.4171910000000  0.4723990000000 1.0
C      1  0.5085070000000  0.5828090000000  0.5276010000000 1.0
C      1  0.4914920000000  0.4171910000000  0.5276010000000 1.0
C      1  0.5677880000000  0.5483110000000  0.5146050000000 1.0
C      1  0.4322150000000  0.4517250000000  0.5146060000000 1.0
C      1  0.5677840000000  0.5482600000000  0.4853950000000 1.0
C      1  0.4322140000000  0.4517350000000  0.4853950000000 1.0
C      1  0.5548160000000  0.5083510000000  0.4851620000000 1.0
C      1  0.4451880000000  0.4916410000000  0.4851650000000 1.0
C      1  0.5547980000000  0.5083260000000  0.5148370000000 1.0
C      1  0.4451910000000  0.4916500000000  0.5148350000000 1.0
C      1  0.5044590000000  0.5149120000000  0.5693370000000 1.0
C      1  0.4955410000000  0.4850880000000  0.5693370000000 1.0
C      1  0.5044590000000  0.5149120000000  0.4306620000000 1.0
C      1  0.4955410000000  0.4850880000000  0.4306620000000 1.0
C      1  0.4879020000000  0.4705680000000  0.5147400000000 1.0
C      1  0.5120990000000  0.5294370000000  0.5147400000000 1.0
C      1  0.4879030000000  0.4705690000000  0.4852610000000 1.0
C      1  0.5121000000000  0.5294340000000  0.4852610000000 1.0
C      1  0.5427590000000  0.4896890000000  0.4439950000000 1.0
C      1  0.4572400000000  0.5103080000000  0.4439950000000 1.0
C      1  0.5427600000000  0.4896940000000  0.5560060000000 1.0
C      1  0.4572400000000  0.5103080000000  0.5560050000000 1.0
C      1  0.4400930000000  0.5153050000000  0.4674110000000 1.0
C      1  0.5599070000000  0.4847120000000  0.4674090000000 1.0
C      1  0.4400930000000  0.5153050000000  0.5325890000000 1.0
C      1  0.5599070000000  0.4846880000000  0.5325850000000 1.0
C      1  0.4878890000000  0.5377070000000  0.4710530000000 1.0
C      1  0.5121120000000  0.4622930000000  0.4710520000000 1.0
C      1  0.4878890000000  0.5377070000000  0.5289450000000 1.0
C      1  0.5121110000000  0.4622930000000  0.5289460000000 1.0
C      1  0.5322060000000  0.4454260000000  0.4843920000000 1.0
C      1  0.4677960000000  0.5545750000000  0.4843910000000 1.0
C      1  0.5322040000000  0.4454250000000  0.5156080000000 1.0
C      1  0.4677960000000  0.5545740000000  0.5156090000000 1.0
C      1  0.5334380000000  0.5186490000000  0.5583210000000 1.0
C      1  0.4665620000000  0.4813510000000  0.5583200000000 1.0
C      1  0.5334390000000  0.5186500000000  0.4416810000000 1.0
C      1  0.4665620000000  0.4813510000000  0.4416800000000 1.0
END
