TITL C-3985254-1270-1994 -3.99418402446345e-06 125000 -320.988892076255 0 0 60 (C1) n - 1
REM
REM in /home/nfs/bkarasulu/CARBON/AIRSS/Generating-Clusters/TERSOFF/Higher-Symm/Only-C60
REM
REM
REM
REM
REM
REM ./C.cell (28575a23ae977d3b5fae324c64b13b57)
REM
REM compiler GCC version 9.2.1 20190827 (Red Hat 9.2.1-1)
REM options -cpp -mtune=generic -march=x86-64 -g -O0 -fpre-include=/usr/include/finclude/math-vector-fortran.h
REM seed 638846261 1095300784 -1491295965 814383499 1061988037 81545730 615913034 -1021321398 -1907655037 -2020867402 -1827634691 -768836074 -855318039 228600541 -601933395 -55808828 1592132656 -1988335925 153886128 -84900558 1883599617 -1400559598 370531430 -592047617 -1824568695 -2023457764 1327389962 -621498058 -2030016076 -459047847 1517368521 997068736 74242411
REM
CELL 1.54180   50.00000   50.00000   50.00000   90.00000   90.00000   90.00000
LATT -1
SFAC C  
C      1  0.5632520000000  0.5343000000000  0.5227450000000 1.0
C      1  0.4848640000000  0.5570380000000  0.4735390000000 1.0
C      1  0.5042670000000  0.5113560000000  0.4799340000000 1.0
C      1  0.5224100000000  0.5249650000000  0.5247780000000 1.0
C      1  0.5438330000000  0.4786290000000  0.5183820000000 1.0
C      1  0.5401310000000  0.5502180000000  0.4815250000000 1.0
C      1  0.4995390000000  0.5246210000000  0.5620070000000 1.0
C      1  0.5207040000000  0.5032770000000  0.5537210000000 1.0
C      1  0.5131030000000  0.5506780000000  0.5566420000000 1.0
C      1  0.5681480000000  0.5352970000000  0.4870480000000 1.0
C      1  0.4360690000000  0.5013430000000  0.5171020000000 1.0
C      1  0.4519640000000  0.5414960000000  0.4433900000000 1.0
C      1  0.4568210000000  0.5615040000000  0.4679870000000 1.0
C      1  0.5374520000000  0.4215980000000  0.5164090000000 1.0
C      1  0.5528910000000  0.4330140000000  0.4940670000000 1.0
C      1  0.4725270000000  0.4542550000000  0.5346520000000 1.0
C      1  0.5151220000000  0.4800260000000  0.4699900000000 1.0
C      1  0.5175710000000  0.4476970000000  0.5549570000000 1.0
C      1  0.4533950000000  0.5492210000000  0.5174870000000 1.0
C      1  0.5609730000000  0.4597490000000  0.5015710000000 1.0
C      1  0.4194980000000  0.5335520000000  0.4830990000000 1.0
C      1  0.4398580000000  0.4713610000000  0.4616080000000 1.0
C      1  0.4394690000000  0.5549360000000  0.4918390000000 1.0
C      1  0.5502650000000  0.5025220000000  0.5567820000000 1.0
C      1  0.4415590000000  0.5225230000000  0.4647710000000 1.0
C      1  0.4674140000000  0.4902910000000  0.4478070000000 1.0
C      1  0.4967430000000  0.5644450000000  0.4984130000000 1.0
C      1  0.4757460000000  0.4801310000000  0.5531490000000 1.0
C      1  0.5460610000000  0.5312400000000  0.4381470000000 1.0
C      1  0.5616360000000  0.5173800000000  0.4588390000000 1.0
C      1  0.4566830000000  0.4563460000000  0.5089270000000 1.0
C      1  0.4160200000000  0.4846840000000  0.4742620000000 1.0
C      1  0.4932890000000  0.5143230000000  0.5112280000000 1.0
C      1  0.5650480000000  0.5029500000000  0.5299070000000 1.0
C      1  0.5216540000000  0.5515830000000  0.5040160000000 1.0
C      1  0.5088320000000  0.4295040000000  0.5090820000000 1.0
C      1  0.5342050000000  0.4339150000000  0.4712850000000 1.0
C      1  0.5329260000000  0.5106100000000  0.4934490000000 1.0
C      1  0.5066960000000  0.4767870000000  0.5475320000000 1.0
C      1  0.5412690000000  0.4330850000000  0.5436390000000 1.0
C      1  0.4809260000000  0.4440860000000  0.4640120000000 1.0
C      1  0.4636360000000  0.5015900000000  0.4782040000000 1.0
C      1  0.4588960000000  0.5703060000000  0.5366690000000 1.0
C      1  0.4981850000000  0.5333990000000  0.4595140000000 1.0
C      1  0.4175190000000  0.5064350000000  0.4951690000000 1.0
C      1  0.5264690000000  0.5454860000000  0.4544700000000 1.0
C      1  0.4761680000000  0.5218660000000  0.4405070000000 1.0
C      1  0.4543860000000  0.4492600000000  0.4774080000000 1.0
C      1  0.5730800000000  0.4786510000000  0.4830570000000 1.0
C      1  0.4961480000000  0.4382260000000  0.5346540000000 1.0
C      1  0.5795770000000  0.5034910000000  0.4994460000000 1.0
C      1  0.4904660000000  0.4705700000000  0.4503510000000 1.0
C      1  0.4731400000000  0.5114450000000  0.5506280000000 1.0
C      1  0.5413150000000  0.5511150000000  0.5409340000000 1.0
C      1  0.5494040000000  0.4911570000000  0.4690810000000 1.0
C      1  0.4370950000000  0.4734970000000  0.5228050000000 1.0
C      1  0.5074780000000  0.4460450000000  0.4806120000000 1.0
C      1  0.4765800000000  0.4781270000000  0.4983160000000 1.0
C      1  0.4615950000000  0.5206000000000  0.5228830000000 1.0
C      1  0.5080290000000  0.4821970000000  0.5155660000000 1.0
END
