TITL C-3985254-1270-1017 2.69125510094019e-07 125000 -354.764124835807 0 0 60 (C5) n - 1
REM
REM in /home/nfs/bkarasulu/CARBON/AIRSS/Generating-Clusters/TERSOFF/Higher-Symm/Only-C60
REM
REM
REM
REM
REM
REM ./C.cell (28575a23ae977d3b5fae324c64b13b57)
REM
REM compiler GCC version 9.2.1 20190827 (Red Hat 9.2.1-1)
REM options -cpp -mtune=generic -march=x86-64 -g -O0 -fpre-include=/usr/include/finclude/math-vector-fortran.h
REM seed -1704699348 -629403134 -346768246 764264827 -1887484057 1310588587 199447494 -451577434 -2020146200 -536580888 1206174860 1221228352 1156574335 -1080810880 1478810438 -1116897234 1468341005 1133244089 439378505 -841548413 544305165 -501488216 -1566396996 -783692896 258620861 -1404590266 2008274001 -1313181609 996510158 -9521599 -1704629523 -2135234839 891875795
REM
CELL 1.54180   50.00000   50.00000   50.00000   90.00000   90.00000   90.00000
LATT -1
SFAC C  
C      1  0.4377250000000  0.5170180000000  0.4814900000000 1.0
C      1  0.4377230000000  0.5228580000000  0.5104610000000 1.0
C      1  0.4377220000000  0.4971100000000  0.5249680000000 1.0
C      1  0.4377230000000  0.4753560000000  0.5049630000000 1.0
C      1  0.4377260000000  0.4876600000000  0.4780920000000 1.0
C      1  0.5427410000000  0.4782870000000  0.5366730000000 1.0
C      1  0.5427450000000  0.4584150000000  0.4906850000000 1.0
C      1  0.5427480000000  0.4960110000000  0.4575740000000 1.0
C      1  0.5427460000000  0.5391200000000  0.4830990000000 1.0
C      1  0.5427420000000  0.5281660000000  0.5319850000000 1.0
C      1  0.5100130000000  0.4382950000000  0.4611860000000 1.0
C      1  0.5100160000000  0.5178470000000  0.4293210000000 1.0
C      1  0.5100110000000  0.5727360000000  0.4951330000000 1.0
C      1  0.5100050000000  0.5271060000000  0.5676720000000 1.0
C      1  0.5100060000000  0.4440170000000  0.5466920000000 1.0
C      1  0.5143350000000  0.5314000000000  0.5385340000000 1.0
C      1  0.5143340000000  0.4730560000000  0.5417720000000 1.0
C      1  0.5143380000000  0.4519470000000  0.4872840000000 1.0
C      1  0.5143410000000  0.4972450000000  0.4503710000000 1.0
C      1  0.5143390000000  0.5463500000000  0.4820450000000 1.0
C      1  0.5567150000000  0.4621620000000  0.5165750000000 1.0
C      1  0.5567190000000  0.4725470000000  0.4691400000000 1.0
C      1  0.5567190000000  0.5208710000000  0.4643580000000 1.0
C      1  0.5567160000000  0.5403510000000  0.5088390000000 1.0
C      1  0.5567130000000  0.5040670000000  0.5411110000000 1.0
C      1  0.5834850000000  0.5132130000000  0.4774540000000 1.0
C      1  0.5834830000000  0.5255310000000  0.5056040000000 1.0
C      1  0.5834820000000  0.5025660000000  0.5260180000000 1.0
C      1  0.5834830000000  0.4760540000000  0.5104850000000 1.0
C      1  0.5834850000000  0.4826340000000  0.4804710000000 1.0
C      1  0.4914130000000  0.4721870000000  0.4974580000000 1.0
C      1  0.4914150000000  0.4938230000000  0.4727620000000 1.0
C      1  0.4914140000000  0.5239950000000  0.4857080000000 1.0
C      1  0.4914120000000  0.5210070000000  0.5184040000000 1.0
C      1  0.4914110000000  0.4889880000000  0.5256650000000 1.0
C      1  0.4644770000000  0.4901990000000  0.4339270000000 1.0
C      1  0.4644750000000  0.5598080000000  0.4702590000000 1.0
C      1  0.4644680000000  0.5467650000000  0.5476880000000 1.0
C      1  0.4644670000000  0.4690950000000  0.5592100000000 1.0
C      1  0.4644720000000  0.4341350000000  0.4889020000000 1.0
C      1  0.4856960000000  0.4813800000000  0.5783630000000 1.0
C      1  0.4857010000000  0.4197180000000  0.5065060000000 1.0
C      1  0.4857080000000  0.4690030000000  0.4256560000000 1.0
C      1  0.4857070000000  0.5611250000000  0.4475460000000 1.0
C      1  0.4856990000000  0.5687740000000  0.5419240000000 1.0
C      1  0.4606870000000  0.5397750000000  0.5178900000000 1.0
C      1  0.4606850000000  0.4952740000000  0.5433540000000 1.0
C      1  0.4606880000000  0.4573040000000  0.5089000000000 1.0
C      1  0.4606910000000  0.4783390000000  0.4621420000000 1.0
C      1  0.4606910000000  0.5293090000000  0.4676980000000 1.0
C      1  0.4875470000000  0.4288760000000  0.5357210000000 1.0
C      1  0.4875540000000  0.4440470000000  0.4433950000000 1.0
C      1  0.4875560000000  0.5365440000000  0.4292930000000 1.0
C      1  0.4875490000000  0.5785380000000  0.5129050000000 1.0
C      1  0.4875440000000  0.5119950000000  0.5786810000000 1.0
C      1  0.4651620000000  0.4481160000000  0.4621430000000 1.0
C      1  0.4651640000000  0.5199690000000  0.4389550000000 1.0
C      1  0.4651590000000  0.5642250000000  0.5001250000000 1.0
C      1  0.4651540000000  0.5197250000000  0.5611180000000 1.0
C      1  0.4651560000000  0.4479660000000  0.5376440000000 1.0
END
