TITL C-3985253-1688-1086 0.00696247015068758 125000 -311.975576436643 0 0 60 (Cs) n - 1
REM
REM in /home/nfs/bkarasulu/CARBON/AIRSS/Generating-Clusters/TERSOFF/Higher-Symm/Only-C60
REM
REM
REM
REM
REM
REM ./C.cell (28575a23ae977d3b5fae324c64b13b57)
REM
REM compiler GCC version 9.2.1 20190827 (Red Hat 9.2.1-1)
REM options -cpp -mtune=generic -march=x86-64 -g -O0 -fpre-include=/usr/include/finclude/math-vector-fortran.h
REM seed 457699263 910007760 -440693653 1001286645 609145430 -762153604 53088148 -799108055 1416202744 826942182 -989227428 -1485874228 -183468438 -1553164237 -1752764408 865807665 1201844981 560733326 -1589660742 -953866355 -1755390211 -1473894702 1572960768 1547584497 262089506 2144404111 1164828638 1333159431 -1333382559 -164268189 -320465779 1409325918 286564669
REM
CELL 1.54180   50.00000   50.00000   50.00000   90.00000   90.00000   90.00000
LATT -1
SFAC C  
C      1  0.4844630000000  0.4465810000000  0.5348070000000 1.0
C      1  0.5155360000000  0.4465810000000  0.5348080000000 1.0
C      1  0.5379700000000  0.4479090000000  0.5136070000000 1.0
C      1  0.4620290000000  0.4479060000000  0.5136070000000 1.0
C      1  0.4818560000000  0.5231100000000  0.4863280000000 1.0
C      1  0.5181450000000  0.5231120000000  0.4863170000000 1.0
C      1  0.5452170000000  0.5543760000000  0.4774220000000 1.0
C      1  0.4547890000000  0.5543790000000  0.4774310000000 1.0
C      1  0.5143220000000  0.4612240000000  0.5741270000000 1.0
C      1  0.4856740000000  0.4612220000000  0.5741270000000 1.0
C      1  0.5264640000000  0.4704580000000  0.4463100000000 1.0
C      1  0.4735310000000  0.4704610000000  0.4463120000000 1.0
C      1  0.4736370000000  0.4922000000000  0.4938580000000 1.0
C      1  0.5263620000000  0.4921980000000  0.4938650000000 1.0
C      1  0.5142260000000  0.4542220000000  0.4257270000000 1.0
C      1  0.4857710000000  0.4542280000000  0.4257270000000 1.0
C      1  0.5567630000000  0.5302940000000  0.5276230000000 1.0
C      1  0.4432240000000  0.5303020000000  0.5276280000000 1.0
C      1  0.5149550000000  0.5020340000000  0.5224070000000 1.0
C      1  0.4850450000000  0.5020340000000  0.5224170000000 1.0
C      1  0.4343270000000  0.5330450000000  0.4672310000000 1.0
C      1  0.5656770000000  0.5330550000000  0.4672360000000 1.0
C      1  0.4709170000000  0.4824140000000  0.5609350000000 1.0
C      1  0.5290810000000  0.4824160000000  0.5609370000000 1.0
C      1  0.4475040000000  0.4767570000000  0.5433740000000 1.0
C      1  0.5524920000000  0.4767610000000  0.5433710000000 1.0
C      1  0.4621590000000  0.4960160000000  0.4399530000000 1.0
C      1  0.5378690000000  0.4960370000000  0.4399700000000 1.0
C      1  0.4819320000000  0.5106120000000  0.5630980000000 1.0
C      1  0.5180630000000  0.5106090000000  0.5630980000000 1.0
C      1  0.4340150000000  0.4827870000000  0.4804630000000 1.0
C      1  0.5659690000000  0.4828050000000  0.4804740000000 1.0
C      1  0.4418250000000  0.5034310000000  0.4601210000000 1.0
C      1  0.5581080000000  0.5033710000000  0.4600250000000 1.0
C      1  0.4848340000000  0.4692670000000  0.4741950000000 1.0
C      1  0.5151640000000  0.4692650000000  0.4741920000000 1.0
C      1  0.4748190000000  0.4454060000000  0.4875350000000 1.0
C      1  0.5251820000000  0.4454070000000  0.4875330000000 1.0
C      1  0.5152220000000  0.5564650000000  0.5533270000000 1.0
C      1  0.4847500000000  0.5564460000000  0.5533410000000 1.0
C      1  0.5589950000000  0.4273460000000  0.5180440000000 1.0
C      1  0.4410070000000  0.4273450000000  0.5180440000000 1.0
C      1  0.4817890000000  0.5656810000000  0.4582950000000 1.0
C      1  0.5182120000000  0.5656830000000  0.4582970000000 1.0
C      1  0.5833310000000  0.5203360000000  0.4893480000000 1.0
C      1  0.4167170000000  0.5203050000000  0.4892730000000 1.0
C      1  0.4819270000000  0.5165180000000  0.4313990000000 1.0
C      1  0.5180670000000  0.5165160000000  0.4313960000000 1.0
C      1  0.4846630000000  0.5362740000000  0.5277300000000 1.0
C      1  0.5153630000000  0.5362590000000  0.5277440000000 1.0
C      1  0.5451470000000  0.5270790000000  0.5558450000000 1.0
C      1  0.4548740000000  0.5270990000000  0.5558430000000 1.0
C      1  0.4468120000000  0.4805400000000  0.5106370000000 1.0
C      1  0.5531960000000  0.4805270000000  0.5106410000000 1.0
C      1  0.5362140000000  0.5446620000000  0.5061100000000 1.0
C      1  0.4637920000000  0.5446590000000  0.5061140000000 1.0
C      1  0.4289290000000  0.5088320000000  0.5137050000000 1.0
C      1  0.5710840000000  0.5088520000000  0.5136980000000 1.0
C      1  0.4849410000000  0.5341420000000  0.4564870000000 1.0
C      1  0.5150580000000  0.5341390000000  0.4564870000000 1.0
END
