TITL C-3985250-725-496 0.000314208211526769 125000 -333.72672230982 0 0 60 (C4) n - 1
REM
REM in /home/nfs/bkarasulu/CARBON/AIRSS/Generating-Clusters/TERSOFF/Higher-Symm/Only-C60
REM
REM
REM
REM
REM
REM ./C.cell (28575a23ae977d3b5fae324c64b13b57)
REM
REM compiler GCC version 9.2.1 20190827 (Red Hat 9.2.1-1)
REM options -cpp -mtune=generic -march=x86-64 -g -O0 -fpre-include=/usr/include/finclude/math-vector-fortran.h
REM seed -239444462 -2071161778 1122778982 524707512 95813791 -128435542 1654386306 1152350689 1422575283 -1351164726 1497649875 1143175292 624461670 483700839 334456683 1276852702 418622033 -797349682 2026171873 1003619340 2126719705 2078842457 -1289910869 -1133122115 900934328 -1910248560 393450036 -1215748444 512230791 -1571896166 2050917222 1399145709 538434232
REM
CELL 1.54180   50.00000   50.00000   50.00000   90.00000   90.00000   90.00000
LATT -1
SFAC C  
C      1  0.4570870000000  0.5075230000000  0.4620910000000 1.0
C      1  0.5380210000000  0.5074650000000  0.4570010000000 1.0
C      1  0.5429390000000  0.5074920000000  0.5379340000000 1.0
C      1  0.4620580000000  0.5074910000000  0.5430260000000 1.0
C      1  0.4170000000000  0.5101320000000  0.4847840000000 1.0
C      1  0.5152990000000  0.5100370000000  0.4169370000000 1.0
C      1  0.5830190000000  0.5101060000000  0.5153300000000 1.0
C      1  0.4846800000000  0.5101240000000  0.5830940000000 1.0
C      1  0.5536670000000  0.4840470000000  0.5526640000000 1.0
C      1  0.4474980000000  0.4839720000000  0.5538020000000 1.0
C      1  0.4462740000000  0.4840280000000  0.4474470000000 1.0
C      1  0.5526530000000  0.4840370000000  0.4462740000000 1.0
C      1  0.5205200000000  0.4367350000000  0.5080300000000 1.0
C      1  0.4919670000000  0.4367750000000  0.5204340000000 1.0
C      1  0.4794840000000  0.4367860000000  0.4919530000000 1.0
C      1  0.5080080000000  0.4367950000000  0.4795310000000 1.0
C      1  0.5804080000000  0.4820150000000  0.5634630000000 1.0
C      1  0.4364930000000  0.4819820000000  0.5804460000000 1.0
C      1  0.4196780000000  0.4821660000000  0.4362530000000 1.0
C      1  0.5636300000000  0.4819040000000  0.4195760000000 1.0
C      1  0.4766780000000  0.5190200000000  0.4449350000000 1.0
C      1  0.5551240000000  0.5190220000000  0.4766860000000 1.0
C      1  0.5231800000000  0.5190490000000  0.5549590000000 1.0
C      1  0.4449400000000  0.5190020000000  0.5234100000000 1.0
C      1  0.4824600000000  0.5576240000000  0.5191220000000 1.0
C      1  0.4809010000000  0.5575770000000  0.4824790000000 1.0
C      1  0.5174980000000  0.5575390000000  0.4808250000000 1.0
C      1  0.5190370000000  0.5575570000000  0.5174100000000 1.0
C      1  0.5075980000000  0.4985160000000  0.5698150000000 1.0
C      1  0.4301080000000  0.4984910000000  0.5077220000000 1.0
C      1  0.4923800000000  0.4984540000000  0.4301220000000 1.0
C      1  0.5698810000000  0.4984720000000  0.4923580000000 1.0
C      1  0.4702320000000  0.5262310000000  0.5635370000000 1.0
C      1  0.4365680000000  0.5262050000000  0.4703410000000 1.0
C      1  0.5298110000000  0.5261290000000  0.4364690000000 1.0
C      1  0.5634410000000  0.5262060000000  0.5297610000000 1.0
C      1  0.4783420000000  0.4914050000000  0.4864200000000 1.0
C      1  0.5135920000000  0.4913500000000  0.4782940000000 1.0
C      1  0.5217000000000  0.4913760000000  0.5135010000000 1.0
C      1  0.4864550000000  0.4914080000000  0.5217350000000 1.0
C      1  0.5574580000000  0.4695160000000  0.4921490000000 1.0
C      1  0.5077970000000  0.4695470000000  0.5574260000000 1.0
C      1  0.4425470000000  0.4695830000000  0.5079190000000 1.0
C      1  0.4921160000000  0.4695840000000  0.4425750000000 1.0
C      1  0.4881100000000  0.5450230000000  0.4532240000000 1.0
C      1  0.5467340000000  0.5450330000000  0.4880290000000 1.0
C      1  0.5118270000000  0.5450160000000  0.5465970000000 1.0
C      1  0.4532180000000  0.5450620000000  0.5120130000000 1.0
C      1  0.5361010000000  0.4619020000000  0.5471910000000 1.0
C      1  0.4527980000000  0.4618480000000  0.5361800000000 1.0
C      1  0.4638280000000  0.4619260000000  0.4528230000000 1.0
C      1  0.5472020000000  0.4618060000000  0.4638420000000 1.0
C      1  0.4830760000000  0.5502120000000  0.5526190000000 1.0
C      1  0.4474780000000  0.5501360000000  0.4832700000000 1.0
C      1  0.5168680000000  0.5501130000000  0.4473650000000 1.0
C      1  0.5525290000000  0.5501530000000  0.5168330000000 1.0
C      1  0.5367440000000  0.4602970000000  0.5155570000000 1.0
C      1  0.4844300000000  0.4603060000000  0.5366670000000 1.0
C      1  0.4632910000000  0.4603780000000  0.4844750000000 1.0
C      1  0.5155390000000  0.4603140000000  0.4632740000000 1.0
END
