TITL C-3985256-5419-133 0.00363123323428781 125000 -320.237571704862 0 0 60 (C1) n - 1
REM
REM in /home/nfs/bkarasulu/CARBON/AIRSS/Generating-Clusters/TERSOFF/Higher-Symm/Only-C60
REM
REM
REM
REM
REM
REM ./C.cell (28575a23ae977d3b5fae324c64b13b57)
REM
REM compiler GCC version 9.2.1 20190827 (Red Hat 9.2.1-1)
REM options -cpp -mtune=generic -march=x86-64 -g -O0 -fpre-include=/usr/include/finclude/math-vector-fortran.h
REM seed -1323051569 1415593589 -1221056819 -1789195823 1437212684 1268791537 1536713178 1132602630 821805467 1688178860 -2013814618 -1950496742 -921153269 -1233111669 -2074809252 -1583879041 763602010 992945774 1005882645 -1525646617 680543969 138263111 1131517599 -2121088632 1497771915 1030095381 -457810278 1563943995 2008872107 1712649981 -1614429206 -79070445 613107568
REM
CELL 1.54180   50.00000   50.00000   50.00000   90.00000   90.00000   90.00000
LATT -1
SFAC C  
C      1  0.4972090000000  0.5169120000000  0.5273850000000 1.0
C      1  0.4969820000000  0.5152690000000  0.4714540000000 1.0
C      1  0.4970770000000  0.4676830000000  0.5010150000000 1.0
C      1  0.4677540000000  0.5173950000000  0.4727830000000 1.0
C      1  0.4678700000000  0.4679450000000  0.4983770000000 1.0
C      1  0.4680880000000  0.5145380000000  0.5286270000000 1.0
C      1  0.4872740000000  0.5542460000000  0.4975940000000 1.0
C      1  0.4872680000000  0.4706670000000  0.4539760000000 1.0
C      1  0.4873470000000  0.4747780000000  0.5484130000000 1.0
C      1  0.5539390000000  0.5625020000000  0.4756940000000 1.0
C      1  0.5540810000000  0.4478810000000  0.4579660000000 1.0
C      1  0.5542130000000  0.4898080000000  0.5661650000000 1.0
C      1  0.5227060000000  0.4487730000000  0.5539090000000 1.0
C      1  0.5231060000000  0.5718540000000  0.5178720000000 1.0
C      1  0.5230730000000  0.4794360000000  0.4287810000000 1.0
C      1  0.4443450000000  0.4975910000000  0.4804160000000 1.0
C      1  0.4444960000000  0.4842690000000  0.5118250000000 1.0
C      1  0.4447660000000  0.5181780000000  0.5077640000000 1.0
C      1  0.4642060000000  0.4517850000000  0.4721810000000 1.0
C      1  0.4642920000000  0.5001000000000  0.5557460000000 1.0
C      1  0.4642570000000  0.5481830000000  0.4719080000000 1.0
C      1  0.5607450000000  0.5246930000000  0.5183810000000 1.0
C      1  0.5607020000000  0.5036760000000  0.4700370000000 1.0
C      1  0.5608540000000  0.4721600000000  0.5116770000000 1.0
C      1  0.5120730000000  0.4493030000000  0.4802400000000 1.0
C      1  0.5122100000000  0.5082760000000  0.5537390000000 1.0
C      1  0.5121370000000  0.5423410000000  0.4659420000000 1.0
C      1  0.4848750000000  0.5148640000000  0.4289460000000 1.0
C      1  0.4847830000000  0.4310280000000  0.5226830000000 1.0
C      1  0.4847950000000  0.5539380000000  0.5483710000000 1.0
C      1  0.4437370000000  0.4823270000000  0.4345050000000 1.0
C      1  0.4437850000000  0.4522560000000  0.5480640000000 1.0
C      1  0.4438430000000  0.5656630000000  0.5173880000000 1.0
C      1  0.4726020000000  0.5634400000000  0.5225340000000 1.0
C      1  0.4725280000000  0.4877350000000  0.4334890000000 1.0
C      1  0.4725410000000  0.4485840000000  0.5439000000000 1.0
C      1  0.5528120000000  0.4542390000000  0.4890590000000 1.0
C      1  0.5529410000000  0.5135070000000  0.5450290000000 1.0
C      1  0.5528880000000  0.5323020000000  0.4659160000000 1.0
C      1  0.5306690000000  0.4353560000000  0.5007200000000 1.0
C      1  0.5307090000000  0.5328280000000  0.5558310000000 1.0
C      1  0.5308030000000  0.5318120000000  0.4436540000000 1.0
C      1  0.5098560000000  0.5334990000000  0.5068640000000 1.0
C      1  0.5097610000000  0.4891900000000  0.4674030000000 1.0
C      1  0.5099200000000  0.4770860000000  0.5257110000000 1.0
C      1  0.5258040000000  0.5668500000000  0.4867270000000 1.0
C      1  0.5258980000000  0.4551660000000  0.4487960000000 1.0
C      1  0.5259500000000  0.4783630000000  0.5644740000000 1.0
C      1  0.4725980000000  0.5320510000000  0.5665130000000 1.0
C      1  0.4727360000000  0.5415500000000  0.4388210000000 1.0
C      1  0.4726970000000  0.4263370000000  0.4945110000000 1.0
C      1  0.4405270000000  0.4727680000000  0.4625860000000 1.0
C      1  0.4406770000000  0.4813250000000  0.5422350000000 1.0
C      1  0.4407930000000  0.5459790000000  0.4951460000000 1.0
C      1  0.5141720000000  0.5548920000000  0.5426620000000 1.0
C      1  0.5142700000000  0.5094560000000  0.4309000000000 1.0
C      1  0.5142150000000  0.4352990000000  0.5266030000000 1.0
C      1  0.5408120000000  0.4833820000000  0.4760120000000 1.0
C      1  0.5410380000000  0.4874440000000  0.5263830000000 1.0
C      1  0.5408940000000  0.5292450000000  0.4976950000000 1.0
END
