TITL C-3985254-1270-863 1.23477650279787e-06 125000 -311.739592623502 0 0 60 (C1) n - 1
REM
REM in /home/nfs/bkarasulu/CARBON/AIRSS/Generating-Clusters/TERSOFF/Higher-Symm/Only-C60
REM
REM
REM
REM
REM
REM ./C.cell (28575a23ae977d3b5fae324c64b13b57)
REM
REM compiler GCC version 9.2.1 20190827 (Red Hat 9.2.1-1)
REM options -cpp -mtune=generic -march=x86-64 -g -O0 -fpre-include=/usr/include/finclude/math-vector-fortran.h
REM seed -477392444 -1988682270 -318175915 -987778557 -1707590266 -1173092040 -654757400 1121682053 1148934015 -495978329 -389563391 -560649064 -1478410705 -1811826063 1945982230 1766782255 -2010638186 885297523 -141201011 -123636535 -276356592 -929235633 -1375406002 -883177124 1202467293 -919797741 1185189461 -829629656 -874287381 1044662556 -887720863 -1705434671 -1942871712
REM
CELL 1.54180   50.00000   50.00000   50.00000   90.00000   90.00000   90.00000
LATT -1
SFAC C  
C      1  0.4613190000000  0.5732670000000  0.5136950000000 1.0
C      1  0.5333370000000  0.5765650000000  0.5132490000000 1.0
C      1  0.5804210000000  0.5226120000000  0.5127900000000 1.0
C      1  0.5681100000000  0.4521490000000  0.5141660000000 1.0
C      1  0.5021670000000  0.4178800000000  0.5152120000000 1.0
C      1  0.4390530000000  0.4449910000000  0.5148220000000 1.0
C      1  0.4189900000000  0.5155060000000  0.5143420000000 1.0
C      1  0.5677520000000  0.5247650000000  0.5410770000000 1.0
C      1  0.5612580000000  0.4641200000000  0.5418920000000 1.0
C      1  0.5071730000000  0.4320810000000  0.5418390000000 1.0
C      1  0.4506030000000  0.4499070000000  0.5429260000000 1.0
C      1  0.4299230000000  0.5083300000000  0.5423890000000 1.0
C      1  0.4627330000000  0.5604980000000  0.5418970000000 1.0
C      1  0.5238810000000  0.5677200000000  0.5414610000000 1.0
C      1  0.5361100000000  0.5529040000000  0.4950300000000 1.0
C      1  0.5638530000000  0.5054230000000  0.4945170000000 1.0
C      1  0.5443880000000  0.4538020000000  0.4959530000000 1.0
C      1  0.4896170000000  0.4368550000000  0.4954280000000 1.0
C      1  0.4458980000000  0.4675750000000  0.4964700000000 1.0
C      1  0.4412890000000  0.5232640000000  0.4957980000000 1.0
C      1  0.4813840000000  0.5607500000000  0.4951900000000 1.0
C      1  0.4650330000000  0.4854150000000  0.5133860000000 1.0
C      1  0.4667560000000  0.5186020000000  0.5131080000000 1.0
C      1  0.4937550000000  0.5380600000000  0.5124790000000 1.0
C      1  0.5257580000000  0.5292130000000  0.5119890000000 1.0
C      1  0.5389290000000  0.4987300000000  0.5119450000000 1.0
C      1  0.5232240000000  0.4691670000000  0.5124750000000 1.0
C      1  0.4907890000000  0.4626050000000  0.5120510000000 1.0
C      1  0.5303250000000  0.4543990000000  0.5401570000000 1.0
C      1  0.4827860000000  0.4533120000000  0.5424390000000 1.0
C      1  0.4484940000000  0.4821950000000  0.5405120000000 1.0
C      1  0.4541410000000  0.5295540000000  0.5404670000000 1.0
C      1  0.4944180000000  0.5549370000000  0.5396700000000 1.0
C      1  0.5391920000000  0.5394430000000  0.5391420000000 1.0
C      1  0.5550850000000  0.4952540000000  0.5391160000000 1.0
C      1  0.5374570000000  0.5047920000000  0.4497310000000 1.0
C      1  0.5274310000000  0.4737660000000  0.4518020000000 1.0
C      1  0.4970090000000  0.4620260000000  0.4504310000000 1.0
C      1  0.4691970000000  0.4789820000000  0.4519920000000 1.0
C      1  0.4646680000000  0.5113250000000  0.4510170000000 1.0
C      1  0.4870910000000  0.5349630000000  0.4505850000000 1.0
C      1  0.5195440000000  0.5320350000000  0.4509360000000 1.0
C      1  0.5186410000000  0.5307040000000  0.4182850000000 1.0
C      1  0.5357190000000  0.5043130000000  0.4150010000000 1.0
C      1  0.5260250000000  0.4746560000000  0.4196090000000 1.0
C      1  0.4968020000000  0.4634920000000  0.4156110000000 1.0
C      1  0.4698820000000  0.4795650000000  0.4194100000000 1.0
C      1  0.4654390000000  0.5107370000000  0.4171520000000 1.0
C      1  0.4872250000000  0.5336740000000  0.4168720000000 1.0
C      1  0.5326930000000  0.5534890000000  0.4663390000000 1.0
C      1  0.5624110000000  0.5082660000000  0.4655910000000 1.0
C      1  0.5456780000000  0.4566680000000  0.4672900000000 1.0
C      1  0.4944000000000  0.4371010000000  0.4666560000000 1.0
C      1  0.4484500000000  0.4653140000000  0.4678030000000 1.0
C      1  0.4410400000000  0.5194930000000  0.4669930000000 1.0
C      1  0.4783820000000  0.5584790000000  0.4664060000000 1.0
C      1  0.5008320000000  0.5003490000000  0.5293920000000 1.0
C      1  0.5002140000000  0.5000810000000  0.4959020000000 1.0
C      1  0.4913810000000  0.4813990000000  0.5503690000000 1.0
C      1  0.4904030000000  0.4896500000000  0.5782240000000 1.0
END
