TITL C-3985246-2097-112 0.000129706385168856 125000 -315.126241322299 0 0 60 (C4) n - 1
REM
REM in /home/nfs/bkarasulu/CARBON/AIRSS/Generating-Clusters/TERSOFF/Higher-Symm/Only-C60
REM
REM
REM
REM
REM
REM ./C.cell (28575a23ae977d3b5fae324c64b13b57)
REM
REM compiler GCC version 9.2.1 20190827 (Red Hat 9.2.1-1)
REM options -cpp -mtune=generic -march=x86-64 -g -O0 -fpre-include=/usr/include/finclude/math-vector-fortran.h
REM seed 571861164 1468350396 1243471394 1874898540 -236961694 54479480 297360547 -1760326095 -108035139 2083759236 656890874 1557436465 -1804882855 1429004351 -232923133 -1272500887 1707383212 -953999529 -1182956229 1659781873 -1036920896 -533927987 350576297 853291029 -221506677 1653689043 1419562487 -837637330 2145884989 -129695110 212926691 -86829848 1607398430
REM
CELL 1.54180   50.00000   50.00000   50.00000   90.00000   90.00000   90.00000
LATT -1
SFAC C  
C      1  0.5501380000000  0.5221890000000  0.4951510000000 1.0
C      1  0.5501380000000  0.4951510000000  0.4778110000000 1.0
C      1  0.5501380000000  0.4778110000000  0.5048490000000 1.0
C      1  0.5501380000000  0.5048490000000  0.5221890000000 1.0
C      1  0.4763340000000  0.4914280000000  0.4800840000000 1.0
C      1  0.4763330000000  0.4800830000000  0.5085730000000 1.0
C      1  0.4763340000000  0.5085730000000  0.5199150000000 1.0
C      1  0.4763340000000  0.5199170000000  0.4914270000000 1.0
C      1  0.4380080000000  0.4752600000000  0.4922460000000 1.0
C      1  0.4380070000000  0.4922460000000  0.5247400000000 1.0
C      1  0.4380070000000  0.5247390000000  0.5077540000000 1.0
C      1  0.4380070000000  0.5077540000000  0.4752600000000 1.0
C      1  0.4834640000000  0.4370690000000  0.5120950000000 1.0
C      1  0.4834630000000  0.5120950000000  0.5629310000000 1.0
C      1  0.4834640000000  0.5629320000000  0.4879050000000 1.0
C      1  0.4834630000000  0.4879050000000  0.4370690000000 1.0
C      1  0.5326400000000  0.5164100000000  0.5585360000000 1.0
C      1  0.5326400000000  0.5585360000000  0.4835900000000 1.0
C      1  0.5326400000000  0.4835900000000  0.4414640000000 1.0
C      1  0.5326400000000  0.4414640000000  0.5164100000000 1.0
C      1  0.4528720000000  0.4558030000000  0.4655080000000 1.0
C      1  0.4528720000000  0.4655070000000  0.5441970000000 1.0
C      1  0.4528720000000  0.5441970000000  0.5344920000000 1.0
C      1  0.4528720000000  0.5344920000000  0.4558030000000 1.0
C      1  0.4814800000000  0.5551440000000  0.5340330000000 1.0
C      1  0.4814800000000  0.5340320000000  0.4448570000000 1.0
C      1  0.4814800000000  0.4448570000000  0.4659670000000 1.0
C      1  0.4814800000000  0.4659670000000  0.5551430000000 1.0
C      1  0.5060900000000  0.5305460000000  0.5668180000000 1.0
C      1  0.5060900000000  0.5668180000000  0.4694540000000 1.0
C      1  0.5060900000000  0.4694530000000  0.4331820000000 1.0
C      1  0.5060900000000  0.4331820000000  0.5305470000000 1.0
C      1  0.5486120000000  0.4642080000000  0.5325930000000 1.0
C      1  0.5486120000000  0.5325930000000  0.5357920000000 1.0
C      1  0.5486120000000  0.5357920000000  0.4674070000000 1.0
C      1  0.5486120000000  0.4674070000000  0.4642080000000 1.0
C      1  0.4972530000000  0.5103400000000  0.4490370000000 1.0
C      1  0.4972540000000  0.4490370000000  0.4896600000000 1.0
C      1  0.4972520000000  0.4896610000000  0.5509620000000 1.0
C      1  0.4972520000000  0.5509630000000  0.5103400000000 1.0
C      1  0.5155450000000  0.5248590000000  0.5053900000000 1.0
C      1  0.5155440000000  0.5053900000000  0.4751420000000 1.0
C      1  0.5155450000000  0.4751430000000  0.4946100000000 1.0
C      1  0.5155450000000  0.4946090000000  0.5248580000000 1.0
C      1  0.5003190000000  0.4432570000000  0.5581770000000 1.0
C      1  0.5003190000000  0.5581770000000  0.5567430000000 1.0
C      1  0.5003190000000  0.5567430000000  0.4418240000000 1.0
C      1  0.5003190000000  0.4418230000000  0.4432570000000 1.0
C      1  0.5213780000000  0.5396400000000  0.4275900000000 1.0
C      1  0.5213790000000  0.4275900000000  0.4603600000000 1.0
C      1  0.5213780000000  0.4603600000000  0.5724100000000 1.0
C      1  0.5213790000000  0.5724100000000  0.5396400000000 1.0
C      1  0.5377130000000  0.4423390000000  0.4806340000000 1.0
C      1  0.5377140000000  0.4806340000000  0.5576600000000 1.0
C      1  0.5377140000000  0.5576600000000  0.5193660000000 1.0
C      1  0.5377140000000  0.5193660000000  0.4423390000000 1.0
C      1  0.4581530000000  0.5437210000000  0.4842320000000 1.0
C      1  0.4581540000000  0.4842310000000  0.4562800000000 1.0
C      1  0.4581540000000  0.4562800000000  0.5157690000000 1.0
C      1  0.4581550000000  0.5157690000000  0.5437190000000 1.0
END
