TITL C-3985247-764-491 0.0174371351578243 125000 -286.791957501147 0 0 60 (C1) n - 1
REM
REM in /home/nfs/bkarasulu/CARBON/AIRSS/Generating-Clusters/TERSOFF/Higher-Symm/Only-C60
REM
REM
REM
REM
REM
REM ./C.cell (28575a23ae977d3b5fae324c64b13b57)
REM
REM compiler GCC version 9.2.1 20190827 (Red Hat 9.2.1-1)
REM options -cpp -mtune=generic -march=x86-64 -g -O0 -fpre-include=/usr/include/finclude/math-vector-fortran.h
REM seed -1798761797 904542912 -650548036 -1973770582 -1256638382 845923157 1609247246 1152971772 -2086708675 -668500606 -1322571772 2136573552 -527617186 1274065716 -575261839 1073244355 -547753806 -518392582 -1187452964 -630992667 232226861 1043488892 769846039 -891229648 1679567011 -131282383 577189239 1908619013 -1670696928 1528104418 -383032981 131815689 -1839867735
REM
CELL 1.54180   50.00000   50.00000   50.00000   90.00000   90.00000   90.00000
LATT -1
SFAC C  
C      1  0.4944200000000  0.5424770000000  0.4526920000000 1.0
C      1  0.5395470000000  0.4831160000000  0.4522500000000 1.0
C      1  0.4658340000000  0.4739260000000  0.4521520000000 1.0
C      1  0.5043750000000  0.4607410000000  0.5645330000000 1.0
C      1  0.4640170000000  0.5187010000000  0.5626610000000 1.0
C      1  0.5347860000000  0.5230960000000  0.5657550000000 1.0
C      1  0.5784720000000  0.4852160000000  0.4948440000000 1.0
C      1  0.4478920000000  0.4388220000000  0.4948680000000 1.0
C      1  0.4718390000000  0.5731240000000  0.4997690000000 1.0
C      1  0.4969800000000  0.5340540000000  0.4962190000000 1.0
C      1  0.5291900000000  0.4866070000000  0.4951860000000 1.0
C      1  0.4737720000000  0.4794210000000  0.4952170000000 1.0
C      1  0.4930080000000  0.4390680000000  0.4672990000000 1.0
C      1  0.4507120000000  0.5355090000000  0.4685930000000 1.0
C      1  0.5561750000000  0.5239670000000  0.4674730000000 1.0
C      1  0.5480430000000  0.4769610000000  0.5398850000000 1.0
C      1  0.4558550000000  0.4707910000000  0.5400420000000 1.0
C      1  0.5014600000000  0.5576210000000  0.5447550000000 1.0
C      1  0.5116440000000  0.5610270000000  0.4944450000000 1.0
C      1  0.5447200000000  0.4602720000000  0.4955290000000 1.0
C      1  0.4431820000000  0.4805190000000  0.4952490000000 1.0
C      1  0.4914090000000  0.4678800000000  0.4366320000000 1.0
C      1  0.4763810000000  0.5234890000000  0.4369680000000 1.0
C      1  0.5321050000000  0.5084760000000  0.4368230000000 1.0
C      1  0.4221190000000  0.5216360000000  0.4973180000000 1.0
C      1  0.5579660000000  0.5518700000000  0.4989320000000 1.0
C      1  0.5161670000000  0.4234070000000  0.4984700000000 1.0
C      1  0.4411900000000  0.5039870000000  0.5436490000000 1.0
C      1  0.5364770000000  0.5488450000000  0.5470580000000 1.0
C      1  0.5266870000000  0.4480820000000  0.5445290000000 1.0
C      1  0.5187350000000  0.5056690000000  0.4110800000000 1.0
C      1  0.4954810000000  0.4809730000000  0.4110020000000 1.0
C      1  0.4856880000000  0.5135940000000  0.4112110000000 1.0
C      1  0.4748480000000  0.5510380000000  0.4768140000000 1.0
C      1  0.5559910000000  0.4959200000000  0.4764890000000 1.0
C      1  0.4684110000000  0.4530010000000  0.4760780000000 1.0
C      1  0.4974130000000  0.5748010000000  0.5188430000000 1.0
C      1  0.5683860000000  0.4642020000000  0.5157310000000 1.0
C      1  0.4344830000000  0.4584650000000  0.5157700000000 1.0
C      1  0.5330120000000  0.4384600000000  0.4798670000000 1.0
C      1  0.4296110000000  0.5005610000000  0.4785110000000 1.0
C      1  0.5369210000000  0.5590940000000  0.4801040000000 1.0
C      1  0.5046020000000  0.5218070000000  0.5500030000000 1.0
C      1  0.5152910000000  0.4880490000000  0.5501260000000 1.0
C      1  0.4817880000000  0.4948230000000  0.5479940000000 1.0
C      1  0.4752750000000  0.4553270000000  0.5616900000000 1.0
C      1  0.4731080000000  0.5474890000000  0.5604000000000 1.0
C      1  0.5535570000000  0.5004240000000  0.5622230000000 1.0
C      1  0.5414130000000  0.5056810000000  0.5182470000000 1.0
C      1  0.4838370000000  0.4604520000000  0.5189830000000 1.0
C      1  0.4691610000000  0.5302280000000  0.5125460000000 1.0
C      1  0.5131770000000  0.5200520000000  0.5202890000000 1.0
C      1  0.5098640000000  0.4782990000000  0.5206910000000 1.0
C      1  0.4753360000000  0.5018260000000  0.5181860000000 1.0
C      1  0.5519100000000  0.5360960000000  0.5227280000000 1.0
C      1  0.5061080000000  0.4364860000000  0.5225810000000 1.0
C      1  0.4397480000000  0.5249540000000  0.5200920000000 1.0
C      1  0.4520340000000  0.5061990000000  0.4538850000000 1.0
C      1  0.5298160000000  0.5383970000000  0.4542030000000 1.0
C      1  0.5185740000000  0.4549250000000  0.4538370000000 1.0
END
