TITL C-3985254-1270-638 1.33803417663657e-06 125000 -315.695008303983 0 0 60 (C3) n - 1
REM
REM in /home/nfs/bkarasulu/CARBON/AIRSS/Generating-Clusters/TERSOFF/Higher-Symm/Only-C60
REM
REM
REM
REM
REM
REM ./C.cell (28575a23ae977d3b5fae324c64b13b57)
REM
REM compiler GCC version 9.2.1 20190827 (Red Hat 9.2.1-1)
REM options -cpp -mtune=generic -march=x86-64 -g -O0 -fpre-include=/usr/include/finclude/math-vector-fortran.h
REM seed 684425175 -738571035 -1317049556 1560202006 -1340809896 145060932 -1956868052 -860570615 1195120289 847450659 371241613 477393935 1722966922 -265088200 -1982917077 -1908910786 -1615686603 -1298944767 -1297214103 -1127046247 1163878122 -631579159 -285228028 -1947710827 1772299890 -647979899 -2080543291 -1986947986 -1717884416 182689888 1289992206 -1360785659 -1879998760
REM
CELL 1.54180   50.00000   50.00000   50.00000   90.00000   90.00000   90.00000
LATT -1
SFAC C  
C      1  0.5148660000000  0.5453970000000  0.4923000000000 1.0
C      1  0.5148660000000  0.4839700000000  0.5431650000000 1.0
C      1  0.5148660000000  0.4706330000000  0.4645350000000 1.0
C      1  0.5591280000000  0.4594720000000  0.4915470000000 1.0
C      1  0.5591280000000  0.5275840000000  0.4691280000000 1.0
C      1  0.5591280000000  0.5129430000000  0.5393250000000 1.0
C      1  0.4713330000000  0.4550890000000  0.5447450000000 1.0
C      1  0.4713330000000  0.4837060000000  0.4387330000000 1.0
C      1  0.4713330000000  0.5612060000000  0.5165220000000 1.0
C      1  0.4739710000000  0.4944120000000  0.5302700000000 1.0
C      1  0.4739710000000  0.4765800000000  0.4800260000000 1.0
C      1  0.4739710000000  0.5290080000000  0.4897050000000 1.0
C      1  0.5606480000000  0.4756200000000  0.4657440000000 1.0
C      1  0.5606480000000  0.5418570000000  0.4960150000000 1.0
C      1  0.5606480000000  0.4825230000000  0.5382420000000 1.0
C      1  0.4494350000000  0.5046090000000  0.4489730000000 1.0
C      1  0.4494350000000  0.5418860000000  0.5295050000000 1.0
C      1  0.4494340000000  0.4535050000000  0.5215220000000 1.0
C      1  0.4877390000000  0.4821990000000  0.5563500000000 1.0
C      1  0.4877390000000  0.4601000000000  0.4564090000000 1.0
C      1  0.4877390000000  0.5577010000000  0.4872410000000 1.0
C      1  0.4945620000000  0.4426020000000  0.5267960000000 1.0
C      1  0.4945630000000  0.5054930000000  0.4368940000000 1.0
C      1  0.4945630000000  0.5519050000000  0.5363100000000 1.0
C      1  0.4924810000000  0.4180130000000  0.5104810000000 1.0
C      1  0.4924820000000  0.5319170000000  0.4237560000000 1.0
C      1  0.4924810000000  0.5500710000000  0.5657630000000 1.0
C      1  0.5348440000000  0.5290910000000  0.4491410000000 1.0
C      1  0.5348440000000  0.5294990000000  0.5506230000000 1.0
C      1  0.5348440000000  0.4414090000000  0.5002350000000 1.0
C      1  0.4454750000000  0.5329880000000  0.4796050000000 1.0
C      1  0.4454750000000  0.5011690000000  0.5387650000000 1.0
C      1  0.4454750000000  0.4658440000000  0.4816290000000 1.0
C      1  0.5253230000000  0.5527890000000  0.5322980000000 1.0
C      1  0.5253230000000  0.4456350000000  0.5295680000000 1.0
C      1  0.5253230000000  0.5015760000000  0.4381340000000 1.0
C      1  0.4848960000000  0.5215900000000  0.5193800000000 1.0
C      1  0.4848960000000  0.4724220000000  0.5090080000000 1.0
C      1  0.4848960000000  0.5059880000000  0.4716120000000 1.0
C      1  0.4834450000000  0.5092320000000  0.5695550000000 1.0
C      1  0.4834450000000  0.4351480000000  0.4732180000000 1.0
C      1  0.4834450000000  0.5556200000000  0.4572270000000 1.0
C      1  0.5131930000000  0.4955610000000  0.4811770000000 1.0
C      1  0.5131930000000  0.5185210000000  0.5055680000000 1.0
C      1  0.5131920000000  0.4859180000000  0.5132560000000 1.0
C      1  0.4569460000000  0.5234260000000  0.5594930000000 1.0
C      1  0.4569460000000  0.4367650000000  0.4905400000000 1.0
C      1  0.4569460000000  0.5398100000000  0.4499660000000 1.0
C      1  0.4302940000000  0.4798030000000  0.5060190000000 1.0
C      1  0.4302940000000  0.5048860000000  0.4794990000000 1.0
C      1  0.4302940000000  0.5153110000000  0.5144820000000 1.0
C      1  0.5738760000000  0.5276030000000  0.5181840000000 1.0
C      1  0.5738760000000  0.4704510000000  0.5148130000000 1.0
C      1  0.5738760000000  0.5019460000000  0.4670030000000 1.0
C      1  0.5097950000000  0.5509780000000  0.4406400000000 1.0
C      1  0.5097950000000  0.5259180000000  0.5738280000000 1.0
C      1  0.5097950000000  0.4231040000000  0.4855320000000 1.0
C      1  0.5377510000000  0.4744960000000  0.4467110000000 1.0
C      1  0.5377510000000  0.5589020000000  0.5045580000000 1.0
C      1  0.5377500000000  0.4666020000000  0.5487320000000 1.0
END
