TITL C-3985254-1270-714 0.00481765568004692 125000 -322.196160593165 0 0 60 (Ci) n - 1
REM
REM in /home/nfs/bkarasulu/CARBON/AIRSS/Generating-Clusters/TERSOFF/Higher-Symm/Only-C60
REM
REM
REM
REM
REM
REM ./C.cell (28575a23ae977d3b5fae324c64b13b57)
REM
REM compiler GCC version 9.2.1 20190827 (Red Hat 9.2.1-1)
REM options -cpp -mtune=generic -march=x86-64 -g -O0 -fpre-include=/usr/include/finclude/math-vector-fortran.h
REM seed 607541540 414791091 -1846448589 -966169199 318424313 1758812148 138684462 -1539687677 -1537653020 -1996679515 -1539732215 -803940006 1261580317 -422042012 671761569 -1565789804 -953616393 -798663415 -654544273 902888599 -2052961260 -2078905510 862883917 -623108847 -1331826717 -681752457 1030379685 -1022008051 656043165 -344684345 2033587079 -1794214709 -1622148436
REM
CELL 1.54180   50.00000   50.00000   50.00000   90.00000   90.00000   90.00000
LATT -1
SFAC C  
C      1  0.5238840000000  0.5174160000000  0.4416630000000 1.0
C      1  0.4761200000000  0.4825840000000  0.5583370000000 1.0
C      1  0.5162860000000  0.4885660000000  0.4614830000000 1.0
C      1  0.4836890000000  0.5114450000000  0.5385350000000 1.0
C      1  0.5054880000000  0.4684470000000  0.5233420000000 1.0
C      1  0.4945120000000  0.5315510000000  0.4766560000000 1.0
C      1  0.5155940000000  0.5480070000000  0.5423580000000 1.0
C      1  0.4844060000000  0.4519930000000  0.4576420000000 1.0
C      1  0.4699710000000  0.5323020000000  0.5604920000000 1.0
C      1  0.5300300000000  0.4676970000000  0.4395100000000 1.0
C      1  0.5163400000000  0.5660950000000  0.4942160000000 1.0
C      1  0.4836600000000  0.4339050000000  0.5057840000000 1.0
C      1  0.4990350000000  0.4267830000000  0.5312950000000 1.0
C      1  0.5009650000000  0.5732180000000  0.4687060000000 1.0
C      1  0.5608600000000  0.5185280000000  0.5529370000000 1.0
C      1  0.4391410000000  0.4814730000000  0.4470630000000 1.0
C      1  0.4691850000000  0.5052410000000  0.5146210000000 1.0
C      1  0.5308170000000  0.4947590000000  0.4853790000000 1.0
C      1  0.5254150000000  0.4445770000000  0.5310410000000 1.0
C      1  0.4745850000000  0.5554220000000  0.4689590000000 1.0
C      1  0.5302600000000  0.4393490000000  0.4822620000000 1.0
C      1  0.4697400000000  0.5606500000000  0.5177380000000 1.0
C      1  0.5626350000000  0.5344210000000  0.5006070000000 1.0
C      1  0.4373650000000  0.4655790000000  0.4993930000000 1.0
C      1  0.4369020000000  0.5352580000000  0.4900380000000 1.0
C      1  0.5630980000000  0.4647420000000  0.5099620000000 1.0
C      1  0.4535000000000  0.4552390000000  0.4539060000000 1.0
C      1  0.5465000000000  0.5447600000000  0.5460940000000 1.0
C      1  0.5187150000000  0.5202480000000  0.4987980000000 1.0
C      1  0.4812850000000  0.4797520000000  0.5012010000000 1.0
C      1  0.4960960000000  0.5470710000000  0.5652940000000 1.0
C      1  0.5039040000000  0.4529290000000  0.4347060000000 1.0
C      1  0.4551350000000  0.5358270000000  0.4518350000000 1.0
C      1  0.5448380000000  0.4641830000000  0.5481650000000 1.0
C      1  0.5229760000000  0.5008640000000  0.5493720000000 1.0
C      1  0.4770250000000  0.4991400000000  0.4506270000000 1.0
C      1  0.5683930000000  0.5061670000000  0.5059740000000 1.0
C      1  0.4316070000000  0.4938330000000  0.4940260000000 1.0
C      1  0.4788790000000  0.4334080000000  0.5521860000000 1.0
C      1  0.5211210000000  0.5665920000000  0.4478140000000 1.0
C      1  0.5434620000000  0.4421070000000  0.5085340000000 1.0
C      1  0.4565380000000  0.5578930000000  0.4914670000000 1.0
C      1  0.5010060000000  0.5630270000000  0.5194340000000 1.0
C      1  0.4989940000000  0.4369730000000  0.4805660000000 1.0
C      1  0.4874820000000  0.4792910000000  0.4703810000000 1.0
C      1  0.5125200000000  0.5207090000000  0.5296190000000 1.0
C      1  0.5374540000000  0.5430270000000  0.4868330000000 1.0
C      1  0.4625460000000  0.4569730000000  0.5131670000000 1.0
C      1  0.4945710000000  0.5217520000000  0.4480030000000 1.0
C      1  0.5054730000000  0.4782020000000  0.5520100000000 1.0
C      1  0.4544260000000  0.5414410000000  0.5354040000000 1.0
C      1  0.5455550000000  0.4585790000000  0.4645930000000 1.0
C      1  0.4388160000000  0.5093340000000  0.4644890000000 1.0
C      1  0.5611830000000  0.4906660000000  0.5355120000000 1.0
C      1  0.5367900000000  0.4943220000000  0.4252580000000 1.0
C      1  0.4632260000000  0.5056850000000  0.5747120000000 1.0
C      1  0.4392570000000  0.5167950000000  0.5155940000000 1.0
C      1  0.5607430000000  0.4832050000000  0.4844060000000 1.0
C      1  0.5367920000000  0.5420240000000  0.4546470000000 1.0
C      1  0.4632070000000  0.4579760000000  0.5453530000000 1.0
END
