TITL C-3985253-1688-48 -0.00115757085512299 125000 -302.860796766629 0 0 60 (C1) n - 1
REM
REM in /home/nfs/bkarasulu/CARBON/AIRSS/Generating-Clusters/TERSOFF/Higher-Symm/Only-C60
REM
REM
REM
REM
REM
REM ./C.cell (28575a23ae977d3b5fae324c64b13b57)
REM
REM compiler GCC version 9.2.1 20190827 (Red Hat 9.2.1-1)
REM options -cpp -mtune=generic -march=x86-64 -g -O0 -fpre-include=/usr/include/finclude/math-vector-fortran.h
REM seed 8126429 -716028413 -723699937 122739415 -1493078922 192668471 -760158349 -530656225 -45012171 -658467314 43461587 -287347353 1083808096 785128312 7976046 -1749085705 1100658942 -933500431 155107188 -1530358319 2024842580 1039135851 1095610682 256336955 447916410 -1445444960 -2037311319 1293953133 390161493 1583786188 340316413 171736934 -929357414
REM
CELL 1.54180   50.00000   50.00000   50.00000   90.00000   90.00000   90.00000
LATT -1
SFAC C  
C      1  0.4264860000000  0.4646420000000  0.5274670000000 1.0
C      1  0.4586620000000  0.4345410000000  0.5333240000000 1.0
C      1  0.5011760000000  0.4207650000000  0.5255430000000 1.0
C      1  0.5442720000000  0.4375690000000  0.5320110000000 1.0
C      1  0.5665570000000  0.4687010000000  0.5133060000000 1.0
C      1  0.5766710000000  0.5107010000000  0.5293400000000 1.0
C      1  0.5593270000000  0.5561240000000  0.5211970000000 1.0
C      1  0.5210200000000  0.5774200000000  0.5301840000000 1.0
C      1  0.4755940000000  0.5755800000000  0.5214760000000 1.0
C      1  0.4418330000000  0.5496330000000  0.5308970000000 1.0
C      1  0.4229320000000  0.5141770000000  0.5184640000000 1.0
C      1  0.4703890000000  0.4490260000000  0.4845360000000 1.0
C      1  0.5008720000000  0.4407570000000  0.4780260000000 1.0
C      1  0.5289380000000  0.4536190000000  0.4852830000000 1.0
C      1  0.5266060000000  0.4825750000000  0.4941110000000 1.0
C      1  0.5469100000000  0.5043290000000  0.4874360000000 1.0
C      1  0.5362270000000  0.5302850000000  0.4975410000000 1.0
C      1  0.5144230000000  0.5484390000000  0.4878000000000 1.0
C      1  0.4869450000000  0.5422830000000  0.4985480000000 1.0
C      1  0.4617400000000  0.5297590000000  0.4872950000000 1.0
C      1  0.4553230000000  0.5001730000000  0.4957020000000 1.0
C      1  0.4498350000000  0.4728810000000  0.4822470000000 1.0
C      1  0.4711570000000  0.4539530000000  0.4514620000000 1.0
C      1  0.5033290000000  0.4482040000000  0.4442420000000 1.0
C      1  0.5354930000000  0.4545200000000  0.4543610000000 1.0
C      1  0.5575290000000  0.4754750000000  0.4589210000000 1.0
C      1  0.5503440000000  0.5072220000000  0.4556570000000 1.0
C      1  0.5461350000000  0.5400480000000  0.4580250000000 1.0
C      1  0.5147010000000  0.5508770000000  0.4561810000000 1.0
C      1  0.4826800000000  0.5577200000000  0.4597870000000 1.0
C      1  0.4613240000000  0.5335690000000  0.4554730000000 1.0
C      1  0.4397940000000  0.5094030000000  0.4578370000000 1.0
C      1  0.4485050000000  0.4795970000000  0.4500320000000 1.0
C      1  0.5600360000000  0.5514420000000  0.4893340000000 1.0
C      1  0.5210650000000  0.5747340000000  0.5013640000000 1.0
C      1  0.4768050000000  0.5732300000000  0.4901400000000 1.0
C      1  0.4420720000000  0.5476730000000  0.5018710000000 1.0
C      1  0.4240810000000  0.5102540000000  0.4873860000000 1.0
C      1  0.4260810000000  0.4638070000000  0.4984140000000 1.0
C      1  0.4587590000000  0.4299360000000  0.5045910000000 1.0
C      1  0.5024830000000  0.4172260000000  0.4968300000000 1.0
C      1  0.5438420000000  0.4349000000000  0.5031150000000 1.0
C      1  0.5750570000000  0.4698620000000  0.4831970000000 1.0
C      1  0.5744170000000  0.5079720000000  0.5008070000000 1.0
C      1  0.5278980000000  0.4595150000000  0.5457400000000 1.0
C      1  0.5447020000000  0.4817910000000  0.5319340000000 1.0
C      1  0.5506410000000  0.5105130000000  0.5449970000000 1.0
C      1  0.5414790000000  0.5397690000000  0.5391330000000 1.0
C      1  0.5142650000000  0.5532160000000  0.5481850000000 1.0
C      1  0.4840200000000  0.5537940000000  0.5399190000000 1.0
C      1  0.4618830000000  0.5329680000000  0.5486960000000 1.0
C      1  0.4456980000000  0.5080570000000  0.5366750000000 1.0
C      1  0.4481180000000  0.4783330000000  0.5427890000000 1.0
C      1  0.4726720000000  0.4586340000000  0.5471100000000 1.0
C      1  0.5006790000000  0.4471090000000  0.5391990000000 1.0
C      1  0.4888030000000  0.5015470000000  0.5210150000000 1.0
C      1  0.5000820000000  0.4937630000000  0.4953630000000 1.0
C      1  0.5011530000000  0.4993950000000  0.4441660000000 1.0
C      1  0.5023580000000  0.4989310000000  0.5464630000000 1.0
C      1  0.4885100000000  0.5024250000000  0.4700540000000 1.0
END
