TITL C-3985254-1270-1545 -0.00195351010891676 125000 -338.587747797136 0 0 60 (Cs) n - 1
REM
REM in /home/nfs/bkarasulu/CARBON/AIRSS/Generating-Clusters/TERSOFF/Higher-Symm/Only-C60
REM
REM
REM
REM
REM
REM ./C.cell (28575a23ae977d3b5fae324c64b13b57)
REM
REM compiler GCC version 9.2.1 20190827 (Red Hat 9.2.1-1)
REM options -cpp -mtune=generic -march=x86-64 -g -O0 -fpre-include=/usr/include/finclude/math-vector-fortran.h
REM seed 854844417 1540582864 734292809 -310201774 1010635652 -1465925309 1253529536 -1335655934 -1534179510 76620307 1957707403 200972342 -925202112 -1546250434 -741581605 487899184 -2013737319 -1687280250 -2057827126 305544276 -1399567594 -8439279 1249055002 -1458354602 -1503757082 -388373069 962125929 2069325511 542564360 -1648398946 1967999939 -473877540 -373399725
REM
CELL 1.54180   50.00000   50.00000   50.00000   90.00000   90.00000   90.00000
LATT -1
SFAC C  
C      1  0.4651060000000  0.4848460000000  0.4811750000000 1.0
C      1  0.4651060000000  0.5151540000000  0.4811760000000 1.0
C      1  0.4913440000000  0.5589870000000  0.4380250000000 1.0
C      1  0.4913440000000  0.4410130000000  0.4380250000000 1.0
C      1  0.4427220000000  0.4690420000000  0.5005330000000 1.0
C      1  0.4427220000000  0.5309580000000  0.5005330000000 1.0
C      1  0.4756780000000  0.4847270000000  0.5787930000000 1.0
C      1  0.4756780000000  0.5152730000000  0.5787930000000 1.0
C      1  0.5373170000000  0.5508560000000  0.4591730000000 1.0
C      1  0.5373170000000  0.4491440000000  0.4591730000000 1.0
C      1  0.5453820000000  0.5295290000000  0.5440270000000 1.0
C      1  0.5453820000000  0.4704710000000  0.5440270000000 1.0
C      1  0.5672290000000  0.5180940000000  0.4937970000000 1.0
C      1  0.5672290000000  0.4819060000000  0.4937970000000 1.0
C      1  0.5042090000000  0.4406800000000  0.5278550000000 1.0
C      1  0.5042090000000  0.5593200000000  0.5278550000000 1.0
C      1  0.5127170000000  0.4302720000000  0.4561810000000 1.0
C      1  0.5127170000000  0.5697280000000  0.4561810000000 1.0
C      1  0.4816270000000  0.4837510000000  0.5200570000000 1.0
C      1  0.4816270000000  0.5162490000000  0.5200560000000 1.0
C      1  0.5685620000000  0.5155650000000  0.5270490000000 1.0
C      1  0.5685620000000  0.4844350000000  0.5270490000000 1.0
C      1  0.5013290000000  0.4846080000000  0.4566230000000 1.0
C      1  0.5013290000000  0.5153920000000  0.4566230000000 1.0
C      1  0.5015710000000  0.4205900000000  0.4809530000000 1.0
C      1  0.5015710000000  0.5794100000000  0.4809530000000 1.0
C      1  0.4926990000000  0.4644280000000  0.5395310000000 1.0
C      1  0.4926990000000  0.5355720000000  0.5395310000000 1.0
C      1  0.5435950000000  0.4636080000000  0.4857310000000 1.0
C      1  0.5435950000000  0.5363920000000  0.4857310000000 1.0
C      1  0.5208540000000  0.4723990000000  0.5007710000000 1.0
C      1  0.5208540000000  0.5276010000000  0.5007710000000 1.0
C      1  0.5260030000000  0.4857170000000  0.5251240000000 1.0
C      1  0.5260030000000  0.5142830000000  0.5251240000000 1.0
C      1  0.4579950000000  0.4416460000000  0.5005390000000 1.0
C      1  0.4579950000000  0.5583540000000  0.5005390000000 1.0
C      1  0.4894920000000  0.4392580000000  0.4997840000000 1.0
C      1  0.4894920000000  0.5607420000000  0.4997840000000 1.0
C      1  0.4994330000000  0.4727650000000  0.5661250000000 1.0
C      1  0.4994330000000  0.5272350000000  0.5661250000000 1.0
C      1  0.5336950000000  0.5568220000000  0.5335350000000 1.0
C      1  0.5336950000000  0.4431780000000  0.5335350000000 1.0
C      1  0.4796600000000  0.4680830000000  0.4425370000000 1.0
C      1  0.4796600000000  0.5319170000000  0.4425370000000 1.0
C      1  0.4506530000000  0.5277460000000  0.4537030000000 1.0
C      1  0.4506530000000  0.4722540000000  0.4537030000000 1.0
C      1  0.5426230000000  0.4859680000000  0.4253310000000 1.0
C      1  0.5426230000000  0.5140320000000  0.4253310000000 1.0
C      1  0.4237820000000  0.4845510000000  0.4740030000000 1.0
C      1  0.4237820000000  0.5154490000000  0.4740040000000 1.0
C      1  0.4498240000000  0.4838650000000  0.5271740000000 1.0
C      1  0.4498240000000  0.5161350000000  0.5271740000000 1.0
C      1  0.4478660000000  0.4828140000000  0.5607790000000 1.0
C      1  0.4478660000000  0.5171860000000  0.5607790000000 1.0
C      1  0.5271400000000  0.5150120000000  0.5670800000000 1.0
C      1  0.5271400000000  0.4849880000000  0.5670800000000 1.0
C      1  0.4929480000000  0.5284760000000  0.4891880000000 1.0
C      1  0.4929480000000  0.4715240000000  0.4891880000000 1.0
C      1  0.5269470000000  0.4722270000000  0.4448240000000 1.0
C      1  0.5269470000000  0.5277730000000  0.4448240000000 1.0
END
