TITL C-3985254-1270-1462 -0.000962803872096916 125000 -300.212869249161 0 0 60 (C2h) n - 1
REM
REM in /home/nfs/bkarasulu/CARBON/AIRSS/Generating-Clusters/TERSOFF/Higher-Symm/Only-C60
REM
REM
REM
REM
REM
REM ./C.cell (28575a23ae977d3b5fae324c64b13b57)
REM
REM compiler GCC version 9.2.1 20190827 (Red Hat 9.2.1-1)
REM options -cpp -mtune=generic -march=x86-64 -g -O0 -fpre-include=/usr/include/finclude/math-vector-fortran.h
REM seed 506156284 -1400103329 -1392947098 -696766725 1121428614 1252943482 1204967019 -272677975 -1198380263 1078628048 1516919755 330319054 -1456215830 858644795 123650069 -91009668 1935378208 -2102154385 -319074289 1121718891 -1211505215 273686405 -596641139 1957933133 -1842684659 -494607940 1615760522 -1974596548 -1130055065 -1050462839 -377807 -2052585108 2080369795
REM
CELL 1.54180   50.00000   50.00000   50.00000   90.00000   90.00000   90.00000
LATT -1
SFAC C  
C      1  0.4696160000000  0.4389960000000  0.4684470000000 1.0
C      1  0.4695970000000  0.5611710000000  0.5315730000000 1.0
C      1  0.5304570000000  0.4388650000000  0.4683420000000 1.0
C      1  0.5304220000000  0.5609610000000  0.5316410000000 1.0
C      1  0.4695800000000  0.4390380000000  0.5316430000000 1.0
C      1  0.4695540000000  0.5611430000000  0.4683440000000 1.0
C      1  0.5304120000000  0.4388310000000  0.5315720000000 1.0
C      1  0.5303810000000  0.5610050000000  0.4684450000000 1.0
C      1  0.5177510000000  0.5180840000000  0.5642550000000 1.0
C      1  0.5182860000000  0.4819380000000  0.4357420000000 1.0
C      1  0.4814360000000  0.5180470000000  0.5642340000000 1.0
C      1  0.4819680000000  0.4819210000000  0.4357650000000 1.0
C      1  0.5180320000000  0.5180800000000  0.4357640000000 1.0
C      1  0.5185630000000  0.4819520000000  0.5642340000000 1.0
C      1  0.4817140000000  0.5180620000000  0.4357410000000 1.0
C      1  0.4822500000000  0.4819150000000  0.5642570000000 1.0
C      1  0.5251290000000  0.5358450000000  0.5142600000000 1.0
C      1  0.5252710000000  0.4639130000000  0.4857880000000 1.0
C      1  0.4746770000000  0.5360940000000  0.5140990000000 1.0
C      1  0.4748090000000  0.4641190000000  0.4858570000000 1.0
C      1  0.5251990000000  0.5358640000000  0.4858560000000 1.0
C      1  0.5253040000000  0.4638860000000  0.5141020000000 1.0
C      1  0.4747220000000  0.5360720000000  0.4857830000000 1.0
C      1  0.4748760000000  0.4641320000000  0.5142620000000 1.0
C      1  0.4313870000000  0.5181080000000  0.4837010000000 1.0
C      1  0.4314810000000  0.4820710000000  0.5162530000000 1.0
C      1  0.5685430000000  0.5179630000000  0.4836840000000 1.0
C      1  0.5686210000000  0.4818600000000  0.5163540000000 1.0
C      1  0.4313800000000  0.5181360000000  0.5163530000000 1.0
C      1  0.4314560000000  0.4820380000000  0.4836830000000 1.0
C      1  0.5685210000000  0.5179290000000  0.5162490000000 1.0
C      1  0.5686130000000  0.4818930000000  0.4837020000000 1.0
C      1  0.4380910000000  0.4563340000000  0.4670740000000 1.0
C      1  0.4380280000000  0.5438630000000  0.5330110000000 1.0
C      1  0.5619970000000  0.4562050000000  0.4669950000000 1.0
C      1  0.5619210000000  0.5436030000000  0.5329190000000 1.0
C      1  0.4380800000000  0.4563990000000  0.5329170000000 1.0
C      1  0.4379940000000  0.5437890000000  0.4669940000000 1.0
C      1  0.5619620000000  0.4561350000000  0.5330090000000 1.0
C      1  0.5619140000000  0.5436670000000  0.4670720000000 1.0
C      1  0.5156290000000  0.4491960000000  0.5575080000000 1.0
C      1  0.5156190000000  0.5508830000000  0.4424630000000 1.0
C      1  0.4843940000000  0.4490760000000  0.5575990000000 1.0
C      1  0.4843820000000  0.5508500000000  0.4424370000000 1.0
C      1  0.5156180000000  0.4491500000000  0.4424370000000 1.0
C      1  0.5156030000000  0.5509250000000  0.5575990000000 1.0
C      1  0.4843810000000  0.4491180000000  0.4424630000000 1.0
C      1  0.4843700000000  0.5508010000000  0.5575090000000 1.0
C      1  0.4853730000000  0.4846930000000  0.5306870000000 1.0
C      1  0.4843950000000  0.5151230000000  0.4693510000000 1.0
C      1  0.5160700000000  0.4850360000000  0.5306030000000 1.0
C      1  0.5150840000000  0.5151910000000  0.4693590000000 1.0
C      1  0.4849170000000  0.4848120000000  0.4693570000000 1.0
C      1  0.4839310000000  0.5149610000000  0.5306020000000 1.0
C      1  0.5156030000000  0.4848780000000  0.4693510000000 1.0
C      1  0.5146280000000  0.5153090000000  0.5306860000000 1.0
C      1  0.5000990000000  0.5695750000000  0.4849760000000 1.0
C      1  0.4999290000000  0.4304320000000  0.5150270000000 1.0
C      1  0.5000760000000  0.5696120000000  0.5150290000000 1.0
C      1  0.4999020000000  0.4304520000000  0.4849770000000 1.0
END
