TITL C-3985251-913-805 0.00041406790918659 125000 -328.177243906554 0 0 60 (C3) n - 1
REM
REM in /home/nfs/bkarasulu/CARBON/AIRSS/Generating-Clusters/TERSOFF/Higher-Symm/Only-C60
REM
REM
REM
REM
REM
REM ./C.cell (28575a23ae977d3b5fae324c64b13b57)
REM
REM compiler GCC version 9.2.1 20190827 (Red Hat 9.2.1-1)
REM options -cpp -mtune=generic -march=x86-64 -g -O0 -fpre-include=/usr/include/finclude/math-vector-fortran.h
REM seed -1065622004 -1486514387 -1076355549 654475798 -1183113208 154315513 580838826 409789694 1021268660 1208799902 1734622769 1896772145 -831992349 916867636 828990720 1814384227 1320416483 -1724405347 -1270889536 -684639526 20668000 -1087793873 -1888924620 -2047391887 -899370977 -355356619 1108229964 -806718792 -249883448 -421187409 561288114 796589082 -1330547941
REM
CELL 1.54180   50.00000   50.00000   50.00000   90.00000   90.00000   90.00000
LATT -1
SFAC C  
C      1  0.4854580000000  0.5661000000000  0.5151650000000 1.0
C      1  0.5203940000000  0.5660850000000  0.5050140000000 1.0
C      1  0.4941320000000  0.5661130000000  0.4798310000000 1.0
C      1  0.5534720000000  0.5499530000000  0.5404200000000 1.0
C      1  0.5082860000000  0.5499540000000  0.4334630000000 1.0
C      1  0.4382460000000  0.5499720000000  0.5261020000000 1.0
C      1  0.4973390000000  0.4817510000000  0.4667850000000 1.0
C      1  0.4725730000000  0.4817650000000  0.5189150000000 1.0
C      1  0.5301110000000  0.4817630000000  0.5142920000000 1.0
C      1  0.4434960000000  0.4805000000000  0.5122520000000 1.0
C      1  0.5388730000000  0.4805060000000  0.5428060000000 1.0
C      1  0.5176370000000  0.4805020000000  0.4449280000000 1.0
C      1  0.5227160000000  0.5349160000000  0.4542460000000 1.0
C      1  0.4490020000000  0.5349210000000  0.5032160000000 1.0
C      1  0.5282790000000  0.5349200000000  0.5425470000000 1.0
C      1  0.5668590000000  0.4712170000000  0.5381580000000 1.0
C      1  0.4996000000000  0.4712110000000  0.4230360000000 1.0
C      1  0.4335350000000  0.4712100000000  0.5388140000000 1.0
C      1  0.4834130000000  0.4471740000000  0.4320900000000 1.0
C      1  0.4494840000000  0.4471600000000  0.5483220000000 1.0
C      1  0.5671110000000  0.4471640000000  0.5195950000000 1.0
C      1  0.5505870000000  0.4933100000000  0.4675190000000 1.0
C      1  0.4465910000000  0.4933220000000  0.4724290000000 1.0
C      1  0.5028360000000  0.4933210000000  0.5600450000000 1.0
C      1  0.5343370000000  0.5087940000000  0.4456820000000 1.0
C      1  0.4357730000000  0.5087990000000  0.4974320000000 1.0
C      1  0.5298690000000  0.5088030000000  0.5568940000000 1.0
C      1  0.4783120000000  0.5244500000000  0.4481360000000 1.0
C      1  0.4659240000000  0.5244480000000  0.5447140000000 1.0
C      1  0.5557670000000  0.5244460000000  0.5071330000000 1.0
C      1  0.4774640000000  0.4403130000000  0.5384380000000 1.0
C      1  0.5445610000000  0.4403210000000  0.5003040000000 1.0
C      1  0.4779870000000  0.4403120000000  0.4612590000000 1.0
C      1  0.4505750000000  0.4401720000000  0.4711380000000 1.0
C      1  0.4997140000000  0.4401750000000  0.5572400000000 1.0
C      1  0.5497150000000  0.4401810000000  0.4716300000000 1.0
C      1  0.5153320000000  0.4641040000000  0.5629290000000 1.0
C      1  0.5468270000000  0.4641040000000  0.4552560000000 1.0
C      1  0.4378410000000  0.4641060000000  0.4818230000000 1.0
C      1  0.5194560000000  0.4562050000000  0.5049040000000 1.0
C      1  0.4945270000000  0.4561960000000  0.4807010000000 1.0
C      1  0.4860350000000  0.4562030000000  0.5143970000000 1.0
C      1  0.4732760000000  0.5509140000000  0.4619540000000 1.0
C      1  0.4804020000000  0.5509160000000  0.5421730000000 1.0
C      1  0.5463020000000  0.5508960000000  0.4958730000000 1.0
C      1  0.5447300000000  0.5503470000000  0.4668510000000 1.0
C      1  0.4489080000000  0.5503430000000  0.4778220000000 1.0
C      1  0.5063400000000  0.5503450000000  0.5553170000000 1.0
C      1  0.4798140000000  0.5257940000000  0.5051250000000 1.0
C      1  0.5145410000000  0.5257780000000  0.5149290000000 1.0
C      1  0.5056610000000  0.5258110000000  0.4799550000000 1.0
C      1  0.4265060000000  0.4935730000000  0.5570880000000 1.0
C      1  0.5861780000000  0.4935960000000  0.5350970000000 1.0
C      1  0.4872910000000  0.4935620000000  0.4077970000000 1.0
C      1  0.4391080000000  0.5203040000000  0.5558600000000 1.0
C      1  0.5787970000000  0.5203050000000  0.5248170000000 1.0
C      1  0.4820790000000  0.5203250000000  0.4193450000000 1.0
C      1  0.4811780000000  0.5000890000000  0.5406310000000 1.0
C      1  0.5446150000000  0.5000770000000  0.4959740000000 1.0
C      1  0.4742330000000  0.5000850000000  0.4633930000000 1.0
END
