TITL C-3985247-764-790 -1.06128997553025e-07 125000 -324.904291705377 0 0 60 (C5) n - 1
REM
REM in /home/nfs/bkarasulu/CARBON/AIRSS/Generating-Clusters/TERSOFF/Higher-Symm/Only-C60
REM
REM
REM
REM
REM
REM ./C.cell (28575a23ae977d3b5fae324c64b13b57)
REM
REM compiler GCC version 9.2.1 20190827 (Red Hat 9.2.1-1)
REM options -cpp -mtune=generic -march=x86-64 -g -O0 -fpre-include=/usr/include/finclude/math-vector-fortran.h
REM seed -170848704 -691744393 384493885 -1411225319 1006762667 -1257623561 1977470496 -485272613 -1977702294 2137984226 609438753 1027463064 -90734564 -218268976 -271525048 -1264235772 -464848699 -1871244446 518937791 2109099182 604907137 673496320 -586610965 -1108191562 -8219241 182836733 -2011959640 -1737628109 -1059714704 -69770394 790916519 106487940 -1381442261
REM
CELL 1.54180   50.00000   50.00000   50.00000   90.00000   90.00000   90.00000
LATT -1
SFAC C  
C      1  0.5206910000000  0.5087140000000  0.5245180000000 1.0
C      1  0.5206910000000  0.4793750000000  0.5158640000000 1.0
C      1  0.5206910000000  0.4785390000000  0.4852870000000 1.0
C      1  0.5206910000000  0.5073610000000  0.4750430000000 1.0
C      1  0.5206910000000  0.5260110000000  0.4992880000000 1.0
C      1  0.4413020000000  0.4996530000000  0.5308470000000 1.0
C      1  0.4413020000000  0.4705560000000  0.5092030000000 1.0
C      1  0.4413020000000  0.4821490000000  0.4748410000000 1.0
C      1  0.4413020000000  0.5184120000000  0.4752480000000 1.0
C      1  0.4413020000000  0.5292300000000  0.5098620000000 1.0
C      1  0.4577480000000  0.4952710000000  0.5605840000000 1.0
C      1  0.4577480000000  0.4409200000000  0.5142240000000 1.0
C      1  0.4577480000000  0.4682150000000  0.4482070000000 1.0
C      1  0.4577480000000  0.5394360000000  0.4537660000000 1.0
C      1  0.4577480000000  0.5561580000000  0.5232190000000 1.0
C      1  0.5182650000000  0.4525400000000  0.4404300000000 1.0
C      1  0.5182650000000  0.5419880000000  0.4364550000000 1.0
C      1  0.5182650000000  0.5734100000000  0.5202960000000 1.0
C      1  0.5182650000000  0.5033820000000  0.5760890000000 1.0
C      1  0.5182650000000  0.4286800000000  0.5267290000000 1.0
C      1  0.4772280000000  0.4326150000000  0.4913410000000 1.0
C      1  0.4772280000000  0.4874120000000  0.4332370000000 1.0
C      1  0.4772270000000  0.5596050000000  0.4673970000000 1.0
C      1  0.4772270000000  0.5494260000000  0.5466130000000 1.0
C      1  0.4772280000000  0.4709420000000  0.5614120000000 1.0
C      1  0.4736390000000  0.5692290000000  0.4979700000000 1.0
C      1  0.4736400000000  0.5233240000000  0.5652130000000 1.0
C      1  0.4736400000000  0.4451860000000  0.5423340000000 1.0
C      1  0.4736400000000  0.4427990000000  0.4609510000000 1.0
C      1  0.4736400000000  0.5194620000000  0.4335320000000 1.0
C      1  0.5073730000000  0.5529520000000  0.5427940000000 1.0
C      1  0.5073730000000  0.4756640000000  0.5635840000000 1.0
C      1  0.5073730000000  0.4320080000000  0.4965040000000 1.0
C      1  0.5073730000000  0.4823150000000  0.4342550000000 1.0
C      1  0.5073730000000  0.5570620000000  0.4628640000000 1.0
C      1  0.5478180000000  0.4686810000000  0.5300680000000 1.0
C      1  0.5478180000000  0.4617250000000  0.4795060000000 1.0
C      1  0.5478180000000  0.5076640000000  0.4572660000000 1.0
C      1  0.5478180000000  0.5430110000000  0.4940830000000 1.0
C      1  0.5478180000000  0.5189190000000  0.5390770000000 1.0
C      1  0.5605160000000  0.5382620000000  0.5206490000000 1.0
C      1  0.5605160000000  0.4921860000000  0.5427700000000 1.0
C      1  0.5605170000000  0.4569090000000  0.5057850000000 1.0
C      1  0.5605170000000  0.4811830000000  0.4608050000000 1.0
C      1  0.5605160000000  0.5314620000000  0.4699920000000 1.0
C      1  0.5274920000000  0.5304120000000  0.5597240000000 1.0
C      1  0.5274920000000  0.4525970000000  0.5473790000000 1.0
C      1  0.5274920000000  0.4402920000000  0.4695580000000 1.0
C      1  0.5274920000000  0.5105010000000  0.4338070000000 1.0
C      1  0.5274920000000  0.5661980000000  0.4895320000000 1.0
C      1  0.4736010000000  0.5060590000000  0.5233260000000 1.0
C      1  0.4736010000000  0.4796880000000  0.5129710000000 1.0
C      1  0.4736010000000  0.4813870000000  0.4846900000000 1.0
C      1  0.4736010000000  0.5088090000000  0.4775670000000 1.0
C      1  0.4736010000000  0.5240570000000  0.5014460000000 1.0
C      1  0.4943260000000  0.5113060000000  0.5425360000000 1.0
C      1  0.4943270000000  0.4630390000000  0.5238970000000 1.0
C      1  0.4943270000000  0.4658510000000  0.4722330000000 1.0
C      1  0.4943260000000  0.5158550000000  0.4589420000000 1.0
C      1  0.4943260000000  0.5439480000000  0.5023920000000 1.0
END
