TITL C-3985250-725-785 -9.47465174321179e-06 125000 -314.248877811281 0 0 60 (C4h) n - 1
REM
REM in /home/nfs/bkarasulu/CARBON/AIRSS/Generating-Clusters/TERSOFF/Higher-Symm/Only-C60
REM
REM
REM
REM
REM
REM ./C.cell (28575a23ae977d3b5fae324c64b13b57)
REM
REM compiler GCC version 9.2.1 20190827 (Red Hat 9.2.1-1)
REM options -cpp -mtune=generic -march=x86-64 -g -O0 -fpre-include=/usr/include/finclude/math-vector-fortran.h
REM seed 1301715001 -1076450705 851233315 -358714170 902512532 -1790957308 1541245298 1736363031 -1910564581 -595867699 1521355141 -773228847 -1963592014 352242079 213702298 1916285944 -1897365524 -307753539 956646920 1048795196 940654318 -1718788440 498025603 1795437489 1578460439 -980558977 575694347 1217338911 80737651 1716142250 877088500 917642693 571417224
REM
CELL 1.54180   50.00000   50.00000   50.00000   90.00000   90.00000   90.00000
LATT -1
SFAC C  
C      1  0.4785600000000  0.5159070000000  0.5148100000000 1.0
C      1  0.4785600000000  0.5148100000000  0.4840930000000 1.0
C      1  0.4785600000000  0.4840930000000  0.4851900000000 1.0
C      1  0.4785600000000  0.4851900000000  0.5159070000000 1.0
C      1  0.5242780000000  0.5159070000000  0.5148100000000 1.0
C      1  0.5242780000000  0.5148100000000  0.4840930000000 1.0
C      1  0.5242780000000  0.4840930000000  0.4851900000000 1.0
C      1  0.5242780000000  0.4851900000000  0.5159070000000 1.0
C      1  0.5343320000000  0.5510770000000  0.4480900000000 1.0
C      1  0.5343320000000  0.4480900000000  0.4489230000000 1.0
C      1  0.5343320000000  0.4489230000000  0.5519100000000 1.0
C      1  0.5343320000000  0.5519100000000  0.5510770000000 1.0
C      1  0.4685060000000  0.5510770000000  0.4480900000000 1.0
C      1  0.4685060000000  0.4480900000000  0.4489230000000 1.0
C      1  0.4685060000000  0.4489230000000  0.5519100000000 1.0
C      1  0.4685060000000  0.5519100000000  0.5510770000000 1.0
C      1  0.5508590000000  0.5236980000000  0.5247390000000 1.0
C      1  0.5508590000000  0.5247390000000  0.4763020000000 1.0
C      1  0.5508590000000  0.4763020000000  0.4752610000000 1.0
C      1  0.5508590000000  0.4752610000000  0.5236980000000 1.0
C      1  0.4519790000000  0.5236990000000  0.5247390000000 1.0
C      1  0.4519790000000  0.5247390000000  0.4763010000000 1.0
C      1  0.4519790000000  0.4763010000000  0.4752610000000 1.0
C      1  0.4519790000000  0.4752610000000  0.5236980000000 1.0
C      1  0.4501370000000  0.4797270000000  0.5550670000000 1.0
C      1  0.4501370000000  0.5550670000000  0.5202730000000 1.0
C      1  0.4501370000000  0.5202730000000  0.4449330000000 1.0
C      1  0.4501370000000  0.4449330000000  0.4797270000000 1.0
C      1  0.5527010000000  0.4797270000000  0.5550670000000 1.0
C      1  0.5527010000000  0.5550670000000  0.5202730000000 1.0
C      1  0.5527010000000  0.5202730000000  0.4449330000000 1.0
C      1  0.5527010000000  0.4449330000000  0.4797270000000 1.0
C      1  0.4788680000000  0.5562670000000  0.5033770000000 1.0
C      1  0.4788680000000  0.5033770000000  0.4437330000000 1.0
C      1  0.4788680000000  0.4437330000000  0.4966230000000 1.0
C      1  0.4788680000000  0.4966230000000  0.5562670000000 1.0
C      1  0.5239700000000  0.5562670000000  0.5033770000000 1.0
C      1  0.5239700000000  0.5033770000000  0.4437330000000 1.0
C      1  0.5239700000000  0.4437330000000  0.4966230000000 1.0
C      1  0.5239700000000  0.4966230000000  0.5562670000000 1.0
C      1  0.5168820000000  0.4722980000000  0.4410970000000 1.0
C      1  0.5168820000000  0.4410970000000  0.5277020000000 1.0
C      1  0.5168820000000  0.5277020000000  0.5589030000000 1.0
C      1  0.5168820000000  0.5589030000000  0.4722980000000 1.0
C      1  0.4859560000000  0.4722980000000  0.4410970000000 1.0
C      1  0.4859560000000  0.4410970000000  0.5277020000000 1.0
C      1  0.4859560000000  0.5277020000000  0.5589030000000 1.0
C      1  0.4859560000000  0.5589030000000  0.4722980000000 1.0
C      1  0.4388620000000  0.4540960000000  0.5084020000000 1.0
C      1  0.4388620000000  0.5084020000000  0.5459040000000 1.0
C      1  0.4388620000000  0.5459040000000  0.4915980000000 1.0
C      1  0.4388620000000  0.4915980000000  0.4540960000000 1.0
C      1  0.5639760000000  0.4540960000000  0.5084020000000 1.0
C      1  0.5639760000000  0.5084020000000  0.5459040000000 1.0
C      1  0.5639760000000  0.5459040000000  0.4915980000000 1.0
C      1  0.5639760000000  0.4915980000000  0.4540960000000 1.0
C      1  0.5014190000000  0.4799630000000  0.5381610000000 1.0
C      1  0.5014190000000  0.5200370000000  0.4618390000000 1.0
C      1  0.5014190000000  0.5381610000000  0.5200370000000 1.0
C      1  0.5014190000000  0.4618390000000  0.4799630000000 1.0
END
