TITL C-3985251-913-258 -3.08873120856357e-07 125000 -338.51924963899 0 0 60 (C2) n - 1
REM
REM in /home/nfs/bkarasulu/CARBON/AIRSS/Generating-Clusters/TERSOFF/Higher-Symm/Only-C60
REM
REM
REM
REM
REM
REM ./C.cell (28575a23ae977d3b5fae324c64b13b57)
REM
REM compiler GCC version 9.2.1 20190827 (Red Hat 9.2.1-1)
REM options -cpp -mtune=generic -march=x86-64 -g -O0 -fpre-include=/usr/include/finclude/math-vector-fortran.h
REM seed 66423086 -788883839 912911791 211383953 -1546648656 1999235530 608647412 2011841812 -1317413368 -253967878 1034662479 638821631 643793128 -747485815 903298967 1226261516 1688779060 153755485 347930733 1781784727 303928829 840188486 830991783 -1130518844 1918456210 -1686494598 1702801017 -1358069538 -667445311 912202400 909922689 -1489480485 1987414628
REM
CELL 1.54180   50.00000   50.00000   50.00000   90.00000   90.00000   90.00000
LATT -1
SFAC C  
C      1  0.4598940000000  0.5653990000000  0.5274230000000 1.0
C      1  0.4598940000000  0.4346010000000  0.4725770000000 1.0
C      1  0.5678040000000  0.5025870000000  0.5369450000000 1.0
C      1  0.5678040000000  0.4974130000000  0.4630550000000 1.0
C      1  0.4931850000000  0.4939890000000  0.5269220000000 1.0
C      1  0.4931850000000  0.5060110000000  0.4730780000000 1.0
C      1  0.4890610000000  0.5675760000000  0.5178820000000 1.0
C      1  0.4890610000000  0.4324240000000  0.4821180000000 1.0
C      1  0.5606050000000  0.5101910000000  0.5097510000000 1.0
C      1  0.5606050000000  0.4898090000000  0.4902490000000 1.0
C      1  0.5251640000000  0.4921680000000  0.4392820000000 1.0
C      1  0.5251640000000  0.5078330000000  0.5607180000000 1.0
C      1  0.5154810000000  0.5190360000000  0.4551130000000 1.0
C      1  0.5154810000000  0.4809640000000  0.5448870000000 1.0
C      1  0.4975130000000  0.5660450000000  0.4882870000000 1.0
C      1  0.4975130000000  0.4339550000000  0.5117130000000 1.0
C      1  0.4986720000000  0.4560150000000  0.4621850000000 1.0
C      1  0.4986720000000  0.5439850000000  0.5378150000000 1.0
C      1  0.4742090000000  0.5129060000000  0.4267950000000 1.0
C      1  0.4742090000000  0.4870940000000  0.5732050000000 1.0
C      1  0.5511560000000  0.5200890000000  0.5533780000000 1.0
C      1  0.5511560000000  0.4799110000000  0.4466220000000 1.0
C      1  0.5044330000000  0.5284540000000  0.5646310000000 1.0
C      1  0.5044330000000  0.4715460000000  0.4353690000000 1.0
C      1  0.5372520000000  0.4716720000000  0.4949290000000 1.0
C      1  0.5372520000000  0.5283280000000  0.5050710000000 1.0
C      1  0.4783210000000  0.5204400000000  0.5781680000000 1.0
C      1  0.4783210000000  0.4795600000000  0.4218320000000 1.0
C      1  0.4650060000000  0.5344910000000  0.5467920000000 1.0
C      1  0.4650060000000  0.4655090000000  0.4532080000000 1.0
C      1  0.4790140000000  0.5529440000000  0.4666140000000 1.0
C      1  0.4790140000000  0.4470560000000  0.5333870000000 1.0
C      1  0.5361000000000  0.4653100000000  0.5291480000000 1.0
C      1  0.5361000000000  0.5346900000000  0.4708520000000 1.0
C      1  0.5270700000000  0.5635790000000  0.4848760000000 1.0
C      1  0.5270700000000  0.4364210000000  0.5151240000000 1.0
C      1  0.4849780000000  0.4772700000000  0.5024980000000 1.0
C      1  0.4849780000000  0.5227300000000  0.4975020000000 1.0
C      1  0.5080450000000  0.5228860000000  0.5173930000000 1.0
C      1  0.5080450000000  0.4771140000000  0.4826070000000 1.0
C      1  0.5628270000000  0.4736500000000  0.5394670000000 1.0
C      1  0.5628270000000  0.5263500000000  0.4605330000000 1.0
C      1  0.4677550000000  0.5014750000000  0.4558770000000 1.0
C      1  0.4677550000000  0.4985250000000  0.5441230000000 1.0
C      1  0.4551400000000  0.4739570000000  0.4860350000000 1.0
C      1  0.4551400000000  0.5260430000000  0.5139650000000 1.0
C      1  0.5442610000000  0.4416500000000  0.4849550000000 1.0
C      1  0.5442610000000  0.5583500000000  0.5150450000000 1.0
C      1  0.5503530000000  0.5489080000000  0.5446030000000 1.0
C      1  0.5503530000000  0.4510920000000  0.4553970000000 1.0
C      1  0.4357060000000  0.5039770000000  0.5135540000000 1.0
C      1  0.4357060000000  0.4960220000000  0.4864460000000 1.0
C      1  0.4517630000000  0.5444600000000  0.4753440000000 1.0
C      1  0.4517630000000  0.4555400000000  0.5246560000000 1.0
C      1  0.4426370000000  0.4466430000000  0.4967300000000 1.0
C      1  0.4426370000000  0.5533570000000  0.5032700000000 1.0
C      1  0.4446310000000  0.4835600000000  0.5328120000000 1.0
C      1  0.4446310000000  0.5164400000000  0.4671880000000 1.0
C      1  0.4919630000000  0.5356050000000  0.4433320000000 1.0
C      1  0.4919630000000  0.4643940000000  0.5566680000000 1.0
END
