TITL C-3985245-9316-465 0.000397935108827122 125000 -358.400783270255 0 0 60 (C1) n - 1
REM
REM in /home/nfs/bkarasulu/CARBON/AIRSS/Generating-Clusters/TERSOFF/Higher-Symm/Only-C60
REM
REM
REM
REM
REM
REM ./C.cell (28575a23ae977d3b5fae324c64b13b57)
REM
REM compiler GCC version 9.2.1 20190827 (Red Hat 9.2.1-1)
REM options -cpp -mtune=generic -march=x86-64 -g -O0 -fpre-include=/usr/include/finclude/math-vector-fortran.h
REM seed 1262727702 1826939215 2043602823 -141639330 148817386 773006676 -960000255 -1974827860 1975842284 163094225 -499930264 -1545680966 1887915811 95879854 -1982558483 -2056024023 -1493340732 125540700 -970089724 1275174667 -583027192 -687266990 2070384538 1611730282 -225069974 1948625747 -704642598 166948242 730554507 1023728541 -1780575513 1692618643 -1985148694
REM
CELL 1.54180   50.00000   50.00000   50.00000   90.00000   90.00000   90.00000
LATT -1
SFAC C  
C      1  0.4652250000000  0.4869620000000  0.4405670000000 1.0
C      1  0.4686460000000  0.5294370000000  0.4650070000000 1.0
C      1  0.4690450000000  0.5422500000000  0.5049620000000 1.0
C      1  0.4684400000000  0.5329690000000  0.5541860000000 1.0
C      1  0.4692190000000  0.4844470000000  0.5620610000000 1.0
C      1  0.4664440000000  0.4498250000000  0.5242190000000 1.0
C      1  0.4661910000000  0.4476580000000  0.4728150000000 1.0
C      1  0.5520890000000  0.5395900000000  0.5561940000000 1.0
C      1  0.5519780000000  0.4797220000000  0.5664100000000 1.0
C      1  0.5499960000000  0.4342680000000  0.5267900000000 1.0
C      1  0.5492580000000  0.4374840000000  0.4668720000000 1.0
C      1  0.5494950000000  0.4864140000000  0.4311400000000 1.0
C      1  0.5493000000000  0.5448620000000  0.4472090000000 1.0
C      1  0.5503760000000  0.5682550000000  0.5033000000000 1.0
C      1  0.4964770000000  0.5541170000000  0.5048230000000 1.0
C      1  0.4984890000000  0.5340780000000  0.5513200000000 1.0
C      1  0.4986230000000  0.4833700000000  0.5588970000000 1.0
C      1  0.4960100000000  0.4465330000000  0.5240740000000 1.0
C      1  0.4956720000000  0.4475220000000  0.4730040000000 1.0
C      1  0.4956610000000  0.4879950000000  0.4406690000000 1.0
C      1  0.4961460000000  0.5363610000000  0.4569650000000 1.0
C      1  0.5401580000000  0.5155370000000  0.4395360000000 1.0
C      1  0.5411200000000  0.5558620000000  0.4758040000000 1.0
C      1  0.5415590000000  0.5535420000000  0.5298030000000 1.0
C      1  0.5432530000000  0.5096570000000  0.5611750000000 1.0
C      1  0.5416460000000  0.4576520000000  0.5462700000000 1.0
C      1  0.5399960000000  0.4369070000000  0.4971370000000 1.0
C      1  0.5401990000000  0.4622230000000  0.4493960000000 1.0
C      1  0.5539590000000  0.5046430000000  0.5322910000000 1.0
C      1  0.5532540000000  0.4768300000000  0.5244560000000 1.0
C      1  0.5524020000000  0.4656030000000  0.4979270000000 1.0
C      1  0.5525570000000  0.4792930000000  0.4725140000000 1.0
C      1  0.5524900000000  0.5077870000000  0.4673440000000 1.0
C      1  0.5542640000000  0.5295480000000  0.4865010000000 1.0
C      1  0.5531690000000  0.5281120000000  0.5154840000000 1.0
C      1  0.4544920000000  0.4615670000000  0.4499790000000 1.0
C      1  0.4508180000000  0.5120050000000  0.4482100000000 1.0
C      1  0.4492800000000  0.5493120000000  0.4816410000000 1.0
C      1  0.4531330000000  0.5372180000000  0.5296690000000 1.0
C      1  0.4597260000000  0.5105090000000  0.5701450000000 1.0
C      1  0.4532070000000  0.4708090000000  0.5420100000000 1.0
C      1  0.4516100000000  0.4491510000000  0.4985890000000 1.0
C      1  0.5112460000000  0.5513430000000  0.5302740000000 1.0
C      1  0.5130440000000  0.5094500000000  0.5599660000000 1.0
C      1  0.5112790000000  0.4601550000000  0.5455090000000 1.0
C      1  0.5096620000000  0.4402560000000  0.4979890000000 1.0
C      1  0.5098350000000  0.4639600000000  0.4519290000000 1.0
C      1  0.5098340000000  0.5147100000000  0.4418560000000 1.0
C      1  0.5108200000000  0.5522420000000  0.4778930000000 1.0
C      1  0.4047930000000  0.4894760000000  0.4615440000000 1.0
C      1  0.4217730000000  0.5132280000000  0.4607280000000 1.0
C      1  0.4241760000000  0.5310110000000  0.4872790000000 1.0
C      1  0.4294340000000  0.5183360000000  0.5205090000000 1.0
C      1  0.4299610000000  0.4865990000000  0.5271730000000 1.0
C      1  0.4310340000000  0.4708420000000  0.4998690000000 1.0
C      1  0.4075900000000  0.4694870000000  0.4821530000000 1.0
C      1  0.5224420000000  0.5045120000000  0.4973390000000 1.0
C      1  0.4717770000000  0.5111750000000  0.4931860000000 1.0
C      1  0.4953370000000  0.4955970000000  0.5002740000000 1.0
C      1  0.4464010000000  0.4955130000000  0.4896940000000 1.0
END
