TITL C-3985252-168-398 2.7861727456696e-05 125000 -314.084026885992 0 0 60 (C1) n - 1
REM
REM in /home/nfs/bkarasulu/CARBON/AIRSS/Generating-Clusters/TERSOFF/Higher-Symm/Only-C60
REM
REM
REM
REM
REM
REM ./C.cell (28575a23ae977d3b5fae324c64b13b57)
REM
REM compiler GCC version 9.2.1 20190827 (Red Hat 9.2.1-1)
REM options -cpp -mtune=generic -march=x86-64 -g -O0 -fpre-include=/usr/include/finclude/math-vector-fortran.h
REM seed -58208152 -715575636 1291496383 -2021693037 673464684 290538390 -1164206765 251138800 -217960262 -1458748797 125370047 874056306 -1117901014 2051860039 1926325853 -1819069742 1651512320 2147132558 1154460905 485346795 -165746478 640679867 803247534 -1065645262 872848588 -354362456 1406391475 1953372756 -449668165 -888148761 -680307730 -1015901747 1519437485
REM
CELL 1.54180   50.00000   50.00000   50.00000   90.00000   90.00000   90.00000
LATT -1
SFAC C  
C      1  0.4631430000000  0.5707860000000  0.4971000000000 1.0
C      1  0.4651260000000  0.4655760000000  0.5643300000000 1.0
C      1  0.4642540000000  0.4665880000000  0.4394830000000 1.0
C      1  0.4460510000000  0.5134040000000  0.5221790000000 1.0
C      1  0.4447460000000  0.4785980000000  0.5162970000000 1.0
C      1  0.4509940000000  0.5062160000000  0.4702800000000 1.0
C      1  0.5467420000000  0.4906590000000  0.4379520000000 1.0
C      1  0.5450480000000  0.5581770000000  0.5231030000000 1.0
C      1  0.5462790000000  0.4505280000000  0.5388780000000 1.0
C      1  0.4521340000000  0.4375090000000  0.5208470000000 1.0
C      1  0.4538790000000  0.5180710000000  0.4301090000000 1.0
C      1  0.4504960000000  0.5486540000000  0.5445790000000 1.0
C      1  0.5205460000000  0.5047030000000  0.4262130000000 1.0
C      1  0.5188600000000  0.5611760000000  0.5411440000000 1.0
C      1  0.5200170000000  0.4326480000000  0.5329790000000 1.0
C      1  0.4892540000000  0.5751560000000  0.4848570000000 1.0
C      1  0.4913770000000  0.4744490000000  0.5730800000000 1.0
C      1  0.4887780000000  0.4509040000000  0.4415840000000 1.0
C      1  0.5089120000000  0.4865660000000  0.5513590000000 1.0
C      1  0.5093420000000  0.4602490000000  0.4622500000000 1.0
C      1  0.5076640000000  0.5508560000000  0.4854130000000 1.0
C      1  0.5645400000000  0.5109670000000  0.4550330000000 1.0
C      1  0.5635270000000  0.5340000000000  0.5320200000000 1.0
C      1  0.5645820000000  0.4547560000000  0.5130210000000 1.0
C      1  0.4571240000000  0.4540350000000  0.4925310000000 1.0
C      1  0.4575280000000  0.5333740000000  0.4582080000000 1.0
C      1  0.4581950000000  0.5179070000000  0.5509720000000 1.0
C      1  0.4885780000000  0.5370890000000  0.4578460000000 1.0
C      1  0.4888340000000  0.5168720000000  0.5539970000000 1.0
C      1  0.4881550000000  0.4467030000000  0.4886470000000 1.0
C      1  0.5491080000000  0.5078490000000  0.4825980000000 1.0
C      1  0.5494360000000  0.5104580000000  0.5156930000000 1.0
C      1  0.5493740000000  0.4801430000000  0.5011120000000 1.0
C      1  0.4949520000000  0.4264710000000  0.5491440000000 1.0
C      1  0.4962690000000  0.4947800000000  0.4110530000000 1.0
C      1  0.4936590000000  0.5780550000000  0.5382710000000 1.0
C      1  0.4970470000000  0.4882320000000  0.4648880000000 1.0
C      1  0.4947120000000  0.5356210000000  0.5089650000000 1.0
C      1  0.4974240000000  0.4740290000000  0.5258650000000 1.0
C      1  0.5555950000000  0.5090230000000  0.5571090000000 1.0
C      1  0.5568910000000  0.4455190000000  0.4787510000000 1.0
C      1  0.5553410000000  0.5449110000000  0.4640830000000 1.0
C      1  0.5392540000000  0.5605730000000  0.4924080000000 1.0
C      1  0.5404480000000  0.4762130000000  0.5562280000000 1.0
C      1  0.5412490000000  0.4624080000000  0.4508360000000 1.0
C      1  0.5083830000000  0.5121730000000  0.4521880000000 1.0
C      1  0.5075150000000  0.5344480000000  0.5353260000000 1.0
C      1  0.5092010000000  0.4510290000000  0.5124420000000 1.0
C      1  0.4684800000000  0.4411740000000  0.5460030000000 1.0
C      1  0.4687540000000  0.4926170000000  0.4235540000000 1.0
C      1  0.4671550000000  0.5674960000000  0.5276340000000 1.0
C      1  0.4471390000000  0.4890760000000  0.5594370000000 1.0
C      1  0.4466630000000  0.4637660000000  0.4639890000000 1.0
C      1  0.4458270000000  0.5539360000000  0.4789970000000 1.0
C      1  0.5271780000000  0.5114710000000  0.5378920000000 1.0
C      1  0.5280410000000  0.4595640000000  0.4904870000000 1.0
C      1  0.5269700000000  0.5266650000000  0.4711110000000 1.0
C      1  0.4758010000000  0.4856470000000  0.5126780000000 1.0
C      1  0.4744010000000  0.4915220000000  0.4809350000000 1.0
C      1  0.4730250000000  0.5179560000000  0.5040280000000 1.0
END
