TITL C-3985254-1270-1898 0.00271215933080414 125000 -322.082946596898 0 0 60 (C1) n - 1
REM
REM in /home/nfs/bkarasulu/CARBON/AIRSS/Generating-Clusters/TERSOFF/Higher-Symm/Only-C60
REM
REM
REM
REM
REM
REM ./C.cell (28575a23ae977d3b5fae324c64b13b57)
REM
REM compiler GCC version 9.2.1 20190827 (Red Hat 9.2.1-1)
REM options -cpp -mtune=generic -march=x86-64 -g -O0 -fpre-include=/usr/include/finclude/math-vector-fortran.h
REM seed -1937375250 730364080 -586620438 -1311677770 1995733247 198373151 530056806 1294250353 1108098634 -388528171 589729274 -1415318478 134723573 -291481359 -1872722462 385550299 486987289 -1578451721 379638488 1983022198 -1015405039 -1989805779 -2088332589 -833566836 1670111015 -824352940 1682875038 -1887230653 -88177790 -382200458 -985062430 1666606876 -1798317103
REM
CELL 1.54180   50.00000   50.00000   50.00000   90.00000   90.00000   90.00000
LATT -1
SFAC C  
C      1  0.4745250000000  0.4731930000000  0.4231730000000 1.0
C      1  0.5694800000000  0.4869190000000  0.4832300000000 1.0
C      1  0.5312230000000  0.5630130000000  0.4414350000000 1.0
C      1  0.4841460000000  0.5338190000000  0.5924180000000 1.0
C      1  0.4418290000000  0.5303790000000  0.4965820000000 1.0
C      1  0.4743100000000  0.5456400000000  0.4527350000000 1.0
C      1  0.4805950000000  0.5463790000000  0.4967180000000 1.0
C      1  0.5503010000000  0.4834780000000  0.5554220000000 1.0
C      1  0.4534780000000  0.5565380000000  0.5069030000000 1.0
C      1  0.4338130000000  0.4991090000000  0.5495320000000 1.0
C      1  0.5224500000000  0.4787730000000  0.5605110000000 1.0
C      1  0.5635960000000  0.4693910000000  0.5078970000000 1.0
C      1  0.4902730000000  0.4626940000000  0.4626250000000 1.0
C      1  0.4775710000000  0.4863140000000  0.5304680000000 1.0
C      1  0.5081660000000  0.4475050000000  0.5039040000000 1.0
C      1  0.4608710000000  0.4479210000000  0.4762850000000 1.0
C      1  0.4902180000000  0.5328010000000  0.4314520000000 1.0
C      1  0.5088880000000  0.5503270000000  0.5175490000000 1.0
C      1  0.4545470000000  0.4606100000000  0.5038640000000 1.0
C      1  0.5027500000000  0.5165690000000  0.5161210000000 1.0
C      1  0.4887270000000  0.5634840000000  0.4721630000000 1.0
C      1  0.4510570000000  0.5096280000000  0.5249290000000 1.0
C      1  0.4776750000000  0.5059040000000  0.4212550000000 1.0
C      1  0.5267400000000  0.5095720000000  0.5009780000000 1.0
C      1  0.4845380000000  0.5553990000000  0.5375570000000 1.0
C      1  0.4340580000000  0.4881990000000  0.4730710000000 1.0
C      1  0.5142070000000  0.4310130000000  0.5473750000000 1.0
C      1  0.5167780000000  0.5654270000000  0.4873310000000 1.0
C      1  0.5385730000000  0.4282960000000  0.5295800000000 1.0
C      1  0.4985270000000  0.4757670000000  0.5072530000000 1.0
C      1  0.4924120000000  0.4355660000000  0.4817830000000 1.0
C      1  0.5342030000000  0.5375650000000  0.5342240000000 1.0
C      1  0.4526440000000  0.5268570000000  0.4654760000000 1.0
C      1  0.5192990000000  0.5365240000000  0.4328260000000 1.0
C      1  0.5380260000000  0.4509430000000  0.4669800000000 1.0
C      1  0.5681810000000  0.5179670000000  0.4895590000000 1.0
C      1  0.5110990000000  0.5366350000000  0.5818820000000 1.0
C      1  0.4699900000000  0.4543820000000  0.5296580000000 1.0
C      1  0.5356110000000  0.5202290000000  0.4521030000000 1.0
C      1  0.4678130000000  0.5022830000000  0.4525890000000 1.0
C      1  0.5417280000000  0.5626050000000  0.4703290000000 1.0
C      1  0.5028290000000  0.4989370000000  0.5477270000000 1.0
C      1  0.5528810000000  0.5167640000000  0.5165790000000 1.0
C      1  0.4502920000000  0.4894650000000  0.4985440000000 1.0
C      1  0.5241170000000  0.5000540000000  0.4707940000000 1.0
C      1  0.5457920000000  0.4792650000000  0.4671880000000 1.0
C      1  0.4420730000000  0.5072250000000  0.5766770000000 1.0
C      1  0.5603020000000  0.4901550000000  0.5295060000000 1.0
C      1  0.4510160000000  0.4710610000000  0.4504450000000 1.0
C      1  0.4614800000000  0.5292820000000  0.5747460000000 1.0
C      1  0.4932930000000  0.4356200000000  0.5274230000000 1.0
C      1  0.4790040000000  0.5103590000000  0.4936750000000 1.0
C      1  0.5560240000000  0.5349590000000  0.4680670000000 1.0
C      1  0.5411230000000  0.4451660000000  0.5024550000000 1.0
C      1  0.4939320000000  0.4928390000000  0.4690430000000 1.0
C      1  0.5144540000000  0.4519380000000  0.5672340000000 1.0
C      1  0.5136560000000  0.4465720000000  0.4475050000000 1.0
C      1  0.5188150000000  0.5241100000000  0.5567370000000 1.0
C      1  0.4653200000000  0.5345710000000  0.5459100000000 1.0
C      1  0.4986810000000  0.4560400000000  0.4220200000000 1.0
END
