TITL C-3985251-913-390 -2.30658904345289e-07 125000 -334.803999756805 0 0 60 (Cs) n - 1
REM
REM in /home/nfs/bkarasulu/CARBON/AIRSS/Generating-Clusters/TERSOFF/Higher-Symm/Only-C60
REM
REM
REM
REM
REM
REM ./C.cell (28575a23ae977d3b5fae324c64b13b57)
REM
REM compiler GCC version 9.2.1 20190827 (Red Hat 9.2.1-1)
REM options -cpp -mtune=generic -march=x86-64 -g -O0 -fpre-include=/usr/include/finclude/math-vector-fortran.h
REM seed -219158572 2089946852 1909893909 1302004692 759814045 1142325999 -960525064 -379926745 -427287305 -259659565 845360748 -1678996770 1895445772 966749787 -465351103 -580938952 450520799 -952873138 1649457614 -1968934414 -2140235684 1255884571 1821528714 516335261 -1700341153 -1651862108 -144366086 -1305200339 598774340 -1603702894 801755365 656976588 133195801
REM
CELL 1.54180   50.00000   50.00000   50.00000   90.00000   90.00000   90.00000
LATT -1
SFAC C  
C      1  0.4853250000000  0.5141320000000  0.4410980000000 1.0
C      1  0.5146750000000  0.5141320000000  0.4410980000000 1.0
C      1  0.4270060000000  0.4693760000000  0.4675800000000 1.0
C      1  0.5729940000000  0.4693760000000  0.4675800000000 1.0
C      1  0.5289440000000  0.4841850000000  0.5093320000000 1.0
C      1  0.4710560000000  0.4841850000000  0.5093320000000 1.0
C      1  0.5605130000000  0.5222110000000  0.4617080000000 1.0
C      1  0.4394870000000  0.5222110000000  0.4617080000000 1.0
C      1  0.4856780000000  0.5358020000000  0.5679650000000 1.0
C      1  0.5143220000000  0.5358020000000  0.5679650000000 1.0
C      1  0.4404790000000  0.4911750000000  0.4515070000000 1.0
C      1  0.5595210000000  0.4911750000000  0.4515070000000 1.0
C      1  0.4726210000000  0.5312660000000  0.5415320000000 1.0
C      1  0.5273790000000  0.5312660000000  0.5415320000000 1.0
C      1  0.5260700000000  0.4481520000000  0.4754970000000 1.0
C      1  0.4739300000000  0.4481520000000  0.4754970000000 1.0
C      1  0.4733580000000  0.4394040000000  0.5245590000000 1.0
C      1  0.5266420000000  0.4394040000000  0.5245590000000 1.0
C      1  0.4846570000000  0.5296970000000  0.4855470000000 1.0
C      1  0.5153430000000  0.5296970000000  0.4855470000000 1.0
C      1  0.5154380000000  0.5654050000000  0.4636790000000 1.0
C      1  0.4845620000000  0.5654050000000  0.4636790000000 1.0
C      1  0.4637370000000  0.4777760000000  0.5573120000000 1.0
C      1  0.5362630000000  0.4777760000000  0.5573120000000 1.0
C      1  0.5556840000000  0.4446740000000  0.4782410000000 1.0
C      1  0.4443160000000  0.4446740000000  0.4782410000000 1.0
C      1  0.5811320000000  0.4778500000000  0.4946890000000 1.0
C      1  0.4188680000000  0.4778500000000  0.4946890000000 1.0
C      1  0.4380620000000  0.4850270000000  0.5412400000000 1.0
C      1  0.5619380000000  0.4850270000000  0.5412400000000 1.0
C      1  0.5148670000000  0.4645660000000  0.4541340000000 1.0
C      1  0.4851330000000  0.4645660000000  0.4541340000000 1.0
C      1  0.5606030000000  0.4714490000000  0.5148940000000 1.0
C      1  0.4393970000000  0.4714490000000  0.5148940000000 1.0
C      1  0.4856170000000  0.5887800000000  0.5006030000000 1.0
C      1  0.5143830000000  0.5887800000000  0.5006030000000 1.0
C      1  0.5551710000000  0.4414010000000  0.5119080000000 1.0
C      1  0.4448290000000  0.4414010000000  0.5119080000000 1.0
C      1  0.4850760000000  0.5024980000000  0.5309150000000 1.0
C      1  0.5149240000000  0.5024980000000  0.5309150000000 1.0
C      1  0.4440740000000  0.5331440000000  0.5410790000000 1.0
C      1  0.5559260000000  0.5331440000000  0.5410790000000 1.0
C      1  0.4711160000000  0.5614900000000  0.4962680000000 1.0
C      1  0.5288840000000  0.5614900000000  0.4962680000000 1.0
C      1  0.5619490000000  0.5150900000000  0.4940320000000 1.0
C      1  0.4380510000000  0.5150900000000  0.4940320000000 1.0
C      1  0.4677540000000  0.5029890000000  0.4860460000000 1.0
C      1  0.5322460000000  0.5029890000000  0.4860460000000 1.0
C      1  0.5683370000000  0.5125120000000  0.5262390000000 1.0
C      1  0.4316630000000  0.5125120000000  0.5262390000000 1.0
C      1  0.5307130000000  0.5370690000000  0.4546640000000 1.0
C      1  0.4692870000000  0.5370690000000  0.4546640000000 1.0
C      1  0.5143490000000  0.5502620000000  0.5221510000000 1.0
C      1  0.4856510000000  0.5502620000000  0.5221510000000 1.0
C      1  0.4834590000000  0.4556920000000  0.5489070000000 1.0
C      1  0.5165410000000  0.4556920000000  0.5489070000000 1.0
C      1  0.5285070000000  0.4906570000000  0.4547280000000 1.0
C      1  0.4714930000000  0.4906570000000  0.4547280000000 1.0
C      1  0.4854940000000  0.4562680000000  0.5019450000000 1.0
C      1  0.5145060000000  0.4562680000000  0.5019450000000 1.0
END
