TITL C-3985254-1270-1597 3.95533846093087e-05 125000 -329.277979487675 0 0 60 (Ci) n - 1
REM
REM in /home/nfs/bkarasulu/CARBON/AIRSS/Generating-Clusters/TERSOFF/Higher-Symm/Only-C60
REM
REM
REM
REM
REM
REM ./C.cell (28575a23ae977d3b5fae324c64b13b57)
REM
REM compiler GCC version 9.2.1 20190827 (Red Hat 9.2.1-1)
REM options -cpp -mtune=generic -march=x86-64 -g -O0 -fpre-include=/usr/include/finclude/math-vector-fortran.h
REM seed -2025548911 -223980263 1320753280 1609250642 -1329577047 -192489940 -702453412 1802217972 -1259679861 -978431285 1984537948 -609368805 1465119815 1709356287 -112339166 103699909 -591131489 152400154 -693950880 780849606 1391319534 -831444686 1646402129 -1106621189 -276117722 2059675882 109044839 842772417 616738994 2049708361 305793901 -1125459494 -1865142765
REM
CELL 1.54180   50.00000   50.00000   50.00000   90.00000   90.00000   90.00000
LATT -1
SFAC C  
C      1  0.5397050000000  0.4384180000000  0.4814380000000 1.0
C      1  0.4602950000000  0.5615820000000  0.5185610000000 1.0
C      1  0.5061400000000  0.5416400000000  0.5017710000000 1.0
C      1  0.4938600000000  0.4583600000000  0.4982290000000 1.0
C      1  0.5244640000000  0.4622580000000  0.4357640000000 1.0
C      1  0.4755360000000  0.5377420000000  0.5642360000000 1.0
C      1  0.4559980000000  0.5343120000000  0.5101930000000 1.0
C      1  0.5440020000000  0.4656880000000  0.4898070000000 1.0
C      1  0.5748640000000  0.5018800000000  0.4817000000000 1.0
C      1  0.4251360000000  0.4981200000000  0.5183000000000 1.0
C      1  0.5229550000000  0.5475230000000  0.5295930000000 1.0
C      1  0.4770450000000  0.4524780000000  0.4704070000000 1.0
C      1  0.5503310000000  0.5566860000000  0.5247430000000 1.0
C      1  0.4496690000000  0.4433140000000  0.4752570000000 1.0
C      1  0.4683810000000  0.4998500000000  0.5476170000000 1.0
C      1  0.5316190000000  0.5001500000000  0.4523830000000 1.0
C      1  0.5677370000000  0.5482390000000  0.4794410000000 1.0
C      1  0.4322630000000  0.4517610000000  0.5205590000000 1.0
C      1  0.5360510000000  0.4679950000000  0.5432500000000 1.0
C      1  0.4639490000000  0.5320050000000  0.4567500000000 1.0
C      1  0.5374880000000  0.4359500000000  0.5350260000000 1.0
C      1  0.4625120000000  0.5640500000000  0.4649740000000 1.0
C      1  0.5028710000000  0.4911090000000  0.4355510000000 1.0
C      1  0.4971290000000  0.5088910000000  0.5644480000000 1.0
C      1  0.5166600000000  0.5425770000000  0.4735900000000 1.0
C      1  0.4833400000000  0.4574230000000  0.5264100000000 1.0
C      1  0.5223790000000  0.4388210000000  0.4556360000000 1.0
C      1  0.4776220000000  0.5611790000000  0.5443640000000 1.0
C      1  0.5369920000000  0.5139880000000  0.5086080000000 1.0
C      1  0.4630080000000  0.4860120000000  0.4913920000000 1.0
C      1  0.4833770000000  0.5049520000000  0.4820810000000 1.0
C      1  0.5166220000000  0.4950470000000  0.5179190000000 1.0
C      1  0.4468210000000  0.4796950000000  0.5560410000000 1.0
C      1  0.5531790000000  0.5203050000000  0.4439590000000 1.0
C      1  0.5556070000000  0.4741310000000  0.5162110000000 1.0
C      1  0.4443930000000  0.5258690000000  0.4837890000000 1.0
C      1  0.4313920000000  0.4583870000000  0.4914500000000 1.0
C      1  0.5686070000000  0.5416130000000  0.5085500000000 1.0
C      1  0.5484910000000  0.5016560000000  0.5469830000000 1.0
C      1  0.4515090000000  0.4983440000000  0.4530170000000 1.0
C      1  0.4979780000000  0.5249610000000  0.4483330000000 1.0
C      1  0.5020220000000  0.4750390000000  0.5516660000000 1.0
C      1  0.5755480000000  0.5255450000000  0.4632530000000 1.0
C      1  0.4244520000000  0.4744550000000  0.5367470000000 1.0
C      1  0.4583970000000  0.4428400000000  0.5311570000000 1.0
C      1  0.5416030000000  0.5571600000000  0.4688430000000 1.0
C      1  0.4895250000000  0.5045910000000  0.5235700000000 1.0
C      1  0.5104750000000  0.4954090000000  0.4764310000000 1.0
C      1  0.5678290000000  0.5080410000000  0.5164820000000 1.0
C      1  0.4321710000000  0.4919600000000  0.4835180000000 1.0
C      1  0.4830000000000  0.5245720000000  0.5040440000000 1.0
C      1  0.5170000000000  0.4754280000000  0.4959560000000 1.0
C      1  0.4663670000000  0.5759360000000  0.4928290000000 1.0
C      1  0.5336340000000  0.4240630000000  0.5071710000000 1.0
C      1  0.4947380000000  0.4318660000000  0.4589090000000 1.0
C      1  0.5052620000000  0.5681340000000  0.5410910000000 1.0
C      1  0.4459960000000  0.5158750000000  0.5300660000000 1.0
C      1  0.5540040000000  0.4841250000000  0.4699340000000 1.0
C      1  0.5243650000000  0.5212310000000  0.5498010000000 1.0
C      1  0.4756350000000  0.4787690000000  0.4502000000000 1.0
END
