TITL C-3985259-1859-732 0.00322618044608055 125000 -331.352270918923 0 0 60 (C1) n - 1
REM
REM in /home/nfs/bkarasulu/CARBON/AIRSS/Generating-Clusters/TERSOFF/Higher-Symm/Only-C60
REM
REM
REM
REM
REM
REM ./C.cell (28575a23ae977d3b5fae324c64b13b57)
REM
REM compiler GCC version 9.2.1 20190827 (Red Hat 9.2.1-1)
REM options -cpp -mtune=generic -march=x86-64 -g -O0 -fpre-include=/usr/include/finclude/math-vector-fortran.h
REM seed 760641202 1800793002 541130837 -220264775 1004426013 1960181606 1492458754 -1600369802 112890384 -283222528 526030700 -616967316 11973857 821363710 1154729186 -1810143208 1474215209 -742573692 -1921308829 -821200751 -468753892 1261536812 1070230310 -1072000758 475581234 1989788701 -867425684 -1598664416 -753660226 1883476032 -160549707 -1901490669 -933136636
REM
CELL 1.54180   50.00000   50.00000   50.00000   90.00000   90.00000   90.00000
LATT -1
SFAC C  
C      1  0.4391140000000  0.4948900000000  0.5356820000000 1.0
C      1  0.4754570000000  0.5566590000000  0.5365770000000 1.0
C      1  0.5459030000000  0.5389900000000  0.5360070000000 1.0
C      1  0.5525840000000  0.4680740000000  0.5365290000000 1.0
C      1  0.4857670000000  0.4400780000000  0.5357800000000 1.0
C      1  0.4841180000000  0.4737050000000  0.5495530000000 1.0
C      1  0.4704820000000  0.5071740000000  0.5496090000000 1.0
C      1  0.4969220000000  0.5319930000000  0.5525630000000 1.0
C      1  0.5263940000000  0.5108160000000  0.5481100000000 1.0
C      1  0.5204510000000  0.4752110000000  0.5523110000000 1.0
C      1  0.4876000000000  0.4805520000000  0.5926490000000 1.0
C      1  0.4771900000000  0.5083230000000  0.5934520000000 1.0
C      1  0.4986990000000  0.5276940000000  0.5837130000000 1.0
C      1  0.5225470000000  0.5096190000000  0.5899160000000 1.0
C      1  0.5166740000000  0.4803330000000  0.5833530000000 1.0
C      1  0.4933460000000  0.5251270000000  0.4178450000000 1.0
C      1  0.5218490000000  0.5142730000000  0.4178970000000 1.0
C      1  0.5203320000000  0.4837790000000  0.4177910000000 1.0
C      1  0.4908890000000  0.4757810000000  0.4177230000000 1.0
C      1  0.4742000000000  0.5013480000000  0.4177290000000 1.0
C      1  0.5140740000000  0.4496620000000  0.5326330000000 1.0
C      1  0.4575600000000  0.4715700000000  0.5315080000000 1.0
C      1  0.4605850000000  0.5312630000000  0.5315960000000 1.0
C      1  0.5176610000000  0.5489750000000  0.5330330000000 1.0
C      1  0.5493170000000  0.4972710000000  0.5312650000000 1.0
C      1  0.4414300000000  0.4662650000000  0.4803750000000 1.0
C      1  0.4499690000000  0.5452770000000  0.4807270000000 1.0
C      1  0.5272510000000  0.5615050000000  0.4812280000000 1.0
C      1  0.5673450000000  0.4924760000000  0.4806650000000 1.0
C      1  0.5141720000000  0.4340510000000  0.4807930000000 1.0
C      1  0.5157070000000  0.5408710000000  0.4594440000000 1.0
C      1  0.5437520000000  0.4975530000000  0.4592390000000 1.0
C      1  0.5114120000000  0.4576790000000  0.4591930000000 1.0
C      1  0.4633310000000  0.4761930000000  0.4590360000000 1.0
C      1  0.4660910000000  0.5276020000000  0.4591550000000 1.0
C      1  0.5259340000000  0.4504030000000  0.5054290000000 1.0
C      1  0.4609730000000  0.4601980000000  0.5044580000000 1.0
C      1  0.4505540000000  0.5246810000000  0.5045930000000 1.0
C      1  0.5078810000000  0.5553140000000  0.5057340000000 1.0
C      1  0.5544830000000  0.5086110000000  0.5044860000000 1.0
C      1  0.4282770000000  0.5053530000000  0.5094050000000 1.0
C      1  0.4824070000000  0.5701240000000  0.5102670000000 1.0
C      1  0.5609520000000  0.5373110000000  0.5098160000000 1.0
C      1  0.5552860000000  0.4532090000000  0.5100620000000 1.0
C      1  0.4727350000000  0.4332000000000  0.5093540000000 1.0
C      1  0.4891160000000  0.5405080000000  0.4438110000000 1.0
C      1  0.5351740000000  0.5229660000000  0.4439170000000 1.0
C      1  0.5327340000000  0.4736840000000  0.4437130000000 1.0
C      1  0.4851810000000  0.4607740000000  0.4436510000000 1.0
C      1  0.4581930000000  0.5021060000000  0.4436350000000 1.0
C      1  0.5052830000000  0.5263780000000  0.4877850000000 1.0
C      1  0.5266830000000  0.5029570000000  0.4874070000000 1.0
C      1  0.5112460000000  0.4753660000000  0.4876250000000 1.0
C      1  0.4801660000000  0.4816370000000  0.4873540000000 1.0
C      1  0.4765640000000  0.5131150000000  0.4873760000000 1.0
C      1  0.4623010000000  0.5703400000000  0.4892600000000 1.0
C      1  0.5549550000000  0.5571730000000  0.4894490000000 1.0
C      1  0.5718830000000  0.4648880000000  0.4891920000000 1.0
C      1  0.4892870000000  0.4210560000000  0.4887940000000 1.0
C      1  0.4215790000000  0.4860130000000  0.4887470000000 1.0
END
