TITL C-3985254-1270-1637 -4.64139881214792e-07 125000 -350.454074874071 0 0 60 (C5) n - 1
REM
REM in /home/nfs/bkarasulu/CARBON/AIRSS/Generating-Clusters/TERSOFF/Higher-Symm/Only-C60
REM
REM
REM
REM
REM
REM ./C.cell (28575a23ae977d3b5fae324c64b13b57)
REM
REM compiler GCC version 9.2.1 20190827 (Red Hat 9.2.1-1)
REM options -cpp -mtune=generic -march=x86-64 -g -O0 -fpre-include=/usr/include/finclude/math-vector-fortran.h
REM seed 1474700139 -358539533 -1746232529 -1564424433 440522523 -147076427 532407253 -690994459 -478288275 779461028 -1623139135 -2030755563 -1632065595 1935452508 1668283095 122008528 -62490550 1294584048 -255297710 -818008158 286575940 -1227625748 -1778470482 542502272 -2093458030 -592910415 -1545677421 1644274901 1662588796 1026293600 317050140 -134991182 -461321461
REM
CELL 1.54180   50.00000   50.00000   50.00000   90.00000   90.00000   90.00000
LATT -1
SFAC C  
C      1  0.4545440000000  0.5192700000000  0.4595680000000 1.0
C      1  0.5042800000000  0.5491860000000  0.4595680000000 1.0
C      1  0.5481020000000  0.5111290000000  0.4595680000000 1.0
C      1  0.5254480000000  0.4576910000000  0.4595680000000 1.0
C      1  0.4676260000000  0.4627230000000  0.4595680000000 1.0
C      1  0.5860740000000  0.4952630000000  0.4870100000000 1.0
C      1  0.5220930000000  0.4166750000000  0.4870100000000 1.0
C      1  0.4275800000000  0.4532390000000  0.4870100000000 1.0
C      1  0.4331490000000  0.5544250000000  0.4870100000000 1.0
C      1  0.5311030000000  0.5803970000000  0.4870100000000 1.0
C      1  0.5636100000000  0.4826350000000  0.5303250000000 1.0
C      1  0.5031410000000  0.4341370000000  0.5303250000000 1.0
C      1  0.4383310000000  0.4766600000000  0.5303250000000 1.0
C      1  0.4587460000000  0.5514380000000  0.5303250000000 1.0
C      1  0.5361720000000  0.5551310000000  0.5303250000000 1.0
C      1  0.5740240000000  0.4715900000000  0.5044570000000 1.0
C      1  0.4958560000000  0.4208200000000  0.5044570000000 1.0
C      1  0.4234150000000  0.4794740000000  0.5044570000000 1.0
C      1  0.4568120000000  0.5664940000000  0.5044570000000 1.0
C      1  0.5498940000000  0.5616220000000  0.5044570000000 1.0
C      1  0.5245770000000  0.5061310000000  0.4432120000000 1.0
C      1  0.5134250000000  0.4785210000000  0.4432120000000 1.0
C      1  0.4837210000000  0.4805950000000  0.4432120000000 1.0
C      1  0.4765140000000  0.5094860000000  0.4432120000000 1.0
C      1  0.5017640000000  0.5252680000000  0.4432120000000 1.0
C      1  0.4847450000000  0.4576690000000  0.5340870000000 1.0
C      1  0.4550270000000  0.5014270000000  0.5340870000000 1.0
C      1  0.4874600000000  0.5432130000000  0.5340870000000 1.0
C      1  0.5372230000000  0.5252800000000  0.5340870000000 1.0
C      1  0.5355450000000  0.4724110000000  0.5340870000000 1.0
C      1  0.4523930000000  0.4407060000000  0.5005340000000 1.0
C      1  0.4288970000000  0.5269540000000  0.5005340000000 1.0
C      1  0.5036630000000  0.5759520000000  0.5005340000000 1.0
C      1  0.5733670000000  0.5199870000000  0.5005340000000 1.0
C      1  0.5416800000000  0.4364000000000  0.5005340000000 1.0
C      1  0.4930390000000  0.5244390000000  0.5564800000000 1.0
C      1  0.5210920000000  0.5141720000000  0.5564800000000 1.0
C      1  0.5199960000000  0.4843200000000  0.5564800000000 1.0
C      1  0.4912670000000  0.4761370000000  0.5564800000000 1.0
C      1  0.4746060000000  0.5009320000000  0.5564800000000 1.0
C      1  0.4717810000000  0.5005340000000  0.5051740000000 1.0
C      1  0.4917870000000  0.5270030000000  0.5051740000000 1.0
C      1  0.5231440000000  0.5161550000000  0.5051740000000 1.0
C      1  0.5225160000000  0.4829810000000  0.5051740000000 1.0
C      1  0.4907720000000  0.4733270000000  0.5051740000000 1.0
C      1  0.5078260000000  0.5649730000000  0.5284490000000 1.0
C      1  0.5642120000000  0.5126350000000  0.5284490000000 1.0
C      1  0.5318590000000  0.4428350000000  0.5284490000000 1.0
C      1  0.4554780000000  0.4520350000000  0.5284490000000 1.0
C      1  0.4406250000000  0.5275210000000  0.5284490000000 1.0
C      1  0.5637640000000  0.4877870000000  0.4671400000000 1.0
C      1  0.5080890000000  0.4355830000000  0.4671390000000 1.0
C      1  0.4412360000000  0.4724010000000  0.4671390000000 1.0
C      1  0.4555920000000  0.5473600000000  0.4671390000000 1.0
C      1  0.5313190000000  0.5568690000000  0.4671400000000 1.0
C      1  0.5470920000000  0.5323270000000  0.4835630000000 1.0
C      1  0.5452970000000  0.4652020000000  0.4835630000000 1.0
C      1  0.4809030000000  0.4461670000000  0.4835630000000 1.0
C      1  0.4429010000000  0.5015270000000  0.4835630000000 1.0
C      1  0.4838080000000  0.5547770000000  0.4835630000000 1.0
END
