TITL C-3985254-1270-449 5.82503164885041e-07 125000 -331.390822667659 0 0 60 (D3) n - 1
REM
REM in /home/nfs/bkarasulu/CARBON/AIRSS/Generating-Clusters/TERSOFF/Higher-Symm/Only-C60
REM
REM
REM
REM
REM
REM ./C.cell (28575a23ae977d3b5fae324c64b13b57)
REM
REM compiler GCC version 9.2.1 20190827 (Red Hat 9.2.1-1)
REM options -cpp -mtune=generic -march=x86-64 -g -O0 -fpre-include=/usr/include/finclude/math-vector-fortran.h
REM seed -751291878 742996398 85480547 -372125971 1254167095 2010331263 1332541251 -484780100 354378395 -65284752 -1772111963 -864976616 1732527920 1855846445 947951047 692497781 -1743640460 1993778204 1386725898 3721741 54122338 -1005195329 38841560 -1889441966 -1675854118 -1879042242 -76078339 1826105538 -1602897028 1249870007 -1928430658 999410409 1634813869
REM
CELL 1.54180   50.00000   50.00000   50.00000   90.00000   90.00000   90.00000
LATT -1
SFAC C  
C      1  0.4671200000000  0.4851200000000  0.5643740000000 1.0
C      1  0.4671200000000  0.5631900000000  0.4807000000000 1.0
C      1  0.4671200000000  0.4516910000000  0.4549260000000 1.0
C      1  0.5328800000000  0.4851200000000  0.4356260000000 1.0
C      1  0.5328800000000  0.5631900000000  0.5193000000000 1.0
C      1  0.5328800000000  0.4516910000000  0.5450740000000 1.0
C      1  0.5543160000000  0.5295260000000  0.4928560000000 1.0
C      1  0.5543160000000  0.4790500000000  0.4780010000000 1.0
C      1  0.5543160000000  0.4914230000000  0.5291420000000 1.0
C      1  0.4456840000000  0.5295260000000  0.5071440000000 1.0
C      1  0.4456840000000  0.4790500000000  0.5219990000000 1.0
C      1  0.4456840000000  0.4914230000000  0.4708580000000 1.0
C      1  0.5174720000000  0.4331520000000  0.4953460000000 1.0
C      1  0.5174720000000  0.5293940000000  0.5602190000000 1.0
C      1  0.5174720000000  0.5374550000000  0.4444350000000 1.0
C      1  0.4825280000000  0.4331520000000  0.5046540000000 1.0
C      1  0.4825280000000  0.5293940000000  0.4397810000000 1.0
C      1  0.4825280000000  0.5374550000000  0.5555650000000 1.0
C      1  0.5399550000000  0.5139620000000  0.4444880000000 1.0
C      1  0.5399550000000  0.4449450000000  0.5156640000000 1.0
C      1  0.5399550000000  0.5410930000000  0.5398470000000 1.0
C      1  0.4600450000000  0.5139620000000  0.5555120000000 1.0
C      1  0.4600450000000  0.4449450000000  0.4843360000000 1.0
C      1  0.4600450000000  0.5410930000000  0.4601530000000 1.0
C      1  0.5441670000000  0.5579630000000  0.4895210000000 1.0
C      1  0.5441670000000  0.4619430000000  0.4550420000000 1.0
C      1  0.5441670000000  0.4800940000000  0.5554370000000 1.0
C      1  0.4558330000000  0.5579630000000  0.5104790000000 1.0
C      1  0.4558330000000  0.4619430000000  0.5449580000000 1.0
C      1  0.4558330000000  0.4800940000000  0.4445630000000 1.0
C      1  0.4957710000000  0.4669710000000  0.4836330000000 1.0
C      1  0.4957710000000  0.5023400000000  0.5367870000000 1.0
C      1  0.4957710000000  0.5306890000000  0.4795800000000 1.0
C      1  0.5042290000000  0.4669710000000  0.5163670000000 1.0
C      1  0.5042290000000  0.5023400000000  0.4632130000000 1.0
C      1  0.5042290000000  0.5306890000000  0.5204200000000 1.0
C      1  0.4971660000000  0.4814620000000  0.5633240000000 1.0
C      1  0.4971660000000  0.5641090000000  0.4843930000000 1.0
C      1  0.4971660000000  0.4544290000000  0.4522830000000 1.0
C      1  0.5028340000000  0.4814620000000  0.4366760000000 1.0
C      1  0.5028340000000  0.5641090000000  0.5156070000000 1.0
C      1  0.5028340000000  0.4544290000000  0.5477170000000 1.0
C      1  0.4774820000000  0.5602200000000  0.5336340000000 1.0
C      1  0.4774810000000  0.4990180000000  0.4310310000000 1.0
C      1  0.4774820000000  0.4407620000000  0.5353350000000 1.0
C      1  0.5225180000000  0.5602200000000  0.4663660000000 1.0
C      1  0.5225190000000  0.4990180000000  0.5689690000000 1.0
C      1  0.5225180000000  0.4407620000000  0.4646650000000 1.0
C      1  0.5242200000000  0.4873050000000  0.4846540000000 1.0
C      1  0.5242200000000  0.4930580000000  0.5186670000000 1.0
C      1  0.5242200000000  0.5196370000000  0.4966790000000 1.0
C      1  0.4757800000000  0.4873050000000  0.5153460000000 1.0
C      1  0.4757800000000  0.4930580000000  0.4813330000000 1.0
C      1  0.4757800000000  0.5196370000000  0.5033210000000 1.0
C      1  0.5577150000000  0.5214990000000  0.5237000000000 1.0
C      1  0.5577150000000  0.5097750000000  0.4695310000000 1.0
C      1  0.5577150000000  0.4687250000000  0.5067690000000 1.0
C      1  0.4422850000000  0.5214990000000  0.4763000000000 1.0
C      1  0.4422850000000  0.5097750000000  0.5304690000000 1.0
C      1  0.4422850000000  0.4687250000000  0.4932310000000 1.0
END
