TITL C-3985254-1270-769 -8.11171590123315e-07 125000 -265.259782770832 0 0 60 (C6) n - 1
REM
REM in /home/nfs/bkarasulu/CARBON/AIRSS/Generating-Clusters/TERSOFF/Higher-Symm/Only-C60
REM
REM
REM
REM
REM
REM ./C.cell (28575a23ae977d3b5fae324c64b13b57)
REM
REM compiler GCC version 9.2.1 20190827 (Red Hat 9.2.1-1)
REM options -cpp -mtune=generic -march=x86-64 -g -O0 -fpre-include=/usr/include/finclude/math-vector-fortran.h
REM seed 2008373474 -1986489804 -1337181012 1580828916 2121164524 2034362816 -1599266312 -1153201618 -1115275851 -394153243 98411854 -683699437 -385325003 -1750292751 -669298040 -184172565 435798844 -195618297 960367056 2127002384 -1157823068 -2015532764 -1423474418 -1680152722 1709194621 116460761 -1790531367 -521170964 -1214869230 -1618931157 600719661 -507637969 -1827299479
REM
CELL 1.54180   50.00000   50.00000   50.00000   90.00000   90.00000   90.00000
LATT -1
SFAC C  
C      1  0.5487970000000  0.5590730000000  0.4921790000000 1.0
C      1  0.5487970000000  0.5363100000000  0.5472480000000 1.0
C      1  0.5487970000000  0.4772370000000  0.5550700000000 1.0
C      1  0.5487970000000  0.4409270000000  0.5078210000000 1.0
C      1  0.5487970000000  0.4636900000000  0.4527520000000 1.0
C      1  0.5487970000000  0.5227630000000  0.4449300000000 1.0
C      1  0.4890770000000  0.4601920000000  0.4295500000000 1.0
C      1  0.4890770000000  0.5411070000000  0.4303010000000 1.0
C      1  0.4890770000000  0.5809150000000  0.5007500000000 1.0
C      1  0.4890770000000  0.5398080000000  0.5704500000000 1.0
C      1  0.4890770000000  0.4588930000000  0.5696990000000 1.0
C      1  0.4890770000000  0.4190850000000  0.4992500000000 1.0
C      1  0.4598460000000  0.4718770000000  0.5631250000000 1.0
C      1  0.4598460000000  0.4312710000000  0.5072080000000 1.0
C      1  0.4598460000000  0.4593930000000  0.4440820000000 1.0
C      1  0.4598460000000  0.5281230000000  0.4368750000000 1.0
C      1  0.4598460000000  0.5687290000000  0.4927920000000 1.0
C      1  0.4598460000000  0.5406070000000  0.5559180000000 1.0
C      1  0.5168550000000  0.5642060000000  0.4919360000000 1.0
C      1  0.5168550000000  0.5390870000000  0.5515720000000 1.0
C      1  0.5168550000000  0.4748810000000  0.5596360000000 1.0
C      1  0.5168550000000  0.4357940000000  0.5080640000000 1.0
C      1  0.5168550000000  0.4609130000000  0.4484280000000 1.0
C      1  0.5168550000000  0.5251190000000  0.4403640000000 1.0
C      1  0.4717390000000  0.4332990000000  0.4567350000000 1.0
C      1  0.4717390000000  0.5041180000000  0.4206020000000 1.0
C      1  0.4717390000000  0.5708190000000  0.4638670000000 1.0
C      1  0.4717390000000  0.5667010000000  0.5432650000000 1.0
C      1  0.4717390000000  0.4958820000000  0.5793980000000 1.0
C      1  0.4717390000000  0.4291810000000  0.5361330000000 1.0
C      1  0.5181150000000  0.5152870000000  0.4725250000000 1.0
C      1  0.5181150000000  0.5314370000000  0.4995020000000 1.0
C      1  0.5181150000000  0.5161500000000  0.5269770000000 1.0
C      1  0.5181150000000  0.4847130000000  0.5274750000000 1.0
C      1  0.5181150000000  0.4685630000000  0.5004980000000 1.0
C      1  0.5181150000000  0.4838500000000  0.4730230000000 1.0
C      1  0.4848840000000  0.4904010000000  0.4674460000000 1.0
C      1  0.4848840000000  0.5233930000000  0.4754100000000 1.0
C      1  0.4848840000000  0.5329920000000  0.5079640000000 1.0
C      1  0.4848840000000  0.5095990000000  0.5325540000000 1.0
C      1  0.4848840000000  0.4766070000000  0.5245900000000 1.0
C      1  0.4848840000000  0.4670080000000  0.4920360000000 1.0
C      1  0.5626630000000  0.4952140000000  0.4639240000000 1.0
C      1  0.5626630000000  0.5288500000000  0.4778170000000 1.0
C      1  0.5626630000000  0.5336360000000  0.5138930000000 1.0
C      1  0.5626630000000  0.5047860000000  0.5360760000000 1.0
C      1  0.5626630000000  0.4711500000000  0.5221830000000 1.0
C      1  0.5626630000000  0.4663640000000  0.4861070000000 1.0
C      1  0.4525240000000  0.4828660000000  0.5318250000000 1.0
C      1  0.4525240000000  0.4638720000000  0.5010740000000 1.0
C      1  0.4525240000000  0.4810060000000  0.4692490000000 1.0
C      1  0.4525240000000  0.5171340000000  0.4681750000000 1.0
C      1  0.4525240000000  0.5361280000000  0.4989260000000 1.0
C      1  0.4525240000000  0.5189940000000  0.5307510000000 1.0
C      1  0.4955010000000  0.5526760000000  0.5310040000000 1.0
C      1  0.4955010000000  0.4994880000000  0.5611210000000 1.0
C      1  0.4955010000000  0.4468110000000  0.5301170000000 1.0
C      1  0.4955010000000  0.4473240000000  0.4689960000000 1.0
C      1  0.4955010000000  0.5005120000000  0.4388790000000 1.0
C      1  0.4955010000000  0.5531890000000  0.4698830000000 1.0
END
