TITL C-3985254-1270-1344 0.000251924686452942 125000 -308.248808481581 0 0 60 (C1) n - 1
REM
REM in /home/nfs/bkarasulu/CARBON/AIRSS/Generating-Clusters/TERSOFF/Higher-Symm/Only-C60
REM
REM
REM
REM
REM
REM ./C.cell (28575a23ae977d3b5fae324c64b13b57)
REM
REM compiler GCC version 9.2.1 20190827 (Red Hat 9.2.1-1)
REM options -cpp -mtune=generic -march=x86-64 -g -O0 -fpre-include=/usr/include/finclude/math-vector-fortran.h
REM seed -237039492 -1869092046 1425651231 -1715169034 727573033 925823168 -2107890865 -990889753 -1361729154 1574235138 -988383382 -407074058 -47658568 1338642871 874163522 -758600335 778701094 -1593355156 1120753785 -889472112 1411280837 908758727 -88655190 1763886437 405428241 -303890517 485843421 -526308804 824518375 -994595396 1010099394 889347809 2026080325
REM
CELL 1.54180   50.00000   50.00000   50.00000   90.00000   90.00000   90.00000
LATT -1
SFAC C  
C      1  0.4351940000000  0.5001070000000  0.4892510000000 1.0
C      1  0.4560920000000  0.4655320000000  0.4598880000000 1.0
C      1  0.5242980000000  0.4310580000000  0.5033950000000 1.0
C      1  0.5282330000000  0.4514830000000  0.4519500000000 1.0
C      1  0.4771110000000  0.4399830000000  0.4933430000000 1.0
C      1  0.4498890000000  0.4980330000000  0.4576610000000 1.0
C      1  0.5389640000000  0.5000830000000  0.4309960000000 1.0
C      1  0.4516760000000  0.4534800000000  0.4859990000000 1.0
C      1  0.5286050000000  0.4923620000000  0.5453110000000 1.0
C      1  0.4695200000000  0.5473160000000  0.4499950000000 1.0
C      1  0.5049810000000  0.5099250000000  0.4696860000000 1.0
C      1  0.4833280000000  0.4577730000000  0.4514960000000 1.0
C      1  0.5178190000000  0.4710520000000  0.5272430000000 1.0
C      1  0.5527800000000  0.5211980000000  0.5639430000000 1.0
C      1  0.4477180000000  0.5050000000000  0.5712420000000 1.0
C      1  0.4631630000000  0.5526660000000  0.5222490000000 1.0
C      1  0.5193680000000  0.5501590000000  0.5098560000000 1.0
C      1  0.4885670000000  0.4780800000000  0.5226210000000 1.0
C      1  0.4303260000000  0.4998140000000  0.5466210000000 1.0
C      1  0.4850530000000  0.5758370000000  0.4907530000000 1.0
C      1  0.4816180000000  0.5229900000000  0.4883310000000 1.0
C      1  0.5151040000000  0.5500070000000  0.4623400000000 1.0
C      1  0.4481380000000  0.5312410000000  0.4643850000000 1.0
C      1  0.5538430000000  0.5394130000000  0.4505220000000 1.0
C      1  0.4429380000000  0.4726690000000  0.5360710000000 1.0
C      1  0.4801880000000  0.5071240000000  0.5350390000000 1.0
C      1  0.4467910000000  0.4765050000000  0.5054940000000 1.0
C      1  0.4425860000000  0.5324430000000  0.5001770000000 1.0
C      1  0.5236110000000  0.4733550000000  0.4303990000000 1.0
C      1  0.4834960000000  0.5019640000000  0.4453680000000 1.0
C      1  0.5249150000000  0.4726110000000  0.4981700000000 1.0
C      1  0.5304230000000  0.5351000000000  0.5491260000000 1.0
C      1  0.5541000000000  0.4428300000000  0.4628750000000 1.0
C      1  0.5275180000000  0.5196620000000  0.5217280000000 1.0
C      1  0.4752780000000  0.4903570000000  0.4968820000000 1.0
C      1  0.5065860000000  0.4316220000000  0.5342550000000 1.0
C      1  0.4943270000000  0.4767680000000  0.4320880000000 1.0
C      1  0.4789580000000  0.5008100000000  0.5671000000000 1.0
C      1  0.5582090000000  0.4736090000000  0.5015460000000 1.0
C      1  0.5065350000000  0.4830650000000  0.5658270000000 1.0
C      1  0.5070830000000  0.5515890000000  0.5591330000000 1.0
C      1  0.4503950000000  0.5129620000000  0.5269320000000 1.0
C      1  0.4879840000000  0.5672180000000  0.5410230000000 1.0
C      1  0.5350500000000  0.5031960000000  0.4604550000000 1.0
C      1  0.5412730000000  0.5498760000000  0.4818030000000 1.0
C      1  0.4877660000000  0.5525650000000  0.4728650000000 1.0
C      1  0.5230660000000  0.5325230000000  0.4329140000000 1.0
C      1  0.4677130000000  0.4691870000000  0.5578580000000 1.0
C      1  0.4967750000000  0.4518530000000  0.5600450000000 1.0
C      1  0.4834620000000  0.4474660000000  0.5204940000000 1.0
C      1  0.5159290000000  0.5007650000000  0.4977140000000 1.0
C      1  0.5540840000000  0.4429360000000  0.4928050000000 1.0
C      1  0.5578920000000  0.4913820000000  0.5534560000000 1.0
C      1  0.4882170000000  0.5331550000000  0.5164700000000 1.0
C      1  0.5506150000000  0.5243880000000  0.4988860000000 1.0
C      1  0.5560340000000  0.4999260000000  0.4825040000000 1.0
C      1  0.5016740000000  0.5757200000000  0.5152130000000 1.0
C      1  0.5720440000000  0.4796970000000  0.5286890000000 1.0
C      1  0.5065220000000  0.4491710000000  0.4774260000000 1.0
C      1  0.4885750000000  0.5293380000000  0.4320920000000 1.0
END
