TITL C-3985248-2097-3 0.000124196107241816 125000 -334.684632277103 0 0 60 (C2) n - 1
REM
REM in /home/nfs/bkarasulu/CARBON/AIRSS/Generating-Clusters/TERSOFF/Higher-Symm/Only-C60
REM
REM
REM
REM
REM
REM ./C.cell (28575a23ae977d3b5fae324c64b13b57)
REM
REM compiler GCC version 9.2.1 20190827 (Red Hat 9.2.1-1)
REM options -cpp -mtune=generic -march=x86-64 -g -O0 -fpre-include=/usr/include/finclude/math-vector-fortran.h
REM seed -853955782 -85636482 -781223127 817998631 -810897312 1896651970 -2052805396 -2125528796 945583802 129610715 -1635415306 253220643 -1856678002 -2043928439 -299488460 1470185109 -1128350845 -162509197 1451836969 1983820625 -77239760 1167514384 1928142412 1396926089 711037716 -280750843 1713953249 -1772789057 -1577454083 873727832 1103206289 -1334523436 1238784456
REM
CELL 1.54180   50.00000   50.00000   50.00000   90.00000   90.00000   90.00000
LATT -1
SFAC C  
C      1  0.5256390000000  0.4478720000000  0.5115490000000 1.0
C      1  0.5193210000000  0.4455060000000  0.4788030000000 1.0
C      1  0.4858340000000  0.4430470000000  0.4735320000000 1.0
C      1  0.4712590000000  0.4463600000000  0.5047620000000 1.0
C      1  0.4962240000000  0.4497490000000  0.5274820000000 1.0
C      1  0.5256390000000  0.5521210000000  0.4884510000000 1.0
C      1  0.5193160000000  0.5544970000000  0.5211910000000 1.0
C      1  0.4858300000000  0.5569550000000  0.5264700000000 1.0
C      1  0.4712590000000  0.5536400000000  0.4952380000000 1.0
C      1  0.4962230000000  0.5502470000000  0.4725190000000 1.0
C      1  0.4683190000000  0.5513510000000  0.5508630000000 1.0
C      1  0.5382200000000  0.5502190000000  0.5446370000000 1.0
C      1  0.5533780000000  0.5495330000000  0.4779600000000 1.0
C      1  0.4955810000000  0.5489160000000  0.4430390000000 1.0
C      1  0.4431050000000  0.5499970000000  0.4857850000000 1.0
C      1  0.4683100000000  0.4486400000000  0.4491260000000 1.0
C      1  0.5382190000000  0.4497770000000  0.4553640000000 1.0
C      1  0.5533780000000  0.4504690000000  0.5220400000000 1.0
C      1  0.4955780000000  0.4510840000000  0.5569590000000 1.0
C      1  0.4431050000000  0.4500030000000  0.5142170000000 1.0
C      1  0.4951540000000  0.4824760000000  0.5212120000000 1.0
C      1  0.5225270000000  0.4804400000000  0.5076300000000 1.0
C      1  0.5193560000000  0.4804900000000  0.4769230000000 1.0
C      1  0.4891450000000  0.4765070000000  0.4726350000000 1.0
C      1  0.4742620000000  0.4790570000000  0.4990990000000 1.0
C      1  0.4951580000000  0.5175610000000  0.4787920000000 1.0
C      1  0.5225240000000  0.5195570000000  0.4923650000000 1.0
C      1  0.5193510000000  0.5195100000000  0.5230790000000 1.0
C      1  0.4891430000000  0.5234670000000  0.5273680000000 1.0
C      1  0.4742570000000  0.5209460000000  0.5008990000000 1.0
C      1  0.4523990000000  0.4730080000000  0.4479520000000 1.0
C      1  0.4359080000000  0.4737870000000  0.5293250000000 1.0
C      1  0.5078190000000  0.4739070000000  0.5701460000000 1.0
C      1  0.5692360000000  0.4735590000000  0.5143560000000 1.0
C      1  0.5351600000000  0.4732790000000  0.4386410000000 1.0
C      1  0.4523980000000  0.5269940000000  0.5520500000000 1.0
C      1  0.4359090000000  0.5262140000000  0.4706750000000 1.0
C      1  0.5078200000000  0.5260920000000  0.4298560000000 1.0
C      1  0.5692360000000  0.5264430000000  0.4856450000000 1.0
C      1  0.5351590000000  0.5267190000000  0.5613560000000 1.0
C      1  0.5092910000000  0.5233750000000  0.5753150000000 1.0
C      1  0.5747340000000  0.5229770000000  0.5145710000000 1.0
C      1  0.5370380000000  0.5226610000000  0.4335300000000 1.0
C      1  0.4486080000000  0.5225040000000  0.4442180000000 1.0
C      1  0.4314170000000  0.5233230000000  0.5315320000000 1.0
C      1  0.5092890000000  0.4766270000000  0.4246860000000 1.0
C      1  0.5747350000000  0.4770220000000  0.4854320000000 1.0
C      1  0.5370390000000  0.4773400000000  0.5664710000000 1.0
C      1  0.4486070000000  0.4774960000000  0.5557820000000 1.0
C      1  0.4314160000000  0.4766780000000  0.4684680000000 1.0
C      1  0.5492260000000  0.4987660000000  0.4456910000000 1.0
C      1  0.4637510000000  0.4984310000000  0.4366280000000 1.0
C      1  0.4287750000000  0.4991420000000  0.5150350000000 1.0
C      1  0.4923800000000  0.4994940000000  0.5727090000000 1.0
C      1  0.5669510000000  0.4990710000000  0.5299060000000 1.0
C      1  0.5492270000000  0.5012350000000  0.5543090000000 1.0
C      1  0.4637530000000  0.5015670000000  0.5633720000000 1.0
C      1  0.4287760000000  0.5008590000000  0.4849660000000 1.0
C      1  0.4923790000000  0.5005060000000  0.4272920000000 1.0
C      1  0.5669490000000  0.5009290000000  0.4700940000000 1.0
END
