TITL C-3985254-1270-215 8.36595374737917e-08 125000 -356.555354300837 0 0 60 (D2) n - 1
REM
REM in /home/nfs/bkarasulu/CARBON/AIRSS/Generating-Clusters/TERSOFF/Higher-Symm/Only-C60
REM
REM
REM
REM
REM
REM ./C.cell (28575a23ae977d3b5fae324c64b13b57)
REM
REM compiler GCC version 9.2.1 20190827 (Red Hat 9.2.1-1)
REM options -cpp -mtune=generic -march=x86-64 -g -O0 -fpre-include=/usr/include/finclude/math-vector-fortran.h
REM seed 1158258369 1015926847 1528804307 -635428562 1614361403 1710693672 -482141610 -799231167 1952925206 1106949351 -1935367822 -1271536296 434277284 243009753 1148074889 -364623235 -886558330 -2070201726 388468681 -681827206 902541863 420183463 322271598 -1381781417 -1472487943 -387848885 -1242109587 -146473073 -1558666761 1410899759 -1466782217 -57931079 -1495169984
REM
CELL 1.54180   50.00000   50.00000   50.00000   90.00000   90.00000   90.00000
LATT -1
SFAC C  
C      1  0.4683250000000  0.5407820000000  0.4453790000000 1.0
C      1  0.5316750000000  0.4592180000000  0.4453790000000 1.0
C      1  0.4683250000000  0.4592180000000  0.5546210000000 1.0
C      1  0.5316750000000  0.5407820000000  0.5546210000000 1.0
C      1  0.4849720000000  0.4751540000000  0.4296120000000 1.0
C      1  0.5150280000000  0.5248460000000  0.4296120000000 1.0
C      1  0.4849720000000  0.5248460000000  0.5703880000000 1.0
C      1  0.5150280000000  0.4751540000000  0.5703880000000 1.0
C      1  0.4462790000000  0.5022030000000  0.4462600000000 1.0
C      1  0.5537210000000  0.4977970000000  0.4462600000000 1.0
C      1  0.4462790000000  0.4977970000000  0.5537400000000 1.0
C      1  0.5537210000000  0.5022030000000  0.5537400000000 1.0
C      1  0.5070230000000  0.4523140000000  0.5274710000000 1.0
C      1  0.4929770000000  0.5476860000000  0.5274710000000 1.0
C      1  0.5070230000000  0.5476860000000  0.4725290000000 1.0
C      1  0.4929770000000  0.4523140000000  0.4725290000000 1.0
C      1  0.5259020000000  0.4960670000000  0.4852620000000 1.0
C      1  0.4740980000000  0.5039330000000  0.4852620000000 1.0
C      1  0.5259020000000  0.5039330000000  0.5147380000000 1.0
C      1  0.4740980000000  0.4960670000000  0.5147380000000 1.0
C      1  0.4392530000000  0.4591970000000  0.5133110000000 1.0
C      1  0.5607470000000  0.5408030000000  0.5133110000000 1.0
C      1  0.4392530000000  0.5408030000000  0.4866890000000 1.0
C      1  0.5607470000000  0.4591970000000  0.4866890000000 1.0
C      1  0.4691250000000  0.5000090000000  0.4246510000000 1.0
C      1  0.5308750000000  0.4999910000000  0.4246510000000 1.0
C      1  0.4691250000000  0.4999910000000  0.5753490000000 1.0
C      1  0.5308750000000  0.5000090000000  0.5753490000000 1.0
C      1  0.5260930000000  0.5349080000000  0.4558720000000 1.0
C      1  0.4739070000000  0.4650920000000  0.4558720000000 1.0
C      1  0.5260930000000  0.4650920000000  0.5441280000000 1.0
C      1  0.4739070000000  0.5349080000000  0.5441280000000 1.0
C      1  0.4397280000000  0.4692970000000  0.5445390000000 1.0
C      1  0.5602720000000  0.5307030000000  0.5445390000000 1.0
C      1  0.4397280000000  0.5307030000000  0.4554610000000 1.0
C      1  0.5602720000000  0.4692970000000  0.4554610000000 1.0
C      1  0.5203310000000  0.5372850000000  0.5265780000000 1.0
C      1  0.4796690000000  0.4627150000000  0.5265780000000 1.0
C      1  0.5203310000000  0.4627150000000  0.4734220000000 1.0
C      1  0.4796690000000  0.5372850000000  0.4734220000000 1.0
C      1  0.5447760000000  0.5147730000000  0.4694760000000 1.0
C      1  0.4552240000000  0.4852270000000  0.4694760000000 1.0
C      1  0.5447760000000  0.4852270000000  0.5305240000000 1.0
C      1  0.4552240000000  0.5147730000000  0.5305240000000 1.0
C      1  0.4636970000000  0.4408460000000  0.5108300000000 1.0
C      1  0.5363030000000  0.5591540000000  0.5108300000000 1.0
C      1  0.4636970000000  0.5591540000000  0.4891700000000 1.0
C      1  0.5363030000000  0.4408460000000  0.4891700000000 1.0
C      1  0.5152190000000  0.4744500000000  0.4253140000000 1.0
C      1  0.4847810000000  0.5255500000000  0.4253140000000 1.0
C      1  0.5152190000000  0.5255500000000  0.5746860000000 1.0
C      1  0.4847810000000  0.4744500000000  0.5746860000000 1.0
C      1  0.4338050000000  0.5245780000000  0.5110410000000 1.0
C      1  0.5661950000000  0.4754220000000  0.5110410000000 1.0
C      1  0.4338050000000  0.4754220000000  0.4889590000000 1.0
C      1  0.5661950000000  0.5245780000000  0.4889590000000 1.0
C      1  0.5139090000000  0.5679850000000  0.4925220000000 1.0
C      1  0.4860910000000  0.4320150000000  0.4925220000000 1.0
C      1  0.5139090000000  0.4320150000000  0.5074780000000 1.0
C      1  0.4860910000000  0.5679850000000  0.5074780000000 1.0
END
