TITL C-3985259-1859-1176 4.36237093763501e-08 125000 -298.972246106028 0 0 60 (Ci) n - 1
REM
REM in /home/nfs/bkarasulu/CARBON/AIRSS/Generating-Clusters/TERSOFF/Higher-Symm/Only-C60
REM
REM
REM
REM
REM
REM ./C.cell (28575a23ae977d3b5fae324c64b13b57)
REM
REM compiler GCC version 9.2.1 20190827 (Red Hat 9.2.1-1)
REM options -cpp -mtune=generic -march=x86-64 -g -O0 -fpre-include=/usr/include/finclude/math-vector-fortran.h
REM seed -90686584 -511546246 -1436925338 752968296 -414855029 -1535435342 -1892088417 1061919411 -1272133156 1846454624 -1035794728 -1742004888 -1595744564 -319385629 -1813313909 1786528564 -802806332 1585178014 630879107 746611110 33329088 -296925149 -380271749 446958489 132847606 -1512122186 1142681250 136224137 318538044 1733131527 -311971220 177635243 -1173303601
REM
CELL 1.54180   50.00000   50.00000   50.00000   90.00000   90.00000   90.00000
LATT -1
SFAC C  
C      1  0.5512080000000  0.5584810000000  0.5006590000000 1.0
C      1  0.5509170000000  0.4411680000000  0.4997000000000 1.0
C      1  0.4490980000000  0.5588470000000  0.5003080000000 1.0
C      1  0.4487840000000  0.4415040000000  0.4993450000000 1.0
C      1  0.5326660000000  0.4902790000000  0.4817400000000 1.0
C      1  0.5322500000000  0.5115610000000  0.5178000000000 1.0
C      1  0.4677420000000  0.4884680000000  0.4821980000000 1.0
C      1  0.4673240000000  0.5096970000000  0.5182660000000 1.0
C      1  0.5635310000000  0.5322580000000  0.4502590000000 1.0
C      1  0.5628220000000  0.4676300000000  0.5494860000000 1.0
C      1  0.4371780000000  0.5323790000000  0.4505200000000 1.0
C      1  0.4364690000000  0.4677380000000  0.5497400000000 1.0
C      1  0.4487510000000  0.4466330000000  0.4685430000000 1.0
C      1  0.4499640000000  0.5529500000000  0.5309930000000 1.0
C      1  0.5500800000000  0.4470460000000  0.4690150000000 1.0
C      1  0.5512620000000  0.5533790000000  0.5314670000000 1.0
C      1  0.5887910000000  0.5145770000000  0.4597980000000 1.0
C      1  0.5882280000000  0.4849570000000  0.5399660000000 1.0
C      1  0.4117760000000  0.5150530000000  0.4600400000000 1.0
C      1  0.4112110000000  0.4854170000000  0.5402000000000 1.0
C      1  0.5164990000000  0.4470530000000  0.4990780000000 1.0
C      1  0.5167940000000  0.5549360000000  0.4986710000000 1.0
C      1  0.4832090000000  0.4450800000000  0.5012610000000 1.0
C      1  0.4835150000000  0.5529220000000  0.5009830000000 1.0
C      1  0.4698090000000  0.4764250000000  0.5134430000000 1.0
C      1  0.4707860000000  0.5222020000000  0.4871910000000 1.0
C      1  0.5292070000000  0.4778020000000  0.5128270000000 1.0
C      1  0.5301830000000  0.5235650000000  0.4865320000000 1.0
C      1  0.4862100000000  0.4713960000000  0.4654060000000 1.0
C      1  0.4857280000000  0.5235060000000  0.5382500000000 1.0
C      1  0.5142830000000  0.4764020000000  0.4618000000000 1.0
C      1  0.5137690000000  0.5286590000000  0.5344920000000 1.0
C      1  0.4438360000000  0.5234910000000  0.5360930000000 1.0
C      1  0.4445960000000  0.4764600000000  0.4634280000000 1.0
C      1  0.5553690000000  0.5235440000000  0.5365810000000 1.0
C      1  0.5561780000000  0.4765130000000  0.4639140000000 1.0
C      1  0.4495780000000  0.5105920000000  0.5624310000000 1.0
C      1  0.4499480000000  0.4895010000000  0.4373000000000 1.0
C      1  0.5500360000000  0.5105080000000  0.5627070000000 1.0
C      1  0.5504260000000  0.4894060000000  0.4375730000000 1.0
C      1  0.5154280000000  0.4789760000000  0.5417920000000 1.0
C      1  0.5158360000000  0.5217300000000  0.4578190000000 1.0
C      1  0.4841500000000  0.4782670000000  0.5421660000000 1.0
C      1  0.4845590000000  0.5210250000000  0.4582200000000 1.0
C      1  0.4608810000000  0.5173090000000  0.4379170000000 1.0
C      1  0.4603290000000  0.4827230000000  0.5621480000000 1.0
C      1  0.5396710000000  0.5172720000000  0.4378460000000 1.0
C      1  0.5391160000000  0.4826940000000  0.5620910000000 1.0
C      1  0.5600390000000  0.5340710000000  0.4833700000000 1.0
C      1  0.5588550000000  0.4663100000000  0.5165010000000 1.0
C      1  0.4411450000000  0.5337040000000  0.4835060000000 1.0
C      1  0.4399600000000  0.4659190000000  0.5166300000000 1.0
C      1  0.4150880000000  0.4872650000000  0.5083850000000 1.0
C      1  0.4155460000000  0.5129360000000  0.4917710000000 1.0
C      1  0.5844530000000  0.4870690000000  0.5082340000000 1.0
C      1  0.5849100000000  0.5127340000000  0.4916150000000 1.0
C      1  0.4813960000000  0.4401150000000  0.4656830000000 1.0
C      1  0.4824560000000  0.5565420000000  0.5365100000000 1.0
C      1  0.5175550000000  0.4434130000000  0.4635450000000 1.0
C      1  0.5186150000000  0.5599460000000  0.5342490000000 1.0
END
