TITL C-3985246-2097-158 0.0011050388203905 125000 -319.771149388975 0 0 60 (C1) n - 1
REM
REM in /home/nfs/bkarasulu/CARBON/AIRSS/Generating-Clusters/TERSOFF/Higher-Symm/Only-C60
REM
REM
REM
REM
REM
REM ./C.cell (28575a23ae977d3b5fae324c64b13b57)
REM
REM compiler GCC version 9.2.1 20190827 (Red Hat 9.2.1-1)
REM options -cpp -mtune=generic -march=x86-64 -g -O0 -fpre-include=/usr/include/finclude/math-vector-fortran.h
REM seed 877272474 -1918084316 57279643 -1861985962 564949771 1710007199 -62095090 2093483779 -1097207417 -1876908660 -1569601976 514986586 1510560155 -2091699309 -163015642 -668476063 -1479716689 884307715 516431505 -367475544 1472975552 -1830680291 -496360901 -861686576 -2065783947 1734015091 1096847251 -117808001 1205436541 -474557813 -1649397343 1603249447 514365889
REM
CELL 1.54180   50.00000   50.00000   50.00000   90.00000   90.00000   90.00000
LATT -1
SFAC C  
C      1  0.5541420000000  0.5516540000000  0.5290510000000 1.0
C      1  0.5556840000000  0.4513760000000  0.5297260000000 1.0
C      1  0.5548430000000  0.4979790000000  0.4367240000000 1.0
C      1  0.4598150000000  0.4953270000000  0.5563800000000 1.0
C      1  0.4608010000000  0.4539740000000  0.4683810000000 1.0
C      1  0.4611360000000  0.5502880000000  0.4756600000000 1.0
C      1  0.5320130000000  0.5280600000000  0.4549220000000 1.0
C      1  0.5313490000000  0.5249380000000  0.5519460000000 1.0
C      1  0.5311500000000  0.4486730000000  0.4958450000000 1.0
C      1  0.4921520000000  0.4756400000000  0.4860360000000 1.0
C      1  0.4921600000000  0.5241840000000  0.4865740000000 1.0
C      1  0.4915010000000  0.5022740000000  0.5297680000000 1.0
C      1  0.4570130000000  0.4968740000000  0.4355020000000 1.0
C      1  0.4574370000000  0.5586680000000  0.5291980000000 1.0
C      1  0.4581510000000  0.4452260000000  0.5349730000000 1.0
C      1  0.5280990000000  0.5560760000000  0.5486170000000 1.0
C      1  0.5296590000000  0.4328120000000  0.5228110000000 1.0
C      1  0.5283200000000  0.5140930000000  0.4272600000000 1.0
C      1  0.5020380000000  0.5629060000000  0.5382130000000 1.0
C      1  0.5033550000000  0.4361540000000  0.5347680000000 1.0
C      1  0.5017300000000  0.5017710000000  0.4252380000000 1.0
C      1  0.4693870000000  0.5650020000000  0.5010330000000 1.0
C      1  0.4689580000000  0.4659760000000  0.5556390000000 1.0
C      1  0.4680700000000  0.4686440000000  0.4425180000000 1.0
C      1  0.5625380000000  0.5212410000000  0.4632140000000 1.0
C      1  0.5626410000000  0.5237900000000  0.5452220000000 1.0
C      1  0.5625940000000  0.4562630000000  0.4967840000000 1.0
C      1  0.5195770000000  0.4796940000000  0.5553660000000 1.0
C      1  0.5190810000000  0.4616510000000  0.4513510000000 1.0
C      1  0.5198240000000  0.5554780000000  0.4910260000000 1.0
C      1  0.5613190000000  0.5016010000000  0.5257490000000 1.0
C      1  0.5584380000000  0.4820650000000  0.4820000000000 1.0
C      1  0.5632680000000  0.5108090000000  0.4943780000000 1.0
C      1  0.4783760000000  0.5191380000000  0.4342530000000 1.0
C      1  0.4779680000000  0.5479750000000  0.5500360000000 1.0
C      1  0.4795820000000  0.4337450000000  0.5158120000000 1.0
C      1  0.4639390000000  0.4949960000000  0.4767520000000 1.0
C      1  0.4628900000000  0.5232120000000  0.5076710000000 1.0
C      1  0.4645700000000  0.4823650000000  0.5167240000000 1.0
C      1  0.5131580000000  0.4417780000000  0.4728950000000 1.0
C      1  0.5139580000000  0.5506630000000  0.4623870000000 1.0
C      1  0.5120660000000  0.5068250000000  0.5660820000000 1.0
C      1  0.5413490000000  0.4785150000000  0.5323080000000 1.0
C      1  0.5383200000000  0.4833240000000  0.4593810000000 1.0
C      1  0.5396520000000  0.5359830000000  0.5051540000000 1.0
C      1  0.4459310000000  0.5236390000000  0.4808600000000 1.0
C      1  0.4455080000000  0.5045160000000  0.5300200000000 1.0
C      1  0.4460580000000  0.4718080000000  0.4894450000000 1.0
C      1  0.4974330000000  0.4727020000000  0.4343950000000 1.0
C      1  0.4989530000000  0.5673540000000  0.5085540000000 1.0
C      1  0.4989350000000  0.4585180000000  0.5545280000000 1.0
C      1  0.4844430000000  0.4439650000000  0.4863150000000 1.0
C      1  0.4842010000000  0.5394730000000  0.4575710000000 1.0
C      1  0.4828110000000  0.5170610000000  0.5570850000000 1.0
C      1  0.5194060000000  0.5066020000000  0.4782710000000 1.0
C      1  0.5204400000000  0.5126990000000  0.5200210000000 1.0
C      1  0.5214030000000  0.4826470000000  0.5025950000000 1.0
C      1  0.4164810000000  0.5036320000000  0.5282820000000 1.0
C      1  0.4170260000000  0.4728670000000  0.4901560000000 1.0
C      1  0.4168950000000  0.5228370000000  0.4805750000000 1.0
END
