TITL C-3985251-913-627 -0.000193587346336046 125000 -336.176035784746 0 0 60 (Cs) n - 1
REM
REM in /home/nfs/bkarasulu/CARBON/AIRSS/Generating-Clusters/TERSOFF/Higher-Symm/Only-C60
REM
REM
REM
REM
REM
REM ./C.cell (28575a23ae977d3b5fae324c64b13b57)
REM
REM compiler GCC version 9.2.1 20190827 (Red Hat 9.2.1-1)
REM options -cpp -mtune=generic -march=x86-64 -g -O0 -fpre-include=/usr/include/finclude/math-vector-fortran.h
REM seed -902809113 -807199775 -1267743616 -1291058966 1304945891 2010479104 1637745657 654980894 -1636090706 -907757725 -872409228 -297296635 -1408377688 1031469123 -2080297285 -1994824540 -1106829690 -1619979082 1299092071 163441104 1076124769 -1439035642 1588378182 -1211883800 1795397473 -640752966 -185288381 -1346260678 -1161318563 -161429453 1405831463 -873022909 -1408016347
REM
CELL 1.54180   50.00000   50.00000   50.00000   90.00000   90.00000   90.00000
LATT -1
SFAC C  
C      1  0.4500080000000  0.5235750000000  0.4729000000000 1.0
C      1  0.4500080000000  0.5235740000000  0.5262730000000 1.0
C      1  0.5048950000000  0.5102610000000  0.5528650000000 1.0
C      1  0.5048960000000  0.5102620000000  0.4463150000000 1.0
C      1  0.5515050000000  0.4417600000000  0.5157170000000 1.0
C      1  0.5515040000000  0.4417580000000  0.4834600000000 1.0
C      1  0.5018810000000  0.4661910000000  0.5482150000000 1.0
C      1  0.5018810000000  0.4661900000000  0.4509630000000 1.0
C      1  0.5307080000000  0.5386140000000  0.5261110000000 1.0
C      1  0.5307060000000  0.5386080000000  0.4730640000000 1.0
C      1  0.4602010000000  0.4512640000000  0.4749690000000 1.0
C      1  0.4601970000000  0.4512670000000  0.5242060000000 1.0
C      1  0.4927080000000  0.5626510000000  0.4463730000000 1.0
C      1  0.4927050000000  0.5626590000000  0.5527990000000 1.0
C      1  0.4803780000000  0.5160400000000  0.4304630000000 1.0
C      1  0.4803800000000  0.5160480000000  0.5687110000000 1.0
C      1  0.4314280000000  0.4542680000000  0.4765320000000 1.0
C      1  0.4314240000000  0.4542730000000  0.5226370000000 1.0
C      1  0.5231990000000  0.5646230000000  0.5446570000000 1.0
C      1  0.5231980000000  0.5646060000000  0.4545110000000 1.0
C      1  0.4894210000000  0.5466530000000  0.4718350000000 1.0
C      1  0.4894190000000  0.5466550000000  0.5273420000000 1.0
C      1  0.4641520000000  0.5040470000000  0.5448260000000 1.0
C      1  0.4641450000000  0.5040430000000  0.4543510000000 1.0
C      1  0.5052430000000  0.5215240000000  0.5258570000000 1.0
C      1  0.5052410000000  0.5215170000000  0.4733170000000 1.0
C      1  0.5532860000000  0.5176800000000  0.5260650000000 1.0
C      1  0.5532860000000  0.5176770000000  0.4731110000000 1.0
C      1  0.5470700000000  0.4904460000000  0.4585650000000 1.0
C      1  0.5470710000000  0.4904470000000  0.5406110000000 1.0
C      1  0.5237810000000  0.4274370000000  0.4771410000000 1.0
C      1  0.5237820000000  0.4274390000000  0.5220380000000 1.0
C      1  0.5403870000000  0.4702200000000  0.4786170000000 1.0
C      1  0.5403900000000  0.4702230000000  0.5205600000000 1.0
C      1  0.5213030000000  0.4873900000000  0.5571200000000 1.0
C      1  0.5213050000000  0.4873810000000  0.4420550000000 1.0
C      1  0.5103290000000  0.4383260000000  0.4528430000000 1.0
C      1  0.5103300000000  0.4383300000000  0.5463360000000 1.0
C      1  0.5301580000000  0.5883040000000  0.4711010000000 1.0
C      1  0.5301430000000  0.5883130000000  0.5280530000000 1.0
C      1  0.4812210000000  0.5452230000000  0.4252620000000 1.0
C      1  0.4812230000000  0.5452300000000  0.5739130000000 1.0
C      1  0.4760210000000  0.4758950000000  0.5335650000000 1.0
C      1  0.4760220000000  0.4758930000000  0.4656150000000 1.0
C      1  0.5673400000000  0.5160040000000  0.4995870000000 1.0
C      1  0.4737580000000  0.4397070000000  0.4995890000000 1.0
C      1  0.3925060000000  0.4775900000000  0.4995770000000 1.0
C      1  0.5406310000000  0.5836970000000  0.4995800000000 1.0
C      1  0.5054150000000  0.4469460000000  0.4995890000000 1.0
C      1  0.4421900000000  0.4921150000000  0.4995870000000 1.0
C      1  0.5185160000000  0.4768720000000  0.4995880000000 1.0
C      1  0.4206720000000  0.4699650000000  0.4995820000000 1.0
C      1  0.4867860000000  0.5591340000000  0.4995860000000 1.0
C      1  0.5234420000000  0.5552170000000  0.4995860000000 1.0
C      1  0.5702550000000  0.5831190000000  0.4995900000000 1.0
C      1  0.4740670000000  0.4868930000000  0.4995900000000 1.0
C      1  0.5015070000000  0.5036340000000  0.4995900000000 1.0
C      1  0.4815280000000  0.4101560000000  0.4995910000000 1.0
C      1  0.5111410000000  0.4054010000000  0.4995910000000 1.0
C      1  0.4606010000000  0.5340150000000  0.4995830000000 1.0
END
