TITL C-3985253-1688-102 0.00352192416391961 125000 -319.97538912504 0 0 60 (C1) n - 1
REM
REM in /home/nfs/bkarasulu/CARBON/AIRSS/Generating-Clusters/TERSOFF/Higher-Symm/Only-C60
REM
REM
REM
REM
REM
REM ./C.cell (28575a23ae977d3b5fae324c64b13b57)
REM
REM compiler GCC version 9.2.1 20190827 (Red Hat 9.2.1-1)
REM options -cpp -mtune=generic -march=x86-64 -g -O0 -fpre-include=/usr/include/finclude/math-vector-fortran.h
REM seed 1178716160 1750180689 -452809717 1728954826 -106143562 1015919178 -966069970 1467937478 309008773 905707361 622674822 666486207 1345030531 -4178481 -79209125 545496930 -674002883 -1990560516 -37753281 -975737957 -1251846035 927751714 707959831 1679409266 1609696462 24843439 -2101310244 644160346 -152022305 696498800 -2146571349 -1152712339 -733775528
REM
CELL 1.54180   50.00000   50.00000   50.00000   90.00000   90.00000   90.00000
LATT -1
SFAC C  
C      1  0.5233990000000  0.4321900000000  0.4676910000000 1.0
C      1  0.5538170000000  0.4850780000000  0.4519550000000 1.0
C      1  0.5316810000000  0.4447480000000  0.4422990000000 1.0
C      1  0.4432450000000  0.5312120000000  0.4672710000000 1.0
C      1  0.4530900000000  0.4670250000000  0.4665710000000 1.0
C      1  0.5112330000000  0.5066280000000  0.4440910000000 1.0
C      1  0.5596180000000  0.4997140000000  0.5320940000000 1.0
C      1  0.5492430000000  0.5339170000000  0.5368340000000 1.0
C      1  0.4502940000000  0.5215880000000  0.5203210000000 1.0
C      1  0.5145600000000  0.5090610000000  0.5608520000000 1.0
C      1  0.5065890000000  0.4411160000000  0.5303720000000 1.0
C      1  0.4516480000000  0.4681660000000  0.5224140000000 1.0
C      1  0.4940870000000  0.4380670000000  0.4794780000000 1.0
C      1  0.5047480000000  0.5570190000000  0.5473270000000 1.0
C      1  0.4788390000000  0.5428640000000  0.5574060000000 1.0
C      1  0.4754530000000  0.4292770000000  0.5039350000000 1.0
C      1  0.4973470000000  0.5364580000000  0.4950300000000 1.0
C      1  0.4768310000000  0.5204370000000  0.4788260000000 1.0
C      1  0.4588910000000  0.5175550000000  0.4411050000000 1.0
C      1  0.5100050000000  0.4652630000000  0.5688630000000 1.0
C      1  0.5428270000000  0.4981920000000  0.5603110000000 1.0
C      1  0.5587790000000  0.5210460000000  0.4824080000000 1.0
C      1  0.4927020000000  0.5670800000000  0.4916350000000 1.0
C      1  0.5390660000000  0.5507280000000  0.5133310000000 1.0
C      1  0.4848130000000  0.5241200000000  0.5198710000000 1.0
C      1  0.4731430000000  0.4457360000000  0.5329540000000 1.0
C      1  0.5251110000000  0.5029430000000  0.5082590000000 1.0
C      1  0.4198520000000  0.5151210000000  0.4761880000000 1.0
C      1  0.4519170000000  0.4937820000000  0.5375980000000 1.0
C      1  0.4814070000000  0.4658210000000  0.5616280000000 1.0
C      1  0.4854400000000  0.5155100000000  0.5687710000000 1.0
C      1  0.4637070000000  0.5687570000000  0.4973370000000 1.0
C      1  0.5342120000000  0.5269120000000  0.4425360000000 1.0
C      1  0.5261890000000  0.5369530000000  0.5557000000000 1.0
C      1  0.5269290000000  0.4534730000000  0.5482830000000 1.0
C      1  0.5263920000000  0.4751040000000  0.4345050000000 1.0
C      1  0.5039900000000  0.4846500000000  0.4686750000000 1.0
C      1  0.5134210000000  0.5672810000000  0.5185230000000 1.0
C      1  0.5260610000000  0.4785270000000  0.4905350000000 1.0
C      1  0.5398170000000  0.4366320000000  0.4933780000000 1.0
C      1  0.4412650000000  0.4739860000000  0.4942680000000 1.0
C      1  0.4830080000000  0.4591440000000  0.4615580000000 1.0
C      1  0.4607250000000  0.4874120000000  0.4399600000000 1.0
C      1  0.4472750000000  0.5447780000000  0.4960080000000 1.0
C      1  0.5582840000000  0.5150160000000  0.4533880000000 1.0
C      1  0.4681220000000  0.4924390000000  0.5619040000000 1.0
C      1  0.4801790000000  0.4918830000000  0.4875960000000 1.0
C      1  0.4913510000000  0.4707260000000  0.4311630000000 1.0
C      1  0.5308310000000  0.5297320000000  0.4940500000000 1.0
C      1  0.4911630000000  0.4788950000000  0.5138340000000 1.0
C      1  0.4544870000000  0.5434200000000  0.5420190000000 1.0
C      1  0.4986320000000  0.5579230000000  0.4589500000000 1.0
C      1  0.5512840000000  0.4662010000000  0.5344990000000 1.0
C      1  0.5124270000000  0.4522780000000  0.5033860000000 1.0
C      1  0.5264650000000  0.5543810000000  0.4489830000000 1.0
C      1  0.5543480000000  0.4764450000000  0.4811600000000 1.0
C      1  0.4305870000000  0.5014120000000  0.4992670000000 1.0
C      1  0.4874610000000  0.5276790000000  0.4496710000000 1.0
C      1  0.5680900000000  0.4978580000000  0.5001840000000 1.0
C      1  0.5036240000000  0.5026400000000  0.5309920000000 1.0
END
