TITL C-3985248-2097-135 -2.45964459312392e-07 125000 -349.337721423668 0 0 60 (D2h) n - 1
REM
REM in /home/nfs/bkarasulu/CARBON/AIRSS/Generating-Clusters/TERSOFF/Higher-Symm/Only-C60
REM
REM
REM
REM
REM
REM ./C.cell (28575a23ae977d3b5fae324c64b13b57)
REM
REM compiler GCC version 9.2.1 20190827 (Red Hat 9.2.1-1)
REM options -cpp -mtune=generic -march=x86-64 -g -O0 -fpre-include=/usr/include/finclude/math-vector-fortran.h
REM seed 1588831233 -1848457339 437010894 -1840712657 66156586 -207106865 -493222277 -1100842023 -795076772 1089843103 93602271 -1315560714 72179623 -1362332973 1209451454 -1299292421 179368969 2121864960 1506641472 1679561404 -1435082655 -1629975640 -1322111678 -2095736630 447669530 259536388 1707763003 486825355 -1691758901 2015245147 -380403225 2043346456 778381087
REM
CELL 1.54180   50.00000   50.00000   50.00000   90.00000   90.00000   90.00000
LATT -1
SFAC C  
C      1  0.4315250000000  0.4858330000000  0.5261150000000 1.0
C      1  0.5684750000000  0.4858330000000  0.4738850000000 1.0
C      1  0.4315250000000  0.5141670000000  0.5261150000000 1.0
C      1  0.5684750000000  0.5141670000000  0.4738850000000 1.0
C      1  0.4315250000000  0.4858330000000  0.4738850000000 1.0
C      1  0.5684750000000  0.4858330000000  0.5261150000000 1.0
C      1  0.4315250000000  0.5141670000000  0.4738850000000 1.0
C      1  0.5684750000000  0.5141670000000  0.5261150000000 1.0
C      1  0.5439080000000  0.4705590000000  0.5281020000000 1.0
C      1  0.4560920000000  0.4705590000000  0.4718980000000 1.0
C      1  0.5439080000000  0.5294410000000  0.5281020000000 1.0
C      1  0.4560920000000  0.5294410000000  0.4718980000000 1.0
C      1  0.5439080000000  0.4705590000000  0.4718980000000 1.0
C      1  0.4560920000000  0.4705590000000  0.5281020000000 1.0
C      1  0.5439080000000  0.5294410000000  0.4718980000000 1.0
C      1  0.4560920000000  0.5294410000000  0.5281020000000 1.0
C      1  0.5286400000000  0.5269970000000  0.4445870000000 1.0
C      1  0.4713600000000  0.5269970000000  0.5554130000000 1.0
C      1  0.5286400000000  0.4730030000000  0.4445870000000 1.0
C      1  0.4713600000000  0.4730030000000  0.5554130000000 1.0
C      1  0.5286400000000  0.5269970000000  0.5554130000000 1.0
C      1  0.4713600000000  0.5269970000000  0.4445870000000 1.0
C      1  0.5286400000000  0.4730030000000  0.5554130000000 1.0
C      1  0.4713600000000  0.4730030000000  0.4445870000000 1.0
C      1  0.5440730000000  0.4426940000000  0.5153580000000 1.0
C      1  0.4559270000000  0.4426940000000  0.4846420000000 1.0
C      1  0.5440730000000  0.5573060000000  0.5153580000000 1.0
C      1  0.4559270000000  0.5573060000000  0.4846420000000 1.0
C      1  0.5440730000000  0.4426940000000  0.4846420000000 1.0
C      1  0.4559270000000  0.4426940000000  0.5153580000000 1.0
C      1  0.5440730000000  0.5573060000000  0.4846420000000 1.0
C      1  0.4559270000000  0.5573060000000  0.5153580000000 1.0
C      1  0.5144640000000  0.5544100000000  0.4441930000000 1.0
C      1  0.4855360000000  0.5544100000000  0.5558070000000 1.0
C      1  0.5144640000000  0.4455900000000  0.4441930000000 1.0
C      1  0.4855360000000  0.4455900000000  0.5558070000000 1.0
C      1  0.5144640000000  0.5544100000000  0.5558070000000 1.0
C      1  0.4855360000000  0.5544100000000  0.4441930000000 1.0
C      1  0.5144640000000  0.4455900000000  0.5558070000000 1.0
C      1  0.4855360000000  0.4455900000000  0.4441930000000 1.0
C      1  0.5271860000000  0.4278900000000  0.4650410000000 1.0
C      1  0.4728140000000  0.4278900000000  0.5349590000000 1.0
C      1  0.5271860000000  0.5721100000000  0.4650410000000 1.0
C      1  0.4728140000000  0.5721100000000  0.5349590000000 1.0
C      1  0.5271860000000  0.4278900000000  0.5349590000000 1.0
C      1  0.4728140000000  0.4278900000000  0.4650410000000 1.0
C      1  0.5271860000000  0.5721100000000  0.5349590000000 1.0
C      1  0.4728140000000  0.5721100000000  0.4650410000000 1.0
C      1  0.5178970000000  0.4838850000000  0.5160060000000 1.0
C      1  0.4821030000000  0.4838850000000  0.4839940000000 1.0
C      1  0.5178970000000  0.5161150000000  0.5160060000000 1.0
C      1  0.4821030000000  0.5161150000000  0.4839940000000 1.0
C      1  0.5178970000000  0.4838850000000  0.4839940000000 1.0
C      1  0.4821030000000  0.4838850000000  0.5160060000000 1.0
C      1  0.5178970000000  0.5161150000000  0.4839940000000 1.0
C      1  0.4821030000000  0.5161150000000  0.5160060000000 1.0
C      1  0.4852540000000  0.5000000000000  0.5617600000000 1.0
C      1  0.5147460000000  0.5000000000000  0.4382400000000 1.0
C      1  0.5147460000000  0.5000000000000  0.5617600000000 1.0
C      1  0.4852540000000  0.5000000000000  0.4382400000000 1.0
END
