TITL C-3985254-1270-936 -1.58420620593257e-07 125000 -366.487006369926 0 0 60 (Td) n - 1
REM
REM in /home/nfs/bkarasulu/CARBON/AIRSS/Generating-Clusters/TERSOFF/Higher-Symm/Only-C60
REM
REM
REM
REM
REM
REM ./C.cell (28575a23ae977d3b5fae324c64b13b57)
REM
REM compiler GCC version 9.2.1 20190827 (Red Hat 9.2.1-1)
REM options -cpp -mtune=generic -march=x86-64 -g -O0 -fpre-include=/usr/include/finclude/math-vector-fortran.h
REM seed 788226454 155314558 872175980 -165950944 -747834175 -409789601 -49912718 445775889 -511252178 -387033924 -1142083807 -1091480800 -1598362197 -1563489718 491576879 -1975282367 619280706 875500735 100609649 312720193 1387029925 610577516 -1185912927 1950741089 -1941938869 -1905484 -461854705 567068358 7287774 945753180 -1622835710 549125388 2074824557
REM
CELL 1.54180   50.00000   50.00000   50.00000   90.00000   90.00000   90.00000
LATT -1
SFAC C  
C      1  0.5130400000000  0.5706290000000  0.5337750000000 1.0
C      1  0.5706290000000  0.5337750000000  0.5130400000000 1.0
C      1  0.5337750000000  0.5130400000000  0.5706290000000 1.0
C      1  0.4869600000000  0.5706290000000  0.4662250000000 1.0
C      1  0.4869600000000  0.4293710000000  0.5337750000000 1.0
C      1  0.5130400000000  0.4293710000000  0.4662250000000 1.0
C      1  0.4293710000000  0.5337750000000  0.4869600000000 1.0
C      1  0.4293710000000  0.4662250000000  0.5130400000000 1.0
C      1  0.5706290000000  0.4662250000000  0.4869600000000 1.0
C      1  0.4662250000000  0.5130400000000  0.4293710000000 1.0
C      1  0.4662250000000  0.4869600000000  0.5706290000000 1.0
C      1  0.5337750000000  0.4869600000000  0.4293710000000 1.0
C      1  0.5337750000000  0.5706290000000  0.5130400000000 1.0
C      1  0.5130400000000  0.5337750000000  0.5706290000000 1.0
C      1  0.5706290000000  0.5130400000000  0.5337750000000 1.0
C      1  0.4662250000000  0.5706290000000  0.4869600000000 1.0
C      1  0.5337750000000  0.4293710000000  0.4869600000000 1.0
C      1  0.4662250000000  0.4293710000000  0.5130400000000 1.0
C      1  0.4869600000000  0.5337750000000  0.4293710000000 1.0
C      1  0.5130400000000  0.4662250000000  0.4293710000000 1.0
C      1  0.4869600000000  0.4662250000000  0.5706290000000 1.0
C      1  0.4293710000000  0.5130400000000  0.4662250000000 1.0
C      1  0.5706290000000  0.4869600000000  0.4662250000000 1.0
C      1  0.4293710000000  0.4869600000000  0.5337750000000 1.0
C      1  0.5109360000000  0.4684550000000  0.5522990000000 1.0
C      1  0.4684550000000  0.5522990000000  0.5109360000000 1.0
C      1  0.5522990000000  0.5109360000000  0.4684550000000 1.0
C      1  0.4890640000000  0.4684550000000  0.4477010000000 1.0
C      1  0.4890640000000  0.5315450000000  0.5522990000000 1.0
C      1  0.5109360000000  0.5315450000000  0.4477010000000 1.0
C      1  0.5315450000000  0.5522990000000  0.4890640000000 1.0
C      1  0.5315450000000  0.4477010000000  0.5109360000000 1.0
C      1  0.4684550000000  0.4477010000000  0.4890640000000 1.0
C      1  0.4477010000000  0.5109360000000  0.5315450000000 1.0
C      1  0.4477010000000  0.4890640000000  0.4684550000000 1.0
C      1  0.5522990000000  0.4890640000000  0.5315450000000 1.0
C      1  0.5522990000000  0.4684550000000  0.5109360000000 1.0
C      1  0.5109360000000  0.5522990000000  0.4684550000000 1.0
C      1  0.4684550000000  0.5109360000000  0.5522990000000 1.0
C      1  0.4477010000000  0.4684550000000  0.4890640000000 1.0
C      1  0.5522990000000  0.5315450000000  0.4890640000000 1.0
C      1  0.4477010000000  0.5315450000000  0.5109360000000 1.0
C      1  0.4890640000000  0.5522990000000  0.5315450000000 1.0
C      1  0.5109360000000  0.4477010000000  0.5315450000000 1.0
C      1  0.4890640000000  0.4477010000000  0.4684550000000 1.0
C      1  0.5315450000000  0.5109360000000  0.4477010000000 1.0
C      1  0.4684550000000  0.4890640000000  0.4477010000000 1.0
C      1  0.5315450000000  0.4890640000000  0.5522990000000 1.0
C      1  0.4380540000000  0.4380540000000  0.5213080000000 1.0
C      1  0.4380540000000  0.5213080000000  0.4380540000000 1.0
C      1  0.5213080000000  0.4380540000000  0.4380540000000 1.0
C      1  0.5619460000000  0.4380540000000  0.4786920000000 1.0
C      1  0.4380540000000  0.5619460000000  0.4786920000000 1.0
C      1  0.5619460000000  0.4786920000000  0.4380540000000 1.0
C      1  0.4786920000000  0.4380540000000  0.5619460000000 1.0
C      1  0.4786920000000  0.5619460000000  0.4380540000000 1.0
C      1  0.4380540000000  0.4786920000000  0.5619460000000 1.0
C      1  0.5619460000000  0.5213080000000  0.5619460000000 1.0
C      1  0.5213080000000  0.5619460000000  0.5619460000000 1.0
C      1  0.5619460000000  0.5619460000000  0.5213080000000 1.0
END
