TITL C-3985248-2097-147 8.47489858467964e-08 125000 -361.350439073414 0 0 60 (C4) n - 1
REM
REM in /home/nfs/bkarasulu/CARBON/AIRSS/Generating-Clusters/TERSOFF/Higher-Symm/Only-C60
REM
REM
REM
REM
REM
REM ./C.cell (28575a23ae977d3b5fae324c64b13b57)
REM
REM compiler GCC version 9.2.1 20190827 (Red Hat 9.2.1-1)
REM options -cpp -mtune=generic -march=x86-64 -g -O0 -fpre-include=/usr/include/finclude/math-vector-fortran.h
REM seed -421571687 -1903518984 -1945049471 -747568693 -953297367 -255519116 -1858506357 -1376447005 -133108039 1161427703 -1428435394 -1560449582 1385327605 843409894 -992963413 -1418720231 178918699 -1519557246 -39838466 1508921123 -519727364 -170652069 -1919870806 1789094610 1278248522 1629867932 -516685575 -1741986463 855322902 -970473359 -383686753 -234268400 -1948178522
REM
CELL 1.54180   50.00000   50.00000   50.00000   90.00000   90.00000   90.00000
LATT -1
SFAC C  
C      1  0.5627160000000  0.5233160000000  0.4694560000000 1.0
C      1  0.5627160000000  0.5305440000000  0.5233160000000 1.0
C      1  0.5627160000000  0.4766840000000  0.5305440000000 1.0
C      1  0.5627160000000  0.4694560000000  0.4766840000000 1.0
C      1  0.5210740000000  0.5148520000000  0.5442760000000 1.0
C      1  0.5210740000000  0.4557240000000  0.5148520000000 1.0
C      1  0.5210740000000  0.4851480000000  0.4557240000000 1.0
C      1  0.5210740000000  0.5442760000000  0.4851480000000 1.0
C      1  0.5382050000000  0.5198930000000  0.4876530000000 1.0
C      1  0.5382050000000  0.5123470000000  0.5198930000000 1.0
C      1  0.5382050000000  0.4801070000000  0.5123470000000 1.0
C      1  0.5382050000000  0.4876530000000  0.4801070000000 1.0
C      1  0.4602830000000  0.5088430000000  0.4540610000000 1.0
C      1  0.4602830000000  0.5459390000000  0.5088430000000 1.0
C      1  0.4602830000000  0.4911570000000  0.5459390000000 1.0
C      1  0.4602830000000  0.4540610000000  0.4911570000000 1.0
C      1  0.4766270000000  0.4794330000000  0.5673300000000 1.0
C      1  0.4766270000000  0.4326700000000  0.4794330000000 1.0
C      1  0.4766270000000  0.5205670000000  0.4326700000000 1.0
C      1  0.4766270000000  0.5673300000000  0.5205670000000 1.0
C      1  0.5881510000000  0.5131770000000  0.4813950000000 1.0
C      1  0.5881510000000  0.5186050000000  0.5131770000000 1.0
C      1  0.5881510000000  0.4868230000000  0.5186050000000 1.0
C      1  0.5881510000000  0.4813950000000  0.4868230000000 1.0
C      1  0.5028080000000  0.4618630000000  0.4509040000000 1.0
C      1  0.5028080000000  0.5490960000000  0.4618630000000 1.0
C      1  0.5028080000000  0.5381370000000  0.5490960000000 1.0
C      1  0.5028080000000  0.4509040000000  0.5381370000000 1.0
C      1  0.4401220000000  0.5273670000000  0.4670300000000 1.0
C      1  0.4401220000000  0.5329700000000  0.5273670000000 1.0
C      1  0.4401220000000  0.4726330000000  0.5329700000000 1.0
C      1  0.4401220000000  0.4670300000000  0.4726330000000 1.0
C      1  0.5033710000000  0.5295700000000  0.4390250000000 1.0
C      1  0.5033710000000  0.5609750000000  0.5295700000000 1.0
C      1  0.5033710000000  0.4704300000000  0.5609750000000 1.0
C      1  0.5033710000000  0.4390250000000  0.4704300000000 1.0
C      1  0.4790690000000  0.4956740000000  0.5221240000000 1.0
C      1  0.4790690000000  0.4778760000000  0.4956740000000 1.0
C      1  0.4790690000000  0.5043260000000  0.4778760000000 1.0
C      1  0.4790690000000  0.5221240000000  0.5043260000000 1.0
C      1  0.4768390000000  0.4658980000000  0.4371910000000 1.0
C      1  0.4768390000000  0.5628090000000  0.4658980000000 1.0
C      1  0.4768390000000  0.5341020000000  0.5628090000000 1.0
C      1  0.4768390000000  0.4371910000000  0.5341020000000 1.0
C      1  0.4537330000000  0.5506560000000  0.4799070000000 1.0
C      1  0.4537330000000  0.5200930000000  0.5506560000000 1.0
C      1  0.4537330000000  0.4493440000000  0.5200930000000 1.0
C      1  0.4537330000000  0.4799070000000  0.4493440000000 1.0
C      1  0.5250860000000  0.4379470000000  0.4907260000000 1.0
C      1  0.5250860000000  0.5092740000000  0.4379470000000 1.0
C      1  0.5250860000000  0.5620530000000  0.5092740000000 1.0
C      1  0.5250860000000  0.4907260000000  0.5620530000000 1.0
C      1  0.4186440000000  0.5174870000000  0.5143890000000 1.0
C      1  0.4186440000000  0.4856110000000  0.5174870000000 1.0
C      1  0.4186440000000  0.4825130000000  0.4856110000000 1.0
C      1  0.4186440000000  0.5143890000000  0.4825130000000 1.0
C      1  0.5532720000000  0.4808430000000  0.5584360000000 1.0
C      1  0.5532720000000  0.4415640000000  0.4808430000000 1.0
C      1  0.5532720000000  0.5191570000000  0.4415640000000 1.0
C      1  0.5532720000000  0.5584360000000  0.5191570000000 1.0
END
