TITL C-3985245-9316-861 -0.00331381595505365 125000 -302.808231733169 0 0 60 (C5) n - 1
REM
REM in /home/nfs/bkarasulu/CARBON/AIRSS/Generating-Clusters/TERSOFF/Higher-Symm/Only-C60
REM
REM
REM
REM
REM
REM ./C.cell (28575a23ae977d3b5fae324c64b13b57)
REM
REM compiler GCC version 9.2.1 20190827 (Red Hat 9.2.1-1)
REM options -cpp -mtune=generic -march=x86-64 -g -O0 -fpre-include=/usr/include/finclude/math-vector-fortran.h
REM seed 1740315419 1621396516 -2058337244 823983134 -564502096 1246768497 201467969 387474493 -1912421784 240472904 1808557969 -909767248 1723588336 105531957 632462449 2008884822 2006333718 -1720219006 405753459 1946850553 -2020200986 -838139355 236948940 364858128 1501921618 -56212201 982209254 -186209109 1447202229 16520814 -946188187 598460821 1372162403
REM
CELL 1.54180   50.00000   50.00000   50.00000   90.00000   90.00000   90.00000
LATT -1
SFAC C  
C      1  0.4699200000000  0.5454170000000  0.4384880000000 1.0
C      1  0.4699080000000  0.5725310000000  0.5242010000000 1.0
C      1  0.4699190000000  0.4994330000000  0.5764550000000 1.0
C      1  0.4699130000000  0.4271240000000  0.5230770000000 1.0
C      1  0.4699120000000  0.4555210000000  0.4378050000000 1.0
C      1  0.4880110000000  0.4801790000000  0.5225400000000 1.0
C      1  0.4880210000000  0.4724370000000  0.4881040000000 1.0
C      1  0.4879980000000  0.5027960000000  0.4701090000000 1.0
C      1  0.4879890000000  0.5292920000000  0.4934160000000 1.0
C      1  0.4879840000000  0.5153020000000  0.5258190000000 1.0
C      1  0.4538980000000  0.5150220000000  0.5268120000000 1.0
C      1  0.4538980000000  0.4791470000000  0.5225670000000 1.0
C      1  0.4539070000000  0.4720930000000  0.4871430000000 1.0
C      1  0.4539000000000  0.5036080000000  0.4694830000000 1.0
C      1  0.4539030000000  0.5301290000000  0.4939990000000 1.0
C      1  0.4958550000000  0.4448370000000  0.4751310000000 1.0
C      1  0.4958570000000  0.5066130000000  0.4398460000000 1.0
C      1  0.4958500000000  0.5592520000000  0.4877040000000 1.0
C      1  0.4958500000000  0.5300160000000  0.5525450000000 1.0
C      1  0.4958530000000  0.4593040000000  0.5447840000000 1.0
C      1  0.5216330000000  0.5464860000000  0.4571280000000 1.0
C      1  0.5216260000000  0.5551470000000  0.5309490000000 1.0
C      1  0.5216350000000  0.4876070000000  0.5620180000000 1.0
C      1  0.5216290000000  0.4371920000000  0.5073750000000 1.0
C      1  0.5216270000000  0.4735780000000  0.4425370000000 1.0
C      1  0.4778530000000  0.5269610000000  0.5746380000000 1.0
C      1  0.4778530000000  0.4373620000000  0.5487130000000 1.0
C      1  0.4778550000000  0.4342990000000  0.4554780000000 1.0
C      1  0.4778400000000  0.5220530000000  0.4237450000000 1.0
C      1  0.4778320000000  0.5793360000000  0.4974070000000 1.0
C      1  0.4493380000000  0.5506180000000  0.5233950000000 1.0
C      1  0.4493370000000  0.4933910000000  0.5553710000000 1.0
C      1  0.4493330000000  0.4452940000000  0.5108260000000 1.0
C      1  0.4493260000000  0.4727940000000  0.4513220000000 1.0
C      1  0.4493300000000  0.5378910000000  0.4590870000000 1.0
C      1  0.5246420000000  0.4344250000000  0.4756310000000 1.0
C      1  0.5246290000000  0.5029140000000  0.4301050000000 1.0
C      1  0.5246240000000  0.5673730000000  0.4811640000000 1.0
C      1  0.5246360000000  0.5387170000000  0.5582800000000 1.0
C      1  0.5246220000000  0.4565490000000  0.5548390000000 1.0
C      1  0.5372240000000  0.5679770000000  0.5079250000000 1.0
C      1  0.5372140000000  0.5134620000000  0.5670860000000 1.0
C      1  0.5372250000000  0.4403400000000  0.5335420000000 1.0
C      1  0.5372320000000  0.4496610000000  0.4536260000000 1.0
C      1  0.5372420000000  0.5285270000000  0.4377700000000 1.0
C      1  0.5269640000000  0.4695210000000  0.5034440000000 1.0
C      1  0.5269620000000  0.4873030000000  0.4720870000000 1.0
C      1  0.5269620000000  0.5226260000000  0.4792940000000 1.0
C      1  0.5269870000000  0.5266900000000  0.5151250000000 1.0
C      1  0.5269690000000  0.4938640000000  0.5300520000000 1.0
C      1  0.5599680000000  0.5193420000000  0.4824120000000 1.0
C      1  0.5599690000000  0.5227040000000  0.5129670000000 1.0
C      1  0.5599690000000  0.4946820000000  0.5256040000000 1.0
C      1  0.5599720000000  0.4740030000000  0.5028620000000 1.0
C      1  0.5599640000000  0.4892420000000  0.4761660000000 1.0
C      1  0.4947280000000  0.4832890000000  0.5792440000000 1.0
C      1  0.4947240000000  0.4194720000000  0.5085780000000 1.0
C      1  0.4947290000000  0.4669580000000  0.4260700000000 1.0
C      1  0.4947230000000  0.5601030000000  0.4457340000000 1.0
C      1  0.4947250000000  0.5701940000000  0.5403730000000 1.0
END
