TITL C-3985252-168-437 9.66474943861772e-07 125000 -334.305747200642 0 0 60 (C1) n - 1
REM
REM in /home/nfs/bkarasulu/CARBON/AIRSS/Generating-Clusters/TERSOFF/Higher-Symm/Only-C60
REM
REM
REM
REM
REM
REM ./C.cell (28575a23ae977d3b5fae324c64b13b57)
REM
REM compiler GCC version 9.2.1 20190827 (Red Hat 9.2.1-1)
REM options -cpp -mtune=generic -march=x86-64 -g -O0 -fpre-include=/usr/include/finclude/math-vector-fortran.h
REM seed 485863180 -692983062 -811943321 -855161692 1504613813 -1355865570 -1506147147 -697877712 241291427 650328369 -1229110436 -251049588 -1654827785 -274422096 1546875800 -328492053 1789464173 1842792312 -867757531 -581915490 543480108 -2001775455 -1408590010 1164698670 911145445 1347661621 659168017 142616311 1032443581 -151014212 -2017541374 -1937282998 -1218695434
REM
CELL 1.54180   50.00000   50.00000   50.00000   90.00000   90.00000   90.00000
LATT -1
SFAC C  
C      1  0.4882890000000  0.5840680000000  0.4980560000000 1.0
C      1  0.5612390000000  0.5582630000000  0.4977780000000 1.0
C      1  0.5842320000000  0.4926560000000  0.4984630000000 1.0
C      1  0.5452090000000  0.4269410000000  0.4978190000000 1.0
C      1  0.4723040000000  0.4186870000000  0.4976150000000 1.0
C      1  0.4196370000000  0.4709030000000  0.4970010000000 1.0
C      1  0.4281350000000  0.5446590000000  0.4986950000000 1.0
C      1  0.5208610000000  0.5597960000000  0.5307440000000 1.0
C      1  0.5498550000000  0.5179760000000  0.5275050000000 1.0
C      1  0.5516470000000  0.4676880000000  0.5304410000000 1.0
C      1  0.5065200000000  0.4436710000000  0.5275340000000 1.0
C      1  0.4598480000000  0.4590230000000  0.5275140000000 1.0
C      1  0.4428950000000  0.5053950000000  0.5282760000000 1.0
C      1  0.4705220000000  0.5466900000000  0.5292900000000 1.0
C      1  0.5376630000000  0.4391480000000  0.5229770000000 1.0
C      1  0.4770950000000  0.4325560000000  0.5225320000000 1.0
C      1  0.4331300000000  0.4755630000000  0.5220120000000 1.0
C      1  0.4406420000000  0.5366010000000  0.5234540000000 1.0
C      1  0.4911700000000  0.5701720000000  0.5232490000000 1.0
C      1  0.5503040000000  0.5489500000000  0.5228700000000 1.0
C      1  0.5695570000000  0.4936130000000  0.5234650000000 1.0
C      1  0.4332270000000  0.4758950000000  0.4720930000000 1.0
C      1  0.4399180000000  0.5371220000000  0.4734330000000 1.0
C      1  0.4903610000000  0.5696450000000  0.4730950000000 1.0
C      1  0.5504230000000  0.5484740000000  0.4728230000000 1.0
C      1  0.5701660000000  0.4934030000000  0.4731150000000 1.0
C      1  0.5375450000000  0.4390410000000  0.4726370000000 1.0
C      1  0.4770660000000  0.4319940000000  0.4723850000000 1.0
C      1  0.4820650000000  0.5298090000000  0.5541710000000 1.0
C      1  0.5152550000000  0.5440920000000  0.5577160000000 1.0
C      1  0.5313530000000  0.5120250000000  0.5523130000000 1.0
C      1  0.5319410000000  0.4790340000000  0.5522410000000 1.0
C      1  0.5044050000000  0.4644790000000  0.5503370000000 1.0
C      1  0.4737200000000  0.4740780000000  0.5516270000000 1.0
C      1  0.4606590000000  0.5026520000000  0.5533320000000 1.0
C      1  0.4809550000000  0.5279960000000  0.4475930000000 1.0
C      1  0.5103840000000  0.5317430000000  0.4470420000000 1.0
C      1  0.5308480000000  0.5103270000000  0.4481380000000 1.0
C      1  0.5286890000000  0.4807590000000  0.4465650000000 1.0
C      1  0.5034430000000  0.4647700000000  0.4463830000000 1.0
C      1  0.4743930000000  0.4738490000000  0.4430430000000 1.0
C      1  0.4642560000000  0.5028510000000  0.4435070000000 1.0
C      1  0.5385940000000  0.4751650000000  0.4987500000000 1.0
C      1  0.5062510000000  0.4592440000000  0.4979130000000 1.0
C      1  0.4719370000000  0.4699700000000  0.4957670000000 1.0
C      1  0.4618440000000  0.5033370000000  0.4980550000000 1.0
C      1  0.4800670000000  0.5340270000000  0.4996610000000 1.0
C      1  0.5144980000000  0.5420060000000  0.5000100000000 1.0
C      1  0.5347540000000  0.5117050000000  0.4982510000000 1.0
C      1  0.5504260000000  0.5173780000000  0.4698950000000 1.0
C      1  0.5502800000000  0.4681490000000  0.4664830000000 1.0
C      1  0.5062550000000  0.4433610000000  0.4681480000000 1.0
C      1  0.4593590000000  0.4583690000000  0.4660430000000 1.0
C      1  0.4440040000000  0.5054610000000  0.4675440000000 1.0
C      1  0.4698570000000  0.5458300000000  0.4696590000000 1.0
C      1  0.5188390000000  0.5549890000000  0.4672250000000 1.0
C      1  0.4942040000000  0.4966070000000  0.4721490000000 1.0
C      1  0.5014400000000  0.5068080000000  0.5446920000000 1.0
C      1  0.4953630000000  0.4934910000000  0.5213460000000 1.0
C      1  0.5059390000000  0.5011790000000  0.4967590000000 1.0
END
