TITL C-3985254-1270-1407 -0.00257922304608009 125000 -323.359349842053 0 0 60 (Cs) n - 1
REM
REM in /home/nfs/bkarasulu/CARBON/AIRSS/Generating-Clusters/TERSOFF/Higher-Symm/Only-C60
REM
REM
REM
REM
REM
REM ./C.cell (28575a23ae977d3b5fae324c64b13b57)
REM
REM compiler GCC version 9.2.1 20190827 (Red Hat 9.2.1-1)
REM options -cpp -mtune=generic -march=x86-64 -g -O0 -fpre-include=/usr/include/finclude/math-vector-fortran.h
REM seed 2001603723 406300751 968796783 -106552095 -29557080 -865925936 -1630404490 -1376404105 -1211180823 -1261952228 57246076 -2065670188 -486123963 844168375 -1813113643 -302950573 -722494691 1890255840 741364267 1411013747 -1266941062 950737037 537550013 1527627672 152066392 384260259 -601658855 -100066985 9480329 -1880506355 -1317620137 1878042873 -90562948
REM
CELL 1.54180   50.00000   50.00000   50.00000   90.00000   90.00000   90.00000
LATT -1
SFAC C  
C      1  0.4703090000000  0.5617410000000  0.4901770000000 1.0
C      1  0.5296910000000  0.5617410000000  0.4901770000000 1.0
C      1  0.4695740000000  0.4348690000000  0.5059840000000 1.0
C      1  0.5304260000000  0.4348690000000  0.5059840000000 1.0
C      1  0.4651840000000  0.5437420000000  0.5155010000000 1.0
C      1  0.5348160000000  0.5437420000000  0.5155010000000 1.0
C      1  0.5144340000000  0.5865420000000  0.4947210000000 1.0
C      1  0.4855660000000  0.5865420000000  0.4947210000000 1.0
C      1  0.4154130000000  0.5167040000000  0.5052470000000 1.0
C      1  0.5845870000000  0.5167040000000  0.5052470000000 1.0
C      1  0.5438880000000  0.4669370000000  0.4522740000000 1.0
C      1  0.4561120000000  0.4669370000000  0.4522740000000 1.0
C      1  0.5583080000000  0.4383770000000  0.5153160000000 1.0
C      1  0.4416920000000  0.4383770000000  0.5153160000000 1.0
C      1  0.4241540000000  0.5056320000000  0.4782370000000 1.0
C      1  0.5758470000000  0.5056320000000  0.4782370000000 1.0
C      1  0.5177080000000  0.4418730000000  0.4544060000000 1.0
C      1  0.4822920000000  0.4418730000000  0.4544060000000 1.0
C      1  0.5533380000000  0.5247000000000  0.4752100000000 1.0
C      1  0.4466520000000  0.5247010000000  0.4752180000000 1.0
C      1  0.4828260000000  0.5346760000000  0.5425310000000 1.0
C      1  0.5171740000000  0.5346760000000  0.5425310000000 1.0
C      1  0.5229940000000  0.5171520000000  0.4471890000000 1.0
C      1  0.4770140000000  0.5171500000000  0.4471830000000 1.0
C      1  0.5351030000000  0.5638040000000  0.4441730000000 1.0
C      1  0.4648970000000  0.5638040000000  0.4441730000000 1.0
C      1  0.5549710000000  0.5553930000000  0.4677560000000 1.0
C      1  0.4450300000000  0.5553930000000  0.4677560000000 1.0
C      1  0.5147730000000  0.4362690000000  0.5309770000000 1.0
C      1  0.4852270000000  0.4362690000000  0.5309770000000 1.0
C      1  0.5140410000000  0.4934830000000  0.5335310000000 1.0
C      1  0.4859590000000  0.4934830000000  0.5335310000000 1.0
C      1  0.5654730000000  0.4757460000000  0.4775720000000 1.0
C      1  0.4345270000000  0.4757460000000  0.4775720000000 1.0
C      1  0.5532560000000  0.4791830000000  0.5066830000000 1.0
C      1  0.4467440000000  0.4791830000000  0.5066830000000 1.0
C      1  0.5668160000000  0.5329730000000  0.5234760000000 1.0
C      1  0.4331840000000  0.5329730000000  0.5234760000000 1.0
C      1  0.5629550000000  0.4644500000000  0.5342580000000 1.0
C      1  0.4370450000000  0.4644500000000  0.5342580000000 1.0
C      1  0.4452680000000  0.4926080000000  0.5556490000000 1.0
C      1  0.5547320000000  0.4926080000000  0.5556490000000 1.0
C      1  0.5276950000000  0.4801900000000  0.5554990000000 1.0
C      1  0.4723050000000  0.4801900000000  0.5554990000000 1.0
C      1  0.5150020000000  0.5440670000000  0.4618750000000 1.0
C      1  0.4849990000000  0.5440670000000  0.4618750000000 1.0
C      1  0.4788890000000  0.4513040000000  0.4839170000000 1.0
C      1  0.5211110000000  0.4513040000000  0.4839170000000 1.0
C      1  0.5501580000000  0.5208020000000  0.5471370000000 1.0
C      1  0.4498420000000  0.5208020000000  0.5471370000000 1.0
C      1  0.4656810000000  0.5205750000000  0.4971000000000 1.0
C      1  0.5343190000000  0.5205750000000  0.4971000000000 1.0
C      1  0.4856880000000  0.4809210000000  0.4861860000000 1.0
C      1  0.5143120000000  0.4809210000000  0.4861860000000 1.0
C      1  0.5323950000000  0.4508630000000  0.5503670000000 1.0
C      1  0.4676050000000  0.4508630000000  0.5503670000000 1.0
C      1  0.5246370000000  0.4900450000000  0.4593840000000 1.0
C      1  0.4753630000000  0.4900440000000  0.4593840000000 1.0
C      1  0.5281340000000  0.4943790000000  0.5076670000000 1.0
C      1  0.4718660000000  0.4943790000000  0.5076670000000 1.0
END
