TITL C-3985245-9316-851 -0.00214672847130197 125000 -306.339160235995 0 0 60 (C1) n - 1
REM
REM in /home/nfs/bkarasulu/CARBON/AIRSS/Generating-Clusters/TERSOFF/Higher-Symm/Only-C60
REM
REM
REM
REM
REM
REM ./C.cell (28575a23ae977d3b5fae324c64b13b57)
REM
REM compiler GCC version 9.2.1 20190827 (Red Hat 9.2.1-1)
REM options -cpp -mtune=generic -march=x86-64 -g -O0 -fpre-include=/usr/include/finclude/math-vector-fortran.h
REM seed -289273836 1101446534 503543939 -1678540799 -1502411213 -752821531 -919386773 -2083697633 1878789235 1730404099 318988107 580954294 -1884532239 -1579741059 -1066812874 1797365558 370054107 -1292609543 -588741410 -1358693467 531072265 -33980871 -60739874 -2023891303 -926098790 720607902 -623600615 -1080987295 205916725 -389542075 -1952185040 1290257643 434213372
REM
CELL 1.54180   50.00000   50.00000   50.00000   90.00000   90.00000   90.00000
LATT -1
SFAC C  
C      1  0.5269480000000  0.4477590000000  0.5340550000000 1.0
C      1  0.4762170000000  0.4472740000000  0.5357600000000 1.0
C      1  0.4576920000000  0.4465820000000  0.4887760000000 1.0
C      1  0.4971820000000  0.4470740000000  0.4574430000000 1.0
C      1  0.5399070000000  0.4478320000000  0.4849310000000 1.0
C      1  0.5352120000000  0.5741600000000  0.4973740000000 1.0
C      1  0.5130200000000  0.5732290000000  0.5329250000000 1.0
C      1  0.4722500000000  0.5745130000000  0.5231690000000 1.0
C      1  0.4692910000000  0.5748380000000  0.4813290000000 1.0
C      1  0.5080820000000  0.5750340000000  0.4654270000000 1.0
C      1  0.4865050000000  0.5077040000000  0.5565200000000 1.0
C      1  0.4424340000000  0.5077470000000  0.5054610000000 1.0
C      1  0.4766690000000  0.5076130000000  0.4476990000000 1.0
C      1  0.5425420000000  0.5079490000000  0.4618910000000 1.0
C      1  0.5493580000000  0.5080060000000  0.5297080000000 1.0
C      1  0.5520510000000  0.5354020000000  0.4980040000000 1.0
C      1  0.5176190000000  0.5350760000000  0.5497770000000 1.0
C      1  0.4587380000000  0.5357710000000  0.5321430000000 1.0
C      1  0.4569030000000  0.5359440000000  0.4715640000000 1.0
C      1  0.5133160000000  0.5358090000000  0.4503880000000 1.0
C      1  0.4340670000000  0.5372160000000  0.5150840000000 1.0
C      1  0.4650930000000  0.5372760000000  0.4426650000000 1.0
C      1  0.5432730000000  0.5374560000000  0.4491720000000 1.0
C      1  0.5616050000000  0.5372030000000  0.5263480000000 1.0
C      1  0.4933720000000  0.5369510000000  0.5673040000000 1.0
C      1  0.4979340000000  0.4184750000000  0.4647340000000 1.0
C      1  0.5330070000000  0.4192990000000  0.4875750000000 1.0
C      1  0.5221510000000  0.4192670000000  0.5280210000000 1.0
C      1  0.4803370000000  0.4186830000000  0.5300510000000 1.0
C      1  0.4653350000000  0.4179870000000  0.4909830000000 1.0
C      1  0.5339360000000  0.5147480000000  0.4888810000000 1.0
C      1  0.5209960000000  0.5144850000000  0.5296600000000 1.0
C      1  0.4786130000000  0.5149890000000  0.5294260000000 1.0
C      1  0.4657120000000  0.5150390000000  0.4894440000000 1.0
C      1  0.4995380000000  0.5146880000000  0.4645420000000 1.0
C      1  0.4576040000000  0.4598520000000  0.5158030000000 1.0
C      1  0.4710220000000  0.4595710000000  0.4650070000000 1.0
C      1  0.5233370000000  0.4606950000000  0.4634110000000 1.0
C      1  0.5426410000000  0.4606940000000  0.5119830000000 1.0
C      1  0.5017350000000  0.4606530000000  0.5441560000000 1.0
C      1  0.5018040000000  0.4838630000000  0.5615080000000 1.0
C      1  0.4418680000000  0.4836950000000  0.5214700000000 1.0
C      1  0.4608770000000  0.4837230000000  0.4522180000000 1.0
C      1  0.5326110000000  0.4841390000000  0.4490310000000 1.0
C      1  0.5589560000000  0.4841750000000  0.5167030000000 1.0
C      1  0.5394700000000  0.5651170000000  0.4652200000000 1.0
C      1  0.5448930000000  0.5645440000000  0.5273750000000 1.0
C      1  0.4875620000000  0.5643550000000  0.5514910000000 1.0
C      1  0.4468890000000  0.5649840000000  0.5044070000000 1.0
C      1  0.4791320000000  0.5652420000000  0.4513000000000 1.0
C      1  0.5011400000000  0.4477110000000  0.5009860000000 1.0
C      1  0.4984700000000  0.6118950000000  0.5094010000000 1.0
C      1  0.4999260000000  0.6346630000000  0.4915500000000 1.0
C      1  0.4927720000000  0.5458310000000  0.5005720000000 1.0
C      1  0.4906710000000  0.3583700000000  0.4965020000000 1.0
C      1  0.4997660000000  0.5811760000000  0.5001310000000 1.0
C      1  0.4998420000000  0.4112420000000  0.5003070000000 1.0
C      1  0.4908400000000  0.4775930000000  0.4973100000000 1.0
C      1  0.5076090000000  0.3806550000000  0.5037230000000 1.0
C      1  0.4999620000000  0.5113240000000  0.5005140000000 1.0
END
