TITL C-3985247-764-514 -0.00156020063798128 125000 -346.586226367479 0 0 60 (Cs) n - 1
REM
REM in /home/nfs/bkarasulu/CARBON/AIRSS/Generating-Clusters/TERSOFF/Higher-Symm/Only-C60
REM
REM
REM
REM
REM
REM ./C.cell (28575a23ae977d3b5fae324c64b13b57)
REM
REM compiler GCC version 9.2.1 20190827 (Red Hat 9.2.1-1)
REM options -cpp -mtune=generic -march=x86-64 -g -O0 -fpre-include=/usr/include/finclude/math-vector-fortran.h
REM seed -573849997 -1300709569 753021924 -544352228 1717590087 2082791518 -1403312980 400109937 545000140 1596863317 712442623 -464521862 1277120866 -1377837755 631687415 -2005220222 1191438410 123119093 -310715242 736340795 353935993 -1059217174 373401644 -1936781125 -1071440052 412091249 -846920188 -865272562 -454926619 141264355 -414531747 -1158439492 1353337939
REM
CELL 1.54180   50.00000   50.00000   50.00000   90.00000   90.00000   90.00000
LATT -1
SFAC C  
C      1  0.4302290000000  0.4838460000000  0.4838870000000 1.0
C      1  0.5359490000000  0.4635730000000  0.4844640000000 1.0
C      1  0.5208380000000  0.5642470000000  0.4831070000000 1.0
C      1  0.4302400000000  0.4838500000000  0.5161140000000 1.0
C      1  0.5359500000000  0.4635690000000  0.5155320000000 1.0
C      1  0.5208420000000  0.5642620000000  0.5168650000000 1.0
C      1  0.4301970000000  0.5161670000000  0.4838890000000 1.0
C      1  0.5359480000000  0.5364390000000  0.4844680000000 1.0
C      1  0.5208370000000  0.4357640000000  0.4831140000000 1.0
C      1  0.4302060000000  0.5161660000000  0.5161260000000 1.0
C      1  0.5359460000000  0.5364370000000  0.5155390000000 1.0
C      1  0.5208410000000  0.4357590000000  0.5168790000000 1.0
C      1  0.4733410000000  0.4202470000000  0.4839960000000 1.0
C      1  0.5813580000000  0.5159960000000  0.4841810000000 1.0
C      1  0.4458350000000  0.5639850000000  0.4843630000000 1.0
C      1  0.4733420000000  0.4202470000000  0.5159980000000 1.0
C      1  0.5813590000000  0.5159950000000  0.5158210000000 1.0
C      1  0.4458340000000  0.5639860000000  0.5156450000000 1.0
C      1  0.4733370000000  0.5797600000000  0.4839830000000 1.0
C      1  0.5813600000000  0.4840020000000  0.4841800000000 1.0
C      1  0.4458410000000  0.4360160000000  0.4843610000000 1.0
C      1  0.4733340000000  0.5797640000000  0.5159840000000 1.0
C      1  0.5813610000000  0.4840020000000  0.5158210000000 1.0
C      1  0.4458430000000  0.4360190000000  0.5156380000000 1.0
C      1  0.4777050000000  0.4852680000000  0.4297910000000 1.0
C      1  0.5297260000000  0.4841150000000  0.4239820000000 1.0
C      1  0.5045740000000  0.5312010000000  0.4269960000000 1.0
C      1  0.4777030000000  0.4852240000000  0.5702210000000 1.0
C      1  0.5297250000000  0.4841240000000  0.5760130000000 1.0
C      1  0.5045210000000  0.5311710000000  0.5729830000000 1.0
C      1  0.4777510000000  0.5147140000000  0.4299320000000 1.0
C      1  0.5297300000000  0.5158660000000  0.4240050000000 1.0
C      1  0.5045530000000  0.4687670000000  0.4268940000000 1.0
C      1  0.4777310000000  0.5147350000000  0.5700800000000 1.0
C      1  0.5297000000000  0.5158800000000  0.5759920000000 1.0
C      1  0.5045620000000  0.4687500000000  0.5731040000000 1.0
C      1  0.4591580000000  0.4639570000000  0.4449400000000 1.0
C      1  0.5555230000000  0.4839610000000  0.4424080000000 1.0
C      1  0.4876840000000  0.5526930000000  0.4447920000000 1.0
C      1  0.4591520000000  0.4639410000000  0.5550680000000 1.0
C      1  0.5555190000000  0.4839590000000  0.5575930000000 1.0
C      1  0.4876980000000  0.5527340000000  0.5552570000000 1.0
C      1  0.4591140000000  0.5360370000000  0.4449410000000 1.0
C      1  0.5555210000000  0.5160260000000  0.4424130000000 1.0
C      1  0.4876850000000  0.4473240000000  0.4447860000000 1.0
C      1  0.4591570000000  0.5360530000000  0.5550630000000 1.0
C      1  0.5555130000000  0.5160200000000  0.5575890000000 1.0
C      1  0.4876880000000  0.4473250000000  0.5552140000000 1.0
C      1  0.4432050000000  0.5388020000000  0.4697590000000 1.0
C      1  0.4955920000000  0.4313890000000  0.4686320000000 1.0
C      1  0.5592960000000  0.5282420000000  0.4688470000000 1.0
C      1  0.4432220000000  0.5388040000000  0.5302550000000 1.0
C      1  0.4955990000000  0.4313740000000  0.5313550000000 1.0
C      1  0.5592950000000  0.5282390000000  0.5311590000000 1.0
C      1  0.4432230000000  0.4612020000000  0.4697530000000 1.0
C      1  0.4955850000000  0.5686290000000  0.4686360000000 1.0
C      1  0.5592980000000  0.4717550000000  0.4688450000000 1.0
C      1  0.4432300000000  0.4612030000000  0.5302430000000 1.0
C      1  0.4955960000000  0.5686650000000  0.5313540000000 1.0
C      1  0.5592970000000  0.4717550000000  0.5311530000000 1.0
END
