TITL C-3985251-913-193 0.000118202500713822 125000 -349.51929718488 0 0 60 (C2v) n - 1
REM
REM in /home/nfs/bkarasulu/CARBON/AIRSS/Generating-Clusters/TERSOFF/Higher-Symm/Only-C60
REM
REM
REM
REM
REM
REM ./C.cell (28575a23ae977d3b5fae324c64b13b57)
REM
REM compiler GCC version 9.2.1 20190827 (Red Hat 9.2.1-1)
REM options -cpp -mtune=generic -march=x86-64 -g -O0 -fpre-include=/usr/include/finclude/math-vector-fortran.h
REM seed -1334977326 856469694 1577892 -1400536283 -948165802 -87479037 2072783554 2063575564 330762548 -132241510 1139646188 1802536334 772885133 748070301 -1821290798 -1809055801 -843463383 -1071449090 -1843775398 473601475 -1280299310 -655758898 -231329184 -1183627395 69147681 -1122400901 -1993198405 -998060390 926300136 428730383 -296107769 -99050160 -90118934
REM
CELL 1.54180   50.00000   50.00000   50.00000   90.00000   90.00000   90.00000
LATT -1
SFAC C  
C      1  0.4878440000000  0.5307940000000  0.4312260000000 1.0
C      1  0.4878470000000  0.4692060000000  0.5687730000000 1.0
C      1  0.4878470000000  0.4692060000000  0.4312280000000 1.0
C      1  0.4878440000000  0.5307920000000  0.5687730000000 1.0
C      1  0.5419440000000  0.5298670000000  0.5154170000000 1.0
C      1  0.5419440000000  0.4701310000000  0.4845820000000 1.0
C      1  0.5419440000000  0.4701330000000  0.5154170000000 1.0
C      1  0.5419440000000  0.5298690000000  0.4845820000000 1.0
C      1  0.4600820000000  0.5663620000000  0.5161200000000 1.0
C      1  0.4600820000000  0.4336370000000  0.4838830000000 1.0
C      1  0.4600830000000  0.4336380000000  0.5161200000000 1.0
C      1  0.4600820000000  0.5663640000000  0.4838830000000 1.0
C      1  0.4911980000000  0.5220030000000  0.4854500000000 1.0
C      1  0.4911980000000  0.4779970000000  0.5145490000000 1.0
C      1  0.4911970000000  0.4779970000000  0.4854510000000 1.0
C      1  0.4911970000000  0.5220030000000  0.5145500000000 1.0
C      1  0.5115530000000  0.5710180000000  0.5145920000000 1.0
C      1  0.5115530000000  0.4289800000000  0.4854110000000 1.0
C      1  0.5115530000000  0.4289820000000  0.5145920000000 1.0
C      1  0.5115530000000  0.5710200000000  0.4854110000000 1.0
C      1  0.4859080000000  0.5709930000000  0.5302930000000 1.0
C      1  0.4859070000000  0.4290030000000  0.4697100000000 1.0
C      1  0.4859080000000  0.4290070000000  0.5302930000000 1.0
C      1  0.4859070000000  0.5709970000000  0.4697090000000 1.0
C      1  0.4917720000000  0.5610340000000  0.4409480000000 1.0
C      1  0.4917740000000  0.4389700000000  0.5590510000000 1.0
C      1  0.4917720000000  0.4389650000000  0.4409480000000 1.0
C      1  0.4917740000000  0.5610310000000  0.5590520000000 1.0
C      1  0.5170320000000  0.5154320000000  0.5285040000000 1.0
C      1  0.5170330000000  0.4845670000000  0.4714950000000 1.0
C      1  0.5170320000000  0.4845680000000  0.5285050000000 1.0
C      1  0.5170320000000  0.5154330000000  0.4714950000000 1.0
C      1  0.5228980000000  0.5506420000000  0.4430640000000 1.0
C      1  0.5228930000000  0.4493630000000  0.5569380000000 1.0
C      1  0.5228950000000  0.4493590000000  0.4430630000000 1.0
C      1  0.5228950000000  0.5506380000000  0.5569360000000 1.0
C      1  0.5329640000000  0.4440370000000  0.5291170000000 1.0
C      1  0.5329650000000  0.5559670000000  0.4708840000000 1.0
C      1  0.5329640000000  0.5559640000000  0.5291170000000 1.0
C      1  0.5329650000000  0.4440330000000  0.4708840000000 1.0
C      1  0.5651290000000  0.5144850000000  0.5263180000000 1.0
C      1  0.5651290000000  0.4855150000000  0.4736810000000 1.0
C      1  0.5651290000000  0.4855150000000  0.5263180000000 1.0
C      1  0.5651290000000  0.5144850000000  0.4736810000000 1.0
C      1  0.4652540000000  0.5156950000000  0.5590150000000 1.0
C      1  0.4652550000000  0.4843050000000  0.4409830000000 1.0
C      1  0.4652540000000  0.4843060000000  0.5590150000000 1.0
C      1  0.4652560000000  0.5156950000000  0.4409830000000 1.0
C      1  0.4459810000000  0.5372320000000  0.4841640000000 1.0
C      1  0.4459800000000  0.4627680000000  0.5158350000000 1.0
C      1  0.4459810000000  0.4627680000000  0.4841640000000 1.0
C      1  0.4459800000000  0.5372320000000  0.5158350000000 1.0
C      1  0.4640560000000  0.5168160000000  0.4721340000000 1.0
C      1  0.4640560000000  0.4831840000000  0.5278650000000 1.0
C      1  0.4640570000000  0.4831840000000  0.4721330000000 1.0
C      1  0.4640560000000  0.5168160000000  0.5278650000000 1.0
C      1  0.5163850000000  0.5179950000000  0.4377250000000 1.0
C      1  0.5163850000000  0.4820040000000  0.5622710000000 1.0
C      1  0.5163850000000  0.4820050000000  0.4377250000000 1.0
C      1  0.5163850000000  0.5179960000000  0.5622710000000 1.0
END
