TITL C-3985259-1859-728 0.000549237912280056 125000 -313.86896392313 0 0 60 (Cs) n - 1
REM
REM in /home/nfs/bkarasulu/CARBON/AIRSS/Generating-Clusters/TERSOFF/Higher-Symm/Only-C60
REM
REM
REM
REM
REM
REM ./C.cell (28575a23ae977d3b5fae324c64b13b57)
REM
REM compiler GCC version 9.2.1 20190827 (Red Hat 9.2.1-1)
REM options -cpp -mtune=generic -march=x86-64 -g -O0 -fpre-include=/usr/include/finclude/math-vector-fortran.h
REM seed -192058205 224860400 -1291772052 1299669417 272041259 -1487618362 82170688 1331414579 1719062237 -433048135 -2076583236 464116303 501457513 970397725 -716042410 -1487993119 154986615 513682945 -345244615 -1352455374 126536279 -416249858 -777174267 -979513146 1643833327 174322987 -371209838 1217992498 -1734146272 1241761035 -951585174 -563924058 -440679709
REM
CELL 1.54180   50.00000   50.00000   50.00000   90.00000   90.00000   90.00000
LATT -1
SFAC C  
C      1  0.5593380000000  0.5429700000000  0.4647900000000 1.0
C      1  0.5593380000000  0.4570300000000  0.4647900000000 1.0
C      1  0.4727580000000  0.5165850000000  0.4946310000000 1.0
C      1  0.4727580000000  0.4834150000000  0.4946310000000 1.0
C      1  0.4974220000000  0.4284030000000  0.5038490000000 1.0
C      1  0.4974220000000  0.5715970000000  0.5038490000000 1.0
C      1  0.5155220000000  0.4850270000000  0.5168710000000 1.0
C      1  0.5155220000000  0.5149730000000  0.5168710000000 1.0
C      1  0.5522510000000  0.4682770000000  0.5452300000000 1.0
C      1  0.5522510000000  0.5317230000000  0.5452300000000 1.0
C      1  0.5267270000000  0.5301560000000  0.4936650000000 1.0
C      1  0.5267270000000  0.4698440000000  0.4936650000000 1.0
C      1  0.5051030000000  0.5514110000000  0.4826160000000 1.0
C      1  0.5051030000000  0.4485890000000  0.4826160000000 1.0
C      1  0.5060710000000  0.4493210000000  0.5392280000000 1.0
C      1  0.5060710000000  0.5506790000000  0.5392280000000 1.0
C      1  0.4813180000000  0.5357410000000  0.4718970000000 1.0
C      1  0.4813180000000  0.4642590000000  0.4718970000000 1.0
C      1  0.4378890000000  0.5288800000000  0.4623930000000 1.0
C      1  0.4378890000000  0.4711200000000  0.4623930000000 1.0
C      1  0.5292070000000  0.5546770000000  0.4589490000000 1.0
C      1  0.5292070000000  0.4453230000000  0.4589490000000 1.0
C      1  0.5382680000000  0.4386120000000  0.5319110000000 1.0
C      1  0.5382680000000  0.5613880000000  0.5319110000000 1.0
C      1  0.5497870000000  0.4548420000000  0.5056800000000 1.0
C      1  0.5497870000000  0.5451580000000  0.5056800000000 1.0
C      1  0.5205060000000  0.4163380000000  0.5176750000000 1.0
C      1  0.5205060000000  0.5836620000000  0.5176750000000 1.0
C      1  0.5686630000000  0.4833490000000  0.4814620000000 1.0
C      1  0.5686630000000  0.5166510000000  0.4814620000000 1.0
C      1  0.4536620000000  0.5419300000000  0.5379470000000 1.0
C      1  0.4536620000000  0.4580700000000  0.5379470000000 1.0
C      1  0.4543230000000  0.5528870000000  0.4719620000000 1.0
C      1  0.4543230000000  0.4471130000000  0.4719620000000 1.0
C      1  0.4696800000000  0.5682000000000  0.5187230000000 1.0
C      1  0.4696800000000  0.4318000000000  0.5187230000000 1.0
C      1  0.5694220000000  0.4819060000000  0.5169990000000 1.0
C      1  0.5694220000000  0.5180940000000  0.5169990000000 1.0
C      1  0.5169260000000  0.5281080000000  0.4437000000000 1.0
C      1  0.5169260000000  0.4718920000000  0.4437000000000 1.0
C      1  0.5008990000000  0.5285460000000  0.5617150000000 1.0
C      1  0.5008990000000  0.4714540000000  0.5617150000000 1.0
C      1  0.4318950000000  0.4635500000000  0.5144210000000 1.0
C      1  0.4318950000000  0.5364500000000  0.5144210000000 1.0
C      1  0.4878710000000  0.4747610000000  0.5205150000000 1.0
C      1  0.4878710000000  0.5252390000000  0.5205150000000 1.0
C      1  0.5270620000000  0.4845310000000  0.5481870000000 1.0
C      1  0.5270620000000  0.5154690000000  0.5481870000000 1.0
C      1  0.4863980000000  0.5181020000000  0.4450430000000 1.0
C      1  0.4863980000000  0.4818980000000  0.4450430000000 1.0
C      1  0.4461410000000  0.5607240000000  0.4996050000000 1.0
C      1  0.4461410000000  0.4392760000000  0.4996050000000 1.0
C      1  0.4729940000000  0.4836320000000  0.5489300000000 1.0
C      1  0.4729940000000  0.5163680000000  0.5489300000000 1.0
C      1  0.4395550000000  0.5158930000000  0.4921030000000 1.0
C      1  0.4395550000000  0.4841070000000  0.4921030000000 1.0
C      1  0.5289580000000  0.4862160000000  0.4681810000000 1.0
C      1  0.5289580000000  0.5137840000000  0.4681810000000 1.0
C      1  0.4533860000000  0.4849350000000  0.4411220000000 1.0
C      1  0.4533860000000  0.5150650000000  0.4411220000000 1.0
END
