TITL C-3985259-1859-602 -0.000848662353102059 125000 -345.62905913303 0 0 60 (C2h) n - 1
REM
REM in /home/nfs/bkarasulu/CARBON/AIRSS/Generating-Clusters/TERSOFF/Higher-Symm/Only-C60
REM
REM
REM
REM
REM
REM ./C.cell (28575a23ae977d3b5fae324c64b13b57)
REM
REM compiler GCC version 9.2.1 20190827 (Red Hat 9.2.1-1)
REM options -cpp -mtune=generic -march=x86-64 -g -O0 -fpre-include=/usr/include/finclude/math-vector-fortran.h
REM seed 1601440889 1880489547 -1310372461 -972489679 2136993691 -1749068622 86474256 -578326096 -1881139798 1548317985 -1013444964 52517624 1427159700 -1079550 1879701723 -1477392099 1790464060 948916219 -1360123547 -472618893 -1338823074 -781443301 -105682153 -1203023571 -831176401 253261774 -1515576873 1680864063 -2122600547 1757210481 1332385614 1250699839 -501345915
REM
CELL 1.54180   50.00000   50.00000   50.00000   90.00000   90.00000   90.00000
LATT -1
SFAC C  
C      1  0.4747020000000  0.5356030000000  0.4637740000000 1.0
C      1  0.5252610000000  0.5356490000000  0.5362540000000 1.0
C      1  0.4747160000000  0.4643550000000  0.4636530000000 1.0
C      1  0.5252840000000  0.4643770000000  0.5362290000000 1.0
C      1  0.4999470000000  0.4816960000000  0.5427650000000 1.0
C      1  0.5000060000000  0.4816540000000  0.4571510000000 1.0
C      1  0.4999350000000  0.5184160000000  0.5428040000000 1.0
C      1  0.5000220000000  0.5183680000000  0.4573060000000 1.0
C      1  0.4296590000000  0.4854510000000  0.4677680000000 1.0
C      1  0.5705140000000  0.4854720000000  0.5320970000000 1.0
C      1  0.4296030000000  0.5145200000000  0.4678020000000 1.0
C      1  0.5704900000000  0.5145720000000  0.5321250000000 1.0
C      1  0.4645860000000  0.5315630000000  0.5066070000000 1.0
C      1  0.5353700000000  0.5316290000000  0.4934940000000 1.0
C      1  0.4646350000000  0.4684680000000  0.5066280000000 1.0
C      1  0.5352930000000  0.4683390000000  0.4932540000000 1.0
C      1  0.4749440000000  0.4431830000000  0.4903500000000 1.0
C      1  0.5248040000000  0.4430810000000  0.5096790000000 1.0
C      1  0.4749880000000  0.5568020000000  0.4903290000000 1.0
C      1  0.5249060000000  0.5568960000000  0.5097320000000 1.0
C      1  0.4178490000000  0.5146000000000  0.5165710000000 1.0
C      1  0.5821000000000  0.5145620000000  0.4835570000000 1.0
C      1  0.4178300000000  0.4855200000000  0.5166180000000 1.0
C      1  0.5822040000000  0.4854460000000  0.4833760000000 1.0
C      1  0.4782510000000  0.4633060000000  0.5565090000000 1.0
C      1  0.5217460000000  0.4633270000000  0.4435240000000 1.0
C      1  0.4783250000000  0.5367330000000  0.5565710000000 1.0
C      1  0.5216730000000  0.5366550000000  0.4434880000000 1.0
C      1  0.4841790000000  0.5633510000000  0.5468020000000 1.0
C      1  0.5158660000000  0.5632980000000  0.4532490000000 1.0
C      1  0.4841840000000  0.4366820000000  0.5467650000000 1.0
C      1  0.5158640000000  0.4366830000000  0.4532490000000 1.0
C      1  0.4498110000000  0.5300930000000  0.5528170000000 1.0
C      1  0.5501940000000  0.5300410000000  0.4472660000000 1.0
C      1  0.4497040000000  0.4698520000000  0.5528250000000 1.0
C      1  0.5503020000000  0.4698820000000  0.4472170000000 1.0
C      1  0.4858350000000  0.4854850000000  0.5152600000000 1.0
C      1  0.5142200000000  0.4855150000000  0.4844630000000 1.0
C      1  0.4857380000000  0.5145470000000  0.5154290000000 1.0
C      1  0.5142060000000  0.5145990000000  0.4847790000000 1.0
C      1  0.4407910000000  0.4692080000000  0.5244120000000 1.0
C      1  0.5592680000000  0.4690400000000  0.4755790000000 1.0
C      1  0.4407950000000  0.5308970000000  0.5243920000000 1.0
C      1  0.5591670000000  0.5308800000000  0.4756960000000 1.0
C      1  0.4519050000000  0.5145050000000  0.4248390000000 1.0
C      1  0.5480990000000  0.5145300000000  0.5750920000000 1.0
C      1  0.4519390000000  0.4854410000000  0.4247850000000 1.0
C      1  0.5481540000000  0.4854670000000  0.5750790000000 1.0
C      1  0.4493930000000  0.4716260000000  0.4507830000000 1.0
C      1  0.5506820000000  0.4716450000000  0.5490730000000 1.0
C      1  0.4493800000000  0.5283310000000  0.4508390000000 1.0
C      1  0.5506380000000  0.5283520000000  0.5491030000000 1.0
C      1  0.4356760000000  0.5142970000000  0.5723750000000 1.0
C      1  0.5644080000000  0.5142750000000  0.4277220000000 1.0
C      1  0.4355680000000  0.4856960000000  0.5723670000000 1.0
C      1  0.5644890000000  0.4856860000000  0.4277280000000 1.0
C      1  0.5065480000000  0.4330370000000  0.4801100000000 1.0
C      1  0.4933850000000  0.4332000000000  0.5198590000000 1.0
C      1  0.5065360000000  0.5667970000000  0.4801300000000 1.0
C      1  0.4934330000000  0.5668200000000  0.5199020000000 1.0
END
