TITL C-3985259-1859-353 -0.00482072248285569 125000 -320.333296021492 0 0 60 (C5) n - 1
REM
REM in /home/nfs/bkarasulu/CARBON/AIRSS/Generating-Clusters/TERSOFF/Higher-Symm/Only-C60
REM
REM
REM
REM
REM
REM ./C.cell (28575a23ae977d3b5fae324c64b13b57)
REM
REM compiler GCC version 9.2.1 20190827 (Red Hat 9.2.1-1)
REM options -cpp -mtune=generic -march=x86-64 -g -O0 -fpre-include=/usr/include/finclude/math-vector-fortran.h
REM seed -535693473 1223192543 104987663 -950929288 -1812046975 268818390 846363947 1799847578 1272981617 15186944 -1413838868 -1129957715 -105263058 233849432 -2071156159 -352284972 -1110401903 -408729592 -558419741 1883688310 1690935403 -578827582 2029601876 -1103367396 189974773 -957172764 1492003888 -282260983 -69455432 -469487666 -1757425021 -1582311532 271698721
REM
CELL 1.54180   50.00000   50.00000   50.00000   90.00000   90.00000   90.00000
LATT -1
SFAC C  
C      1  0.5337530000000  0.4683700000000  0.5104530000000 1.0
C      1  0.4804090000000  0.4581460000000  0.5104190000000 1.0
C      1  0.4541550000000  0.5057140000000  0.5104470000000 1.0
C      1  0.4912310000000  0.5454110000000  0.5104240000000 1.0
C      1  0.5404680000000  0.5223170000000  0.5104100000000 1.0
C      1  0.5453440000000  0.4795760000000  0.5620650000000 1.0
C      1  0.4945170000000  0.4506690000000  0.5620970000000 1.0
C      1  0.4510240000000  0.4898470000000  0.5619910000000 1.0
C      1  0.4753150000000  0.5431510000000  0.5620240000000 1.0
C      1  0.5335140000000  0.5368950000000  0.5619570000000 1.0
C      1  0.4633680000000  0.5328580000000  0.4947730000000 1.0
C      1  0.5199250000000  0.5449820000000  0.4947820000000 1.0
C      1  0.5489510000000  0.4949480000000  0.4947690000000 1.0
C      1  0.5103680000000  0.4518700000000  0.4947710000000 1.0
C      1  0.4574420000000  0.4752690000000  0.4947490000000 1.0
C      1  0.4760150000000  0.4733230000000  0.5767160000000 1.0
C      1  0.4669920000000  0.5143420000000  0.5767900000000 1.0
C      1  0.5034130000000  0.5359080000000  0.5767540000000 1.0
C      1  0.5353850000000  0.5077950000000  0.5768390000000 1.0
C      1  0.5182130000000  0.4689570000000  0.5768530000000 1.0
C      1  0.5260640000000  0.4974900000000  0.4727160000000 1.0
C      1  0.5057060000000  0.4744330000000  0.4727140000000 1.0
C      1  0.4774880000000  0.4866780000000  0.4727240000000 1.0
C      1  0.4804190000000  0.5173000000000  0.4727440000000 1.0
C      1  0.5104360000000  0.5239850000000  0.4727280000000 1.0
C      1  0.4621550000000  0.5611950000000  0.4781110000000 1.0
C      1  0.5464950000000  0.5548590000000  0.4781000000000 1.0
C      1  0.5665290000000  0.4727460000000  0.4780590000000 1.0
C      1  0.4946600000000  0.4282570000000  0.4781090000000 1.0
C      1  0.4301200000000  0.4828910000000  0.4781150000000 1.0
C      1  0.5078360000000  0.5712080000000  0.4778910000000 1.0
C      1  0.5701380000000  0.5145650000000  0.4778480000000 1.0
C      1  0.5355340000000  0.4378010000000  0.4777820000000 1.0
C      1  0.4518470000000  0.4469780000000  0.4778250000000 1.0
C      1  0.4347160000000  0.5294310000000  0.4778960000000 1.0
C      1  0.5503170000000  0.5239550000000  0.5382940000000 1.0
C      1  0.5383440000000  0.4595500000000  0.5383890000000 1.0
C      1  0.4733910000000  0.4511370000000  0.5383500000000 1.0
C      1  0.4452190000000  0.5101650000000  0.5383440000000 1.0
C      1  0.4927220000000  0.5551760000000  0.5383620000000 1.0
C      1  0.4487920000000  0.5376820000000  0.5469990000000 1.0
C      1  0.5200050000000  0.5604020000000  0.5469480000000 1.0
C      1  0.5636900000000  0.4995650000000  0.5469270000000 1.0
C      1  0.5192190000000  0.4393720000000  0.5470650000000 1.0
C      1  0.4482170000000  0.4629450000000  0.5469180000000 1.0
C      1  0.4884280000000  0.5495330000000  0.4360640000000 1.0
C      1  0.5435180000000  0.5262830000000  0.4359920000000 1.0
C      1  0.5384590000000  0.4667440000000  0.4359260000000 1.0
C      1  0.4802880000000  0.4531140000000  0.4359810000000 1.0
C      1  0.4493270000000  0.5042890000000  0.4360620000000 1.0
C      1  0.5531160000000  0.4536400000000  0.4604500000000 1.0
C      1  0.4723460000000  0.4351310000000  0.4605060000000 1.0
C      1  0.4297530000000  0.5062790000000  0.4605600000000 1.0
C      1  0.4842850000000  0.5687720000000  0.4605540000000 1.0
C      1  0.5605290000000  0.5361870000000  0.4604960000000 1.0
C      1  0.4659000000000  0.4794100000000  0.4454650000000 1.0
C      1  0.4699220000000  0.5260700000000  0.4454990000000 1.0
C      1  0.5155220000000  0.5366940000000  0.4454730000000 1.0
C      1  0.5397080000000  0.4965680000000  0.4454670000000 1.0
C      1  0.5090390000000  0.4611680000000  0.4454650000000 1.0
END
