TITL C-3985254-1270-56 8.55178747294284e-07 125000 -332.019329361386 0 0 60 (C2v) n - 1
REM
REM in /home/nfs/bkarasulu/CARBON/AIRSS/Generating-Clusters/TERSOFF/Higher-Symm/Only-C60
REM
REM
REM
REM
REM
REM ./C.cell (28575a23ae977d3b5fae324c64b13b57)
REM
REM compiler GCC version 9.2.1 20190827 (Red Hat 9.2.1-1)
REM options -cpp -mtune=generic -march=x86-64 -g -O0 -fpre-include=/usr/include/finclude/math-vector-fortran.h
REM seed -1222035523 -2035710503 488622665 -801315688 -598924350 1067552974 1837103015 36340768 274792583 -1392618121 1181655580 -488416583 2110083504 860663293 -933787135 1320079935 1580822748 700325127 1646045564 1990467641 1595183688 348643399 1620915976 -1425490343 98774348 1753512676 -96737515 1144639341 1626785320 -1706795596 -676555787 696276744 -1213050404
REM
CELL 1.54180   50.00000   50.00000   50.00000   90.00000   90.00000   90.00000
LATT -1
SFAC C  
C      1  0.4338340000000  0.5451290000000  0.4841350000000 1.0
C      1  0.4338340000000  0.4548710000000  0.5158650000000 1.0
C      1  0.4338340000000  0.5451290000000  0.5158650000000 1.0
C      1  0.4338340000000  0.4548710000000  0.4841350000000 1.0
C      1  0.4633580000000  0.4407530000000  0.5162770000000 1.0
C      1  0.4633580000000  0.5592470000000  0.4837230000000 1.0
C      1  0.4633580000000  0.4407530000000  0.4837230000000 1.0
C      1  0.4633580000000  0.5592470000000  0.5162770000000 1.0
C      1  0.4357030000000  0.5180510000000  0.5326270000000 1.0
C      1  0.4357030000000  0.4819490000000  0.4673730000000 1.0
C      1  0.4357030000000  0.5180510000000  0.4673730000000 1.0
C      1  0.4357030000000  0.4819490000000  0.5326270000000 1.0
C      1  0.5748810000000  0.4842110000000  0.4838100000000 1.0
C      1  0.5748810000000  0.5157890000000  0.5161900000000 1.0
C      1  0.5748810000000  0.4842110000000  0.5161900000000 1.0
C      1  0.5748810000000  0.5157890000000  0.4838100000000 1.0
C      1  0.4838510000000  0.4618590000000  0.4716150000000 1.0
C      1  0.4838510000000  0.5381410000000  0.5283850000000 1.0
C      1  0.4838510000000  0.4618590000000  0.5283850000000 1.0
C      1  0.4838510000000  0.5381410000000  0.4716150000000 1.0
C      1  0.5014060000000  0.5275820000000  0.4428640000000 1.0
C      1  0.5014060000000  0.4724180000000  0.5571360000000 1.0
C      1  0.5014060000000  0.5275820000000  0.5571360000000 1.0
C      1  0.5014060000000  0.4724180000000  0.4428640000000 1.0
C      1  0.5190590000000  0.4716780000000  0.4176120000000 1.0
C      1  0.5190590000000  0.5283220000000  0.5823880000000 1.0
C      1  0.5190590000000  0.4716780000000  0.5823880000000 1.0
C      1  0.5190590000000  0.5283220000000  0.4176120000000 1.0
C      1  0.5452770000000  0.4849070000000  0.5836320000000 1.0
C      1  0.5452770000000  0.5150930000000  0.4163680000000 1.0
C      1  0.5452770000000  0.4849070000000  0.4163680000000 1.0
C      1  0.5452770000000  0.5150930000000  0.5836320000000 1.0
C      1  0.5265460000000  0.4844760000000  0.4668220000000 1.0
C      1  0.5265460000000  0.5155240000000  0.5331780000000 1.0
C      1  0.5265460000000  0.4844760000000  0.5331780000000 1.0
C      1  0.5265460000000  0.5155240000000  0.4668220000000 1.0
C      1  0.5091730000000  0.5316720000000  0.4857090000000 1.0
C      1  0.5091730000000  0.4683280000000  0.5142910000000 1.0
C      1  0.5091730000000  0.5316720000000  0.5142910000000 1.0
C      1  0.5091730000000  0.4683280000000  0.4857090000000 1.0
C      1  0.4751860000000  0.4856810000000  0.4335000000000 1.0
C      1  0.4751860000000  0.5143190000000  0.5665000000000 1.0
C      1  0.4751860000000  0.4856810000000  0.5665000000000 1.0
C      1  0.4751860000000  0.5143190000000  0.4335000000000 1.0
C      1  0.5550150000000  0.5259730000000  0.4641900000000 1.0
C      1  0.5550150000000  0.4740270000000  0.5358100000000 1.0
C      1  0.5550150000000  0.5259730000000  0.5358100000000 1.0
C      1  0.5550150000000  0.4740270000000  0.4641900000000 1.0
C      1  0.4642160000000  0.5161500000000  0.4836530000000 1.0
C      1  0.4642160000000  0.4838500000000  0.5163470000000 1.0
C      1  0.4642160000000  0.5161500000000  0.5163470000000 1.0
C      1  0.4642160000000  0.4838500000000  0.4836530000000 1.0
C      1  0.5630340000000  0.4726480000000  0.4361320000000 1.0
C      1  0.5630340000000  0.5273520000000  0.5638680000000 1.0
C      1  0.5630340000000  0.4726480000000  0.5638680000000 1.0
C      1  0.5630340000000  0.5273520000000  0.4361320000000 1.0
C      1  0.4494630000000  0.4740880000000  0.5588990000000 1.0
C      1  0.4494630000000  0.5259120000000  0.4411010000000 1.0
C      1  0.4494630000000  0.4740880000000  0.4411010000000 1.0
C      1  0.4494630000000  0.5259120000000  0.5588990000000 1.0
END
