TITL C-3985245-9316-592 0.000200300219136 125000 -341.604071907017 0 0 60 (C3) n - 1
REM
REM in /home/nfs/bkarasulu/CARBON/AIRSS/Generating-Clusters/TERSOFF/Higher-Symm/Only-C60
REM
REM
REM
REM
REM
REM ./C.cell (28575a23ae977d3b5fae324c64b13b57)
REM
REM compiler GCC version 9.2.1 20190827 (Red Hat 9.2.1-1)
REM options -cpp -mtune=generic -march=x86-64 -g -O0 -fpre-include=/usr/include/finclude/math-vector-fortran.h
REM seed -700733460 981312996 1263860990 -319975984 282597020 -1102266845 -847854638 675601232 958286400 44766434 446322483 -324325423 -1872788348 127957198 1080825779 -1520000499 -1595136760 -1643453339 -428725880 156673123 -1014061834 1651455289 -583971674 -1976090268 1915951931 1205650965 -1528148793 -1390779925 254252291 1857507403 199879919 -1204416118 -1013762423
REM
CELL 1.54180   50.00000   50.00000   50.00000   90.00000   90.00000   90.00000
LATT -1
SFAC C  
C      1  0.5351840000000  0.4096040000000  0.5199930000000 1.0
C      1  0.5606740000000  0.5756800000000  0.5199600000000 1.0
C      1  0.4041230000000  0.5147200000000  0.5199490000000 1.0
C      1  0.5351840000000  0.5903960000000  0.5199930000000 1.0
C      1  0.5606740000000  0.4243200000000  0.5199600000000 1.0
C      1  0.4041230000000  0.4852800000000  0.5199490000000 1.0
C      1  0.4804420000000  0.4351500000000  0.4797270000000 1.0
C      1  0.5659480000000  0.5154820000000  0.4797170000000 1.0
C      1  0.4536280000000  0.5493690000000  0.4797250000000 1.0
C      1  0.4804420000000  0.5648500000000  0.4797270000000 1.0
C      1  0.5659480000000  0.4845180000000  0.4797170000000 1.0
C      1  0.4536280000000  0.4506310000000  0.4797250000000 1.0
C      1  0.5517390000000  0.4722330000000  0.5038880000000 1.0
C      1  0.4981800000000  0.5586900000000  0.5039000000000 1.0
C      1  0.4500920000000  0.4690740000000  0.5038960000000 1.0
C      1  0.5517390000000  0.5277670000000  0.5038880000000 1.0
C      1  0.4981800000000  0.4413100000000  0.5039000000000 1.0
C      1  0.4500920000000  0.5309260000000  0.5038960000000 1.0
C      1  0.4532420000000  0.4715400000000  0.4544640000000 1.0
C      1  0.5480310000000  0.4737330000000  0.4544520000000 1.0
C      1  0.4987380000000  0.5547270000000  0.4544620000000 1.0
C      1  0.4532420000000  0.5284600000000  0.4544640000000 1.0
C      1  0.5480310000000  0.5262670000000  0.4544520000000 1.0
C      1  0.4987380000000  0.4452730000000  0.4544620000000 1.0
C      1  0.5087880000000  0.5781700000000  0.5240410000000 1.0
C      1  0.4279070000000  0.4685360000000  0.5240190000000 1.0
C      1  0.5632950000000  0.4532920000000  0.5240190000000 1.0
C      1  0.5087880000000  0.4218300000000  0.5240410000000 1.0
C      1  0.4279070000000  0.5314640000000  0.5240190000000 1.0
C      1  0.5632950000000  0.5467080000000  0.5240190000000 1.0
C      1  0.4710200000000  0.4835840000000  0.5489380000000 1.0
C      1  0.5287030000000  0.4831160000000  0.5489300000000 1.0
C      1  0.5002630000000  0.5332990000000  0.5489380000000 1.0
C      1  0.4710200000000  0.5164160000000  0.5489380000000 1.0
C      1  0.5287030000000  0.5168840000000  0.5489300000000 1.0
C      1  0.5002630000000  0.4667010000000  0.5489380000000 1.0
C      1  0.4734860000000  0.4846170000000  0.4311570000000 1.0
C      1  0.5265780000000  0.4847300000000  0.4311480000000 1.0
C      1  0.4999340000000  0.5306530000000  0.4311550000000 1.0
C      1  0.4734860000000  0.5153830000000  0.4311570000000 1.0
C      1  0.5265780000000  0.5152700000000  0.4311480000000 1.0
C      1  0.4999340000000  0.4693470000000  0.4311550000000 1.0
C      1  0.4752040000000  0.4859720000000  0.4730670000000 1.0
C      1  0.5245530000000  0.4855360000000  0.4730580000000 1.0
C      1  0.5002580000000  0.5284920000000  0.4730650000000 1.0
C      1  0.4752040000000  0.5140280000000  0.4730670000000 1.0
C      1  0.5245530000000  0.5144640000000  0.4730580000000 1.0
C      1  0.5002580000000  0.4715080000000  0.4730650000000 1.0
C      1  0.4732940000000  0.4842310000000  0.5149750000000 1.0
C      1  0.5270150000000  0.4847540000000  0.5149660000000 1.0
C      1  0.4997040000000  0.5310150000000  0.5149740000000 1.0
C      1  0.4732940000000  0.5157690000000  0.5149750000000 1.0
C      1  0.5270150000000  0.5152460000000  0.5149660000000 1.0
C      1  0.4997040000000  0.4689850000000  0.5149740000000 1.0
C      1  0.5538390000000  0.5343920000000  0.5497990000000 1.0
C      1  0.4432910000000  0.5294320000000  0.5498030000000 1.0
C      1  0.5028460000000  0.4361820000000  0.5498160000000 1.0
C      1  0.5538390000000  0.4656080000000  0.5497990000000 1.0
C      1  0.4432910000000  0.4705680000000  0.5498030000000 1.0
C      1  0.5028460000000  0.5638180000000  0.5498160000000 1.0
END
