TITL C-3985255-5397-181 -0.00114764313081969 125000 -315.227820384084 0 0 60 (C1) n - 1
REM
REM in /home/nfs/bkarasulu/CARBON/AIRSS/Generating-Clusters/TERSOFF/Higher-Symm/Only-C60
REM
REM
REM
REM
REM
REM ./C.cell (28575a23ae977d3b5fae324c64b13b57)
REM
REM compiler GCC version 9.2.1 20190827 (Red Hat 9.2.1-1)
REM options -cpp -mtune=generic -march=x86-64 -g -O0 -fpre-include=/usr/include/finclude/math-vector-fortran.h
REM seed 2084852433 -1806760446 1708558149 2145456452 907287304 716753763 -1527460487 -36550657 1830043309 913376067 -1292024481 399276561 251895521 1344743246 -1512469893 1030914480 2135960386 -1971365530 -723537801 -1298183775 1077995357 -713602679 -159151606 1177569107 -2112156581 945245425 1957733390 -458646093 -937111850 -87440943 -275581809 -1364700410 732970145
REM
CELL 1.54180   50.00000   50.00000   50.00000   90.00000   90.00000   90.00000
LATT -1
SFAC C  
C      1  0.5497100000000  0.5284980000000  0.4773920000000 1.0
C      1  0.5497090000000  0.4715050000000  0.4773880000000 1.0
C      1  0.5320310000000  0.4838530000000  0.5026790000000 1.0
C      1  0.5320390000000  0.5161430000000  0.5026800000000 1.0
C      1  0.5753470000000  0.5146400000000  0.4716890000000 1.0
C      1  0.5753470000000  0.4853620000000  0.4716880000000 1.0
C      1  0.4527290000000  0.4738070000000  0.4789430000000 1.0
C      1  0.4527300000000  0.5261900000000  0.4789460000000 1.0
C      1  0.5628460000000  0.4858400000000  0.5427980000000 1.0
C      1  0.5628460000000  0.5141600000000  0.5428010000000 1.0
C      1  0.4744310000000  0.5597240000000  0.5472740000000 1.0
C      1  0.4744380000000  0.4402790000000  0.5472790000000 1.0
C      1  0.4644130000000  0.4466260000000  0.4668790000000 1.0
C      1  0.4644130000000  0.5533680000000  0.4668770000000 1.0
C      1  0.5256830000000  0.5156610000000  0.4612400000000 1.0
C      1  0.5256830000000  0.4843460000000  0.4612360000000 1.0
C      1  0.5029220000000  0.5296230000000  0.4856140000000 1.0
C      1  0.5029260000000  0.4703800000000  0.4856140000000 1.0
C      1  0.5390000000000  0.4310510000000  0.5218450000000 1.0
C      1  0.5390020000000  0.5689630000000  0.5218430000000 1.0
C      1  0.4612210000000  0.5146420000000  0.4509630000000 1.0
C      1  0.4612190000000  0.4853590000000  0.4509590000000 1.0
C      1  0.4583180000000  0.5168060000000  0.5674200000000 1.0
C      1  0.4583090000000  0.4831980000000  0.5674220000000 1.0
C      1  0.4974470000000  0.4390160000000  0.5024670000000 1.0
C      1  0.4974470000000  0.5609930000000  0.5024660000000 1.0
C      1  0.5272280000000  0.4830170000000  0.4285660000000 1.0
C      1  0.5272280000000  0.5169850000000  0.4285670000000 1.0
C      1  0.5261520000000  0.5711330000000  0.4949020000000 1.0
C      1  0.5261470000000  0.4288730000000  0.4949040000000 1.0
C      1  0.4955540000000  0.4836810000000  0.4268370000000 1.0
C      1  0.4955530000000  0.5163160000000  0.4268380000000 1.0
C      1  0.5369740000000  0.5568040000000  0.4711150000000 1.0
C      1  0.5369730000000  0.4431970000000  0.4711170000000 1.0
C      1  0.4905250000000  0.5157470000000  0.5755490000000 1.0
C      1  0.4905190000000  0.4842310000000  0.5755620000000 1.0
C      1  0.5022880000000  0.4761100000000  0.5483630000000 1.0
C      1  0.5022950000000  0.5238830000000  0.5483540000000 1.0
C      1  0.4285390000000  0.4671160000000  0.4963030000000 1.0
C      1  0.4285420000000  0.5328770000000  0.4963110000000 1.0
C      1  0.4677490000000  0.4357220000000  0.4951650000000 1.0
C      1  0.4677530000000  0.5642780000000  0.4951630000000 1.0
C      1  0.4988440000000  0.4374510000000  0.5323440000000 1.0
C      1  0.4988550000000  0.5625470000000  0.5323460000000 1.0
C      1  0.5164050000000  0.4450710000000  0.4495800000000 1.0
C      1  0.5164050000000  0.5549270000000  0.4495790000000 1.0
C      1  0.5246550000000  0.5489190000000  0.5435000000000 1.0
C      1  0.5246580000000  0.4510820000000  0.5435010000000 1.0
C      1  0.4781850000000  0.4830160000000  0.5283600000000 1.0
C      1  0.4781880000000  0.5169810000000  0.5283550000000 1.0
C      1  0.4900310000000  0.5365830000000  0.4519480000000 1.0
C      1  0.4900320000000  0.4634140000000  0.4519480000000 1.0
C      1  0.4457350000000  0.5503580000000  0.5142370000000 1.0
C      1  0.4457250000000  0.4496390000000  0.5142360000000 1.0
C      1  0.4775920000000  0.5155850000000  0.4959320000000 1.0
C      1  0.4775900000000  0.4844160000000  0.4959320000000 1.0
C      1  0.5415120000000  0.5276290000000  0.5288790000000 1.0
C      1  0.5415290000000  0.4723730000000  0.5288690000000 1.0
C      1  0.4559240000000  0.5366450000000  0.5412190000000 1.0
C      1  0.4559110000000  0.4633630000000  0.5412170000000 1.0
END
