TITL C-3985252-168-54 -0.000413838014268862 125000 -333.490105549565 0 0 60 (C1) n - 1
REM
REM in /home/nfs/bkarasulu/CARBON/AIRSS/Generating-Clusters/TERSOFF/Higher-Symm/Only-C60
REM
REM
REM
REM
REM
REM ./C.cell (28575a23ae977d3b5fae324c64b13b57)
REM
REM compiler GCC version 9.2.1 20190827 (Red Hat 9.2.1-1)
REM options -cpp -mtune=generic -march=x86-64 -g -O0 -fpre-include=/usr/include/finclude/math-vector-fortran.h
REM seed -1754272557 -157040152 -1230772884 1240145802 -1280015056 1200852975 742478280 1427145518 -1725297783 -1052977340 578159272 1269351454 917896401 229747530 -1897551625 -967467626 -685089313 -1930868022 -1386250252 -311993735 -1215375374 647728359 -724525964 -1701380755 -258657289 -2013196581 -341999015 1926218484 600368502 -1433871150 -522163298 -287527019 -1498495275
REM
CELL 1.54180   50.00000   50.00000   50.00000   90.00000   90.00000   90.00000
LATT -1
SFAC C  
C      1  0.4234330000000  0.4957800000000  0.4907720000000 1.0
C      1  0.4650990000000  0.4895550000000  0.5739720000000 1.0
C      1  0.5564020000000  0.4924550000000  0.5546490000000 1.0
C      1  0.5682160000000  0.4912220000000  0.4623410000000 1.0
C      1  0.4854250000000  0.4964800000000  0.4201740000000 1.0
C      1  0.5772590000000  0.4945650000000  0.4902320000000 1.0
C      1  0.5328770000000  0.4952880000000  0.5722380000000 1.0
C      1  0.4413520000000  0.4891690000000  0.5560310000000 1.0
C      1  0.4328170000000  0.4928050000000  0.4629750000000 1.0
C      1  0.5150660000000  0.4964480000000  0.4204230000000 1.0
C      1  0.4525600000000  0.4564220000000  0.5040260000000 1.0
C      1  0.4837700000000  0.4458450000000  0.5512630000000 1.0
C      1  0.5363900000000  0.4478620000000  0.5319970000000 1.0
C      1  0.5363480000000  0.4497210000000  0.4757390000000 1.0
C      1  0.4848530000000  0.4576120000000  0.4539450000000 1.0
C      1  0.5471680000000  0.4561220000000  0.5041500000000 1.0
C      1  0.5129870000000  0.4536850000000  0.5512460000000 1.0
C      1  0.4598490000000  0.4458390000000  0.5317890000000 1.0
C      1  0.4634460000000  0.4501000000000  0.4755730000000 1.0
C      1  0.5150950000000  0.4577720000000  0.4542110000000 1.0
C      1  0.5724340000000  0.4708000000000  0.5052410000000 1.0
C      1  0.5261690000000  0.4718680000000  0.4307270000000 1.0
C      1  0.4425920000000  0.4654470000000  0.4574020000000 1.0
C      1  0.4371550000000  0.4622480000000  0.5449010000000 1.0
C      1  0.5188610000000  0.4705250000000  0.5743670000000 1.0
C      1  0.4275900000000  0.4716130000000  0.5051020000000 1.0
C      1  0.4740420000000  0.4718630000000  0.4303660000000 1.0
C      1  0.5577180000000  0.4640280000000  0.4573210000000 1.0
C      1  0.5597440000000  0.4647310000000  0.5448020000000 1.0
C      1  0.4775290000000  0.4631180000000  0.5758520000000 1.0
C      1  0.4597100000000  0.5309470000000  0.4995530000000 1.0
C      1  0.4863250000000  0.5184370000000  0.5442220000000 1.0
C      1  0.5366830000000  0.5221020000000  0.5236640000000 1.0
C      1  0.5344820000000  0.5226120000000  0.4701430000000 1.0
C      1  0.4855100000000  0.5331420000000  0.4521350000000 1.0
C      1  0.5434290000000  0.5319100000000  0.4961260000000 1.0
C      1  0.5137610000000  0.5303750000000  0.5396770000000 1.0
C      1  0.4630600000000  0.5187190000000  0.5270200000000 1.0
C      1  0.4685510000000  0.5208860000000  0.4736640000000 1.0
C      1  0.5143200000000  0.5352550000000  0.4519090000000 1.0
C      1  0.4857100000000  0.5434340000000  0.4079310000000 1.0
C      1  0.4164340000000  0.5429080000000  0.4851120000000 1.0
C      1  0.4606850000000  0.5379030000000  0.5787990000000 1.0
C      1  0.5632500000000  0.5403640000000  0.5587820000000 1.0
C      1  0.5774600000000  0.5385200000000  0.4554120000000 1.0
C      1  0.5151010000000  0.5432740000000  0.4078000000000 1.0
C      1  0.5861830000000  0.5413380000000  0.4833090000000 1.0
C      1  0.5396120000000  0.5426840000000  0.5760740000000 1.0
C      1  0.4370760000000  0.5376860000000  0.5614330000000 1.0
C      1  0.4258350000000  0.5404720000000  0.4574170000000 1.0
C      1  0.5295850000000  0.5226320000000  0.4259080000000 1.0
C      1  0.4453350000000  0.5182600000000  0.4504660000000 1.0
C      1  0.4347570000000  0.5159360000000  0.5402840000000 1.0
C      1  0.5172870000000  0.5216420000000  0.5723770000000 1.0
C      1  0.5740890000000  0.5217010000000  0.5038530000000 1.0
C      1  0.4711400000000  0.5227590000000  0.4256570000000 1.0
C      1  0.5572390000000  0.5168410000000  0.4484850000000 1.0
C      1  0.5642790000000  0.5177260000000  0.5384280000000 1.0
C      1  0.4816120000000  0.5161450000000  0.5751440000000 1.0
C      1  0.4272570000000  0.5224020000000  0.5053940000000 1.0
END
