TITL C-3985247-764-646 4.25617766357834e-07 125000 -293.314592341612 0 0 60 (Th) n - 1
REM
REM in /home/nfs/bkarasulu/CARBON/AIRSS/Generating-Clusters/TERSOFF/Higher-Symm/Only-C60
REM
REM
REM
REM
REM
REM ./C.cell (28575a23ae977d3b5fae324c64b13b57)
REM
REM compiler GCC version 9.2.1 20190827 (Red Hat 9.2.1-1)
REM options -cpp -mtune=generic -march=x86-64 -g -O0 -fpre-include=/usr/include/finclude/math-vector-fortran.h
REM seed -1835690855 -1123302337 -671285316 828023674 -1457141205 1468596889 499932609 -1140970412 -89327680 -218754256 -1026341323 -1847344280 1729752323 858272454 485268989 1723038029 1298777128 -1709208022 942445332 1143718448 -838448226 1923592786 -2014940286 -822025892 -2029662527 -402075493 555629725 767194880 -639539575 2049454672 1047932359 -394137755 279775194
REM
CELL 1.54180   50.00000   50.00000   50.00000   90.00000   90.00000   90.00000
LATT -1
SFAC C  
C      1  0.4831130000000  0.4571660000000  0.5178290000000 1.0
C      1  0.4571660000000  0.5178290000000  0.4831130000000 1.0
C      1  0.5178290000000  0.4831130000000  0.4571660000000 1.0
C      1  0.4831130000000  0.5428340000000  0.4821710000000 1.0
C      1  0.5168870000000  0.4571660000000  0.4821710000000 1.0
C      1  0.5168870000000  0.5428340000000  0.5178290000000 1.0
C      1  0.4571660000000  0.4821710000000  0.5168870000000 1.0
C      1  0.5428340000000  0.5178290000000  0.5168870000000 1.0
C      1  0.5428340000000  0.4821710000000  0.4831130000000 1.0
C      1  0.5178290000000  0.5168870000000  0.5428340000000 1.0
C      1  0.4821710000000  0.4831130000000  0.5428340000000 1.0
C      1  0.4821710000000  0.5168870000000  0.4571660000000 1.0
C      1  0.5168870000000  0.4571660000000  0.5178290000000 1.0
C      1  0.5428340000000  0.5178290000000  0.4831130000000 1.0
C      1  0.4821710000000  0.4831130000000  0.4571660000000 1.0
C      1  0.5168870000000  0.5428340000000  0.4821710000000 1.0
C      1  0.4831130000000  0.4571660000000  0.4821710000000 1.0
C      1  0.4831130000000  0.5428340000000  0.5178290000000 1.0
C      1  0.5428340000000  0.4821710000000  0.5168870000000 1.0
C      1  0.4571660000000  0.5178290000000  0.5168870000000 1.0
C      1  0.4571660000000  0.4821710000000  0.4831130000000 1.0
C      1  0.4821710000000  0.5168870000000  0.5428340000000 1.0
C      1  0.5178290000000  0.4831130000000  0.5428340000000 1.0
C      1  0.5178290000000  0.5168870000000  0.4571660000000 1.0
C      1  0.4295440000000  0.5237110000000  0.5283620000000 1.0
C      1  0.5237110000000  0.5283620000000  0.4295440000000 1.0
C      1  0.5283620000000  0.4295440000000  0.5237110000000 1.0
C      1  0.4295440000000  0.4762890000000  0.4716380000000 1.0
C      1  0.5704560000000  0.5237110000000  0.4716380000000 1.0
C      1  0.5704560000000  0.4762890000000  0.5283620000000 1.0
C      1  0.5237110000000  0.4716380000000  0.5704560000000 1.0
C      1  0.4762890000000  0.5283620000000  0.5704560000000 1.0
C      1  0.4762890000000  0.4716380000000  0.4295440000000 1.0
C      1  0.5283620000000  0.5704560000000  0.4762890000000 1.0
C      1  0.4716380000000  0.4295440000000  0.4762890000000 1.0
C      1  0.4716380000000  0.5704560000000  0.5237110000000 1.0
C      1  0.5704560000000  0.5237110000000  0.5283620000000 1.0
C      1  0.4762890000000  0.5283620000000  0.4295440000000 1.0
C      1  0.4716380000000  0.4295440000000  0.5237110000000 1.0
C      1  0.5704560000000  0.4762890000000  0.4716380000000 1.0
C      1  0.4295440000000  0.5237110000000  0.4716380000000 1.0
C      1  0.4295440000000  0.4762890000000  0.5283620000000 1.0
C      1  0.4762890000000  0.4716380000000  0.5704560000000 1.0
C      1  0.5237110000000  0.5283620000000  0.5704560000000 1.0
C      1  0.5237110000000  0.4716380000000  0.4295440000000 1.0
C      1  0.4716380000000  0.5704560000000  0.4762890000000 1.0
C      1  0.5283620000000  0.4295440000000  0.4762890000000 1.0
C      1  0.5283620000000  0.5704560000000  0.5237110000000 1.0
C      1  0.4650950000000  0.5862060000000  0.5000000000000 1.0
C      1  0.5000000000000  0.4650950000000  0.5862060000000 1.0
C      1  0.5349050000000  0.4137940000000  0.5000000000000 1.0
C      1  0.5000000000000  0.5349050000000  0.4137940000000 1.0
C      1  0.5862060000000  0.5000000000000  0.4650950000000 1.0
C      1  0.4650950000000  0.4137940000000  0.5000000000000 1.0
C      1  0.5349050000000  0.5862060000000  0.5000000000000 1.0
C      1  0.5862060000000  0.5000000000000  0.5349050000000 1.0
C      1  0.4137940000000  0.5000000000000  0.5349050000000 1.0
C      1  0.4137940000000  0.5000000000000  0.4650950000000 1.0
C      1  0.5000000000000  0.4650950000000  0.4137940000000 1.0
C      1  0.5000000000000  0.5349050000000  0.5862060000000 1.0
END
