TITL C-3985251-913-9 0.000286158312447261 125000 -310.666951382242 0 0 60 (C1) n - 1
REM
REM in /home/nfs/bkarasulu/CARBON/AIRSS/Generating-Clusters/TERSOFF/Higher-Symm/Only-C60
REM
REM
REM
REM
REM
REM ./C.cell (28575a23ae977d3b5fae324c64b13b57)
REM
REM compiler GCC version 9.2.1 20190827 (Red Hat 9.2.1-1)
REM options -cpp -mtune=generic -march=x86-64 -g -O0 -fpre-include=/usr/include/finclude/math-vector-fortran.h
REM seed -2085250433 -1653390292 1666491299 -1264971569 -1220262297 1381333257 -1319734076 1545282789 283169108 -269686836 1303221834 1844865220 1785641672 1559563151 650047533 -1161062204 -921507592 -892711878 1700208781 -2009104779 1340803876 -2129868898 -1162162233 1007294014 1299839859 -36733410 -705712771 -748201033 -1870960315 -461253178 2117126950 454349000 -702835277
REM
CELL 1.54180   50.00000   50.00000   50.00000   90.00000   90.00000   90.00000
LATT -1
SFAC C  
C      1  0.5281160000000  0.4522010000000  0.4562530000000 1.0
C      1  0.4921210000000  0.5010390000000  0.4351530000000 1.0
C      1  0.5037140000000  0.5340520000000  0.5504790000000 1.0
C      1  0.4540190000000  0.5322440000000  0.5121020000000 1.0
C      1  0.4664730000000  0.5213120000000  0.4324620000000 1.0
C      1  0.5028340000000  0.5095150000000  0.4834800000000 1.0
C      1  0.5270940000000  0.5390140000000  0.4493440000000 1.0
C      1  0.4699000000000  0.4721610000000  0.5098400000000 1.0
C      1  0.5057840000000  0.5239980000000  0.5094300000000 1.0
C      1  0.4463930000000  0.4474210000000  0.4706170000000 1.0
C      1  0.4597740000000  0.5101350000000  0.5403350000000 1.0
C      1  0.5424740000000  0.5552460000000  0.5332730000000 1.0
C      1  0.4363710000000  0.5329100000000  0.4609890000000 1.0
C      1  0.5073080000000  0.4540850000000  0.4927270000000 1.0
C      1  0.4538280000000  0.4946040000000  0.4768580000000 1.0
C      1  0.5486230000000  0.4528570000000  0.4860770000000 1.0
C      1  0.5421560000000  0.5517280000000  0.4712770000000 1.0
C      1  0.4461400000000  0.4857640000000  0.5254060000000 1.0
C      1  0.5572610000000  0.5040530000000  0.4747060000000 1.0
C      1  0.4893260000000  0.4584190000000  0.5342760000000 1.0
C      1  0.5495820000000  0.4753700000000  0.5425340000000 1.0
C      1  0.5286090000000  0.4942620000000  0.4760120000000 1.0
C      1  0.5251540000000  0.4791840000000  0.5086180000000 1.0
C      1  0.5173390000000  0.5621540000000  0.4876550000000 1.0
C      1  0.4456650000000  0.4777930000000  0.4520650000000 1.0
C      1  0.5045100000000  0.4880030000000  0.5739210000000 1.0
C      1  0.5661250000000  0.4911470000000  0.5193890000000 1.0
C      1  0.5378150000000  0.4490570000000  0.5208210000000 1.0
C      1  0.4933550000000  0.4673490000000  0.4739980000000 1.0
C      1  0.4746010000000  0.4854630000000  0.5628090000000 1.0
C      1  0.4414090000000  0.4540270000000  0.5346930000000 1.0
C      1  0.5041760000000  0.4842310000000  0.5307100000000 1.0
C      1  0.5013000000000  0.5264070000000  0.4570010000000 1.0
C      1  0.4384340000000  0.5075320000000  0.4394070000000 1.0
C      1  0.5087940000000  0.4339610000000  0.5293410000000 1.0
C      1  0.4745760000000  0.4743250000000  0.4371280000000 1.0
C      1  0.5194290000000  0.5671730000000  0.5174570000000 1.0
C      1  0.4815420000000  0.5413800000000  0.5020570000000 1.0
C      1  0.5630290000000  0.5322810000000  0.4816550000000 1.0
C      1  0.4799410000000  0.4890620000000  0.4861860000000 1.0
C      1  0.4637070000000  0.5470320000000  0.4518610000000 1.0
C      1  0.4558210000000  0.4440370000000  0.5030610000000 1.0
C      1  0.5864910000000  0.5130200000000  0.5200450000000 1.0
C      1  0.4380540000000  0.5555380000000  0.5217630000000 1.0
C      1  0.4658850000000  0.4568860000000  0.5547320000000 1.0
C      1  0.5214110000000  0.4840920000000  0.4478090000000 1.0
C      1  0.4980690000000  0.5597430000000  0.5367590000000 1.0
C      1  0.4744200000000  0.4304250000000  0.4679530000000 1.0
C      1  0.4913570000000  0.5114780000000  0.5345650000000 1.0
C      1  0.4924610000000  0.4499660000000  0.4483550000000 1.0
C      1  0.5655150000000  0.4793350000000  0.4912460000000 1.0
C      1  0.5319170000000  0.4958380000000  0.5599630000000 1.0
C      1  0.4881130000000  0.4282020000000  0.5013490000000 1.0
C      1  0.4404520000000  0.5186110000000  0.4872360000000 1.0
C      1  0.5342390000000  0.5273380000000  0.5502190000000 1.0
C      1  0.5370900000000  0.5112600000000  0.5207240000000 1.0
C      1  0.4862740000000  0.5521640000000  0.4732730000000 1.0
C      1  0.5688990000000  0.5580420000000  0.5229800000000 1.0
C      1  0.4452920000000  0.5263800000000  0.5616780000000 1.0
C      1  0.5794360000000  0.5376950000000  0.5058890000000 1.0
END
