TITL C-3985253-1688-1044 -0.00196957678072388 125000 -259.09318371865 0 0 60 (S10) n - 1
REM
REM in /home/nfs/bkarasulu/CARBON/AIRSS/Generating-Clusters/TERSOFF/Higher-Symm/Only-C60
REM
REM
REM
REM
REM
REM ./C.cell (28575a23ae977d3b5fae324c64b13b57)
REM
REM compiler GCC version 9.2.1 20190827 (Red Hat 9.2.1-1)
REM options -cpp -mtune=generic -march=x86-64 -g -O0 -fpre-include=/usr/include/finclude/math-vector-fortran.h
REM seed 860443523 -1712260621 -418284891 1636940511 -1894514842 -963812165 -1737850156 445844400 1803357050 -208263859 907072986 -17640174 1692723564 -186376133 -1865578527 118130170 -425830029 614982951 1117153895 778540608 -482604141 1383511014 -764039052 1045619739 2127856889 -822373249 662888977 -2098989477 -2109432758 -2036615594 -601356127 -1618725563 -378719567
REM
CELL 1.54180   50.00000   50.00000   50.00000   90.00000   90.00000   90.00000
LATT -1
SFAC C  
C      1  0.5599760000000  0.4994610000000  0.4403070000000 1.0
C      1  0.4400190000000  0.4644770000000  0.4520290000000 1.0
C      1  0.5599740000000  0.4430600000000  0.4820620000000 1.0
C      1  0.4400240000000  0.4434020000000  0.5189590000000 1.0
C      1  0.5599740000000  0.4653510000000  0.5486120000000 1.0
C      1  0.4400240000000  0.5005390000000  0.5596930000000 1.0
C      1  0.5599810000000  0.5355230000000  0.5479710000000 1.0
C      1  0.4400260000000  0.5569400000000  0.5179380000000 1.0
C      1  0.5599760000000  0.5565980000000  0.4810410000000 1.0
C      1  0.4400260000000  0.5346490000000  0.4513880000000 1.0
C      1  0.5603090000000  0.5254140000000  0.5171890000000 1.0
C      1  0.4397080000000  0.5306570000000  0.4989600000000 1.0
C      1  0.5603160000000  0.5242030000000  0.4811380000000 1.0
C      1  0.4397030000000  0.5084890000000  0.4705200000000 1.0
C      1  0.5602980000000  0.4895360000000  0.4711600000000 1.0
C      1  0.4396910000000  0.4745860000000  0.4828110000000 1.0
C      1  0.5602920000000  0.4693430000000  0.5010400000000 1.0
C      1  0.4396840000000  0.4757970000000  0.5188620000000 1.0
C      1  0.5602970000000  0.4915110000000  0.5294800000000 1.0
C      1  0.4397020000000  0.5104640000000  0.5288400000000 1.0
C      1  0.5353890000000  0.5675110000000  0.4936720000000 1.0
C      1  0.4646060000000  0.5508970000000  0.4551940000000 1.0
C      1  0.5353940000000  0.5148420000000  0.4338370000000 1.0
C      1  0.4646050000000  0.4731170000000  0.4377460000000 1.0
C      1  0.5353930000000  0.4416620000000  0.4654380000000 1.0
C      1  0.4646110000000  0.4324890000000  0.5063280000000 1.0
C      1  0.5353940000000  0.4491030000000  0.5448060000000 1.0
C      1  0.4646060000000  0.4851580000000  0.5661630000000 1.0
C      1  0.5353950000000  0.5268830000000  0.5622540000000 1.0
C      1  0.4646070000000  0.5583380000000  0.5345620000000 1.0
C      1  0.4808200000000  0.5267070000000  0.5056720000000 1.0
C      1  0.5191560000000  0.5249290000000  0.4889030000000 1.0
C      1  0.4808290000000  0.5136450000000  0.4763650000000 1.0
C      1  0.5191720000000  0.4971450000000  0.4728530000000 1.0
C      1  0.4808420000000  0.4817400000000  0.4797150000000 1.0
C      1  0.5191800000000  0.4732930000000  0.4943280000000 1.0
C      1  0.4808440000000  0.4750710000000  0.5110970000000 1.0
C      1  0.5191710000000  0.4863550000000  0.5236350000000 1.0
C      1  0.4808280000000  0.5028550000000  0.5271470000000 1.0
C      1  0.5191580000000  0.5182600000000  0.5202850000000 1.0
C      1  0.4671070000000  0.5289990000000  0.5452220000000 1.0
C      1  0.5328930000000  0.5500450000000  0.5195400000000 1.0
C      1  0.4671020000000  0.5519820000000  0.4863900000000 1.0
C      1  0.5328940000000  0.5340430000000  0.4584450000000 1.0
C      1  0.4671050000000  0.5031150000000  0.4463640000000 1.0
C      1  0.5328930000000  0.4710010000000  0.4547780000000 1.0
C      1  0.4671070000000  0.4499550000000  0.4804600000000 1.0
C      1  0.5328980000000  0.4480180000000  0.5136100000000 1.0
C      1  0.4671060000000  0.4659570000000  0.5415550000000 1.0
C      1  0.5328950000000  0.4968850000000  0.5536360000000 1.0
C      1  0.4966170000000  0.5372830000000  0.4557540000000 1.0
C      1  0.5033770000000  0.5041560000000  0.4422990000000 1.0
C      1  0.4966280000000  0.4694530000000  0.4508820000000 1.0
C      1  0.5033740000000  0.4464100000000  0.4782150000000 1.0
C      1  0.4966330000000  0.4438480000000  0.5138660000000 1.0
C      1  0.5033830000000  0.4627170000000  0.5442460000000 1.0
C      1  0.4966230000000  0.4958440000000  0.5577010000000 1.0
C      1  0.5033720000000  0.5305470000000  0.5491180000000 1.0
C      1  0.4966260000000  0.5535900000000  0.5217850000000 1.0
C      1  0.5033670000000  0.5561520000000  0.4861340000000 1.0
END
