TITL C-3985247-764-669 3.45354917478641e-08 125000 -327.047404319643 0 0 60 (Td) n - 1
REM
REM in /home/nfs/bkarasulu/CARBON/AIRSS/Generating-Clusters/TERSOFF/Higher-Symm/Only-C60
REM
REM
REM
REM
REM
REM ./C.cell (28575a23ae977d3b5fae324c64b13b57)
REM
REM compiler GCC version 9.2.1 20190827 (Red Hat 9.2.1-1)
REM options -cpp -mtune=generic -march=x86-64 -g -O0 -fpre-include=/usr/include/finclude/math-vector-fortran.h
REM seed -1860916431 2747919 -100388758 -598516682 687636411 -50975516 -475802231 1557112846 -1228401122 -1098531017 -408314864 1830532505 -825834068 -615400037 614379145 -904680447 -1431845166 1997763637 -1947719754 -845766164 -271629678 1258285308 -68458959 1806439 1941013833 -945310370 -819760013 1761870922 1274176922 1515786717 -903537224 -943228978 36195415
REM
CELL 1.54180   50.00000   50.00000   50.00000   90.00000   90.00000   90.00000
LATT -1
SFAC C  
C      1  0.4766190000000  0.4991890000000  0.4552190000000 1.0
C      1  0.4991890000000  0.4552190000000  0.4766190000000 1.0
C      1  0.4552190000000  0.4766190000000  0.4991890000000 1.0
C      1  0.5233810000000  0.5008110000000  0.4552190000000 1.0
C      1  0.4766190000000  0.5008110000000  0.5447810000000 1.0
C      1  0.5233810000000  0.4991890000000  0.5447810000000 1.0
C      1  0.5008110000000  0.5447810000000  0.4766190000000 1.0
C      1  0.4991890000000  0.5447810000000  0.5233810000000 1.0
C      1  0.5008110000000  0.4552190000000  0.5233810000000 1.0
C      1  0.5447810000000  0.5233810000000  0.4991890000000 1.0
C      1  0.4552190000000  0.5233810000000  0.5008110000000 1.0
C      1  0.5447810000000  0.4766190000000  0.5008110000000 1.0
C      1  0.4991890000000  0.4766190000000  0.4552190000000 1.0
C      1  0.4552190000000  0.4991890000000  0.4766190000000 1.0
C      1  0.4766190000000  0.4552190000000  0.4991890000000 1.0
C      1  0.5008110000000  0.5233810000000  0.4552190000000 1.0
C      1  0.5008110000000  0.4766190000000  0.5447810000000 1.0
C      1  0.4991890000000  0.5233810000000  0.5447810000000 1.0
C      1  0.5447810000000  0.5008110000000  0.4766190000000 1.0
C      1  0.5447810000000  0.4991890000000  0.5233810000000 1.0
C      1  0.4552190000000  0.5008110000000  0.5233810000000 1.0
C      1  0.5233810000000  0.5447810000000  0.4991890000000 1.0
C      1  0.5233810000000  0.4552190000000  0.5008110000000 1.0
C      1  0.4766190000000  0.5447810000000  0.5008110000000 1.0
C      1  0.4865170000000  0.5712170000000  0.4643950000000 1.0
C      1  0.5712170000000  0.4643950000000  0.4865170000000 1.0
C      1  0.4643950000000  0.4865170000000  0.5712170000000 1.0
C      1  0.5134830000000  0.4287830000000  0.4643950000000 1.0
C      1  0.4865170000000  0.4287830000000  0.5356050000000 1.0
C      1  0.5134830000000  0.5712170000000  0.5356050000000 1.0
C      1  0.4287830000000  0.5356050000000  0.4865170000000 1.0
C      1  0.5712170000000  0.5356050000000  0.5134830000000 1.0
C      1  0.4287830000000  0.4643950000000  0.5134830000000 1.0
C      1  0.5356050000000  0.5134830000000  0.5712170000000 1.0
C      1  0.4643950000000  0.5134830000000  0.4287830000000 1.0
C      1  0.5356050000000  0.4865170000000  0.4287830000000 1.0
C      1  0.5712170000000  0.4865170000000  0.4643950000000 1.0
C      1  0.4643950000000  0.5712170000000  0.4865170000000 1.0
C      1  0.4865170000000  0.4643950000000  0.5712170000000 1.0
C      1  0.4287830000000  0.5134830000000  0.4643950000000 1.0
C      1  0.4287830000000  0.4865170000000  0.5356050000000 1.0
C      1  0.5712170000000  0.5134830000000  0.5356050000000 1.0
C      1  0.5356050000000  0.4287830000000  0.4865170000000 1.0
C      1  0.5356050000000  0.5712170000000  0.5134830000000 1.0
C      1  0.4643950000000  0.4287830000000  0.5134830000000 1.0
C      1  0.5134830000000  0.5356050000000  0.5712170000000 1.0
C      1  0.5134830000000  0.4643950000000  0.4287830000000 1.0
C      1  0.4865170000000  0.5356050000000  0.4287830000000 1.0
C      1  0.5192400000000  0.4361760000000  0.4361760000000 1.0
C      1  0.4361760000000  0.5638240000000  0.4807600000000 1.0
C      1  0.4361760000000  0.4361760000000  0.5192400000000 1.0
C      1  0.5638240000000  0.4361760000000  0.4807600000000 1.0
C      1  0.5638240000000  0.4807600000000  0.4361760000000 1.0
C      1  0.4807600000000  0.4361760000000  0.5638240000000 1.0
C      1  0.4361760000000  0.5192400000000  0.4361760000000 1.0
C      1  0.5638240000000  0.5192400000000  0.5638240000000 1.0
C      1  0.4361760000000  0.4807600000000  0.5638240000000 1.0
C      1  0.4807600000000  0.5638240000000  0.4361760000000 1.0
C      1  0.5192400000000  0.5638240000000  0.5638240000000 1.0
C      1  0.5638240000000  0.5638240000000  0.5192400000000 1.0
END
