TITL C-3985247-764-44 2.5928005105669e-07 125000 -277.319677923676 0 0 60 (Td) n - 1
REM
REM in /home/nfs/bkarasulu/CARBON/AIRSS/Generating-Clusters/TERSOFF/Higher-Symm/Only-C60
REM
REM
REM
REM
REM
REM ./C.cell (28575a23ae977d3b5fae324c64b13b57)
REM
REM compiler GCC version 9.2.1 20190827 (Red Hat 9.2.1-1)
REM options -cpp -mtune=generic -march=x86-64 -g -O0 -fpre-include=/usr/include/finclude/math-vector-fortran.h
REM seed 360789473 1387658074 -2110201059 -877775276 -228178518 1059434254 -1139396410 -1766982214 -658038566 968464484 671559564 803646639 808923491 -1798497524 -1297456784 495623149 -973841551 -689255175 -1313497642 751494894 -1661180606 1922408730 -1538787335 1525557096 -661029315 -1974751887 1712993517 -239979628 842005208 -1188430848 1259447623 999798776 -1931101781
REM
CELL 1.54180   50.00000   50.00000   50.00000   90.00000   90.00000   90.00000
LATT -1
SFAC C  
C      1  0.5233710000000  0.5004160000000  0.5852130000000 1.0
C      1  0.5004160000000  0.5852130000000  0.5233710000000 1.0
C      1  0.5852130000000  0.5233710000000  0.5004160000000 1.0
C      1  0.5233710000000  0.4995840000000  0.4147870000000 1.0
C      1  0.4766290000000  0.5004160000000  0.4147870000000 1.0
C      1  0.4766290000000  0.4995840000000  0.5852130000000 1.0
C      1  0.5004160000000  0.4147870000000  0.4766290000000 1.0
C      1  0.4995840000000  0.5852130000000  0.4766290000000 1.0
C      1  0.4995840000000  0.4147870000000  0.5233710000000 1.0
C      1  0.5852130000000  0.4766290000000  0.4995840000000 1.0
C      1  0.4147870000000  0.5233710000000  0.4995840000000 1.0
C      1  0.4147870000000  0.4766290000000  0.5004160000000 1.0
C      1  0.5233710000000  0.5852130000000  0.5004160000000 1.0
C      1  0.5004160000000  0.5233710000000  0.5852130000000 1.0
C      1  0.5852130000000  0.5004160000000  0.5233710000000 1.0
C      1  0.5233710000000  0.4147870000000  0.4995840000000 1.0
C      1  0.4766290000000  0.4147870000000  0.5004160000000 1.0
C      1  0.4766290000000  0.5852130000000  0.4995840000000 1.0
C      1  0.5004160000000  0.4766290000000  0.4147870000000 1.0
C      1  0.4995840000000  0.4766290000000  0.5852130000000 1.0
C      1  0.4995840000000  0.5233710000000  0.4147870000000 1.0
C      1  0.5852130000000  0.4995840000000  0.4766290000000 1.0
C      1  0.4147870000000  0.4995840000000  0.5233710000000 1.0
C      1  0.4147870000000  0.5004160000000  0.4766290000000 1.0
C      1  0.4451870000000  0.5078970000000  0.5320510000000 1.0
C      1  0.5078970000000  0.5320510000000  0.4451870000000 1.0
C      1  0.5320510000000  0.4451870000000  0.5078970000000 1.0
C      1  0.4451870000000  0.4921030000000  0.4679490000000 1.0
C      1  0.5548130000000  0.5078970000000  0.4679490000000 1.0
C      1  0.5548130000000  0.4921030000000  0.5320510000000 1.0
C      1  0.5078970000000  0.4679490000000  0.5548130000000 1.0
C      1  0.4921030000000  0.5320510000000  0.5548130000000 1.0
C      1  0.4921030000000  0.4679490000000  0.4451870000000 1.0
C      1  0.5320510000000  0.5548130000000  0.4921030000000 1.0
C      1  0.4679490000000  0.4451870000000  0.4921030000000 1.0
C      1  0.4679490000000  0.5548130000000  0.5078970000000 1.0
C      1  0.4451870000000  0.5320510000000  0.5078970000000 1.0
C      1  0.5078970000000  0.4451870000000  0.5320510000000 1.0
C      1  0.5320510000000  0.5078970000000  0.4451870000000 1.0
C      1  0.4451870000000  0.4679490000000  0.4921030000000 1.0
C      1  0.5548130000000  0.4679490000000  0.5078970000000 1.0
C      1  0.5548130000000  0.5320510000000  0.4921030000000 1.0
C      1  0.5078970000000  0.5548130000000  0.4679490000000 1.0
C      1  0.4921030000000  0.5548130000000  0.5320510000000 1.0
C      1  0.4921030000000  0.4451870000000  0.4679490000000 1.0
C      1  0.5320510000000  0.4921030000000  0.5548130000000 1.0
C      1  0.4679490000000  0.4921030000000  0.4451870000000 1.0
C      1  0.4679490000000  0.5078970000000  0.5548130000000 1.0
C      1  0.5113590000000  0.5367630000000  0.5113590000000 1.0
C      1  0.5367630000000  0.5113590000000  0.5113590000000 1.0
C      1  0.5113590000000  0.5113590000000  0.5367630000000 1.0
C      1  0.5113590000000  0.4632370000000  0.4886410000000 1.0
C      1  0.4886410000000  0.5367630000000  0.4886410000000 1.0
C      1  0.4886410000000  0.4632370000000  0.5113590000000 1.0
C      1  0.5367630000000  0.4886410000000  0.4886410000000 1.0
C      1  0.4632370000000  0.5113590000000  0.4886410000000 1.0
C      1  0.4632370000000  0.4886410000000  0.5113590000000 1.0
C      1  0.5113590000000  0.4886410000000  0.4632370000000 1.0
C      1  0.4886410000000  0.5113590000000  0.4632370000000 1.0
C      1  0.4886410000000  0.4886410000000  0.5367630000000 1.0
END
