TITL C-3985259-1859-1326 -4.65818945654298e-07 125000 -321.801766717078 0 0 60 (C1) n - 1
REM
REM in /home/nfs/bkarasulu/CARBON/AIRSS/Generating-Clusters/TERSOFF/Higher-Symm/Only-C60
REM
REM
REM
REM
REM
REM ./C.cell (28575a23ae977d3b5fae324c64b13b57)
REM
REM compiler GCC version 9.2.1 20190827 (Red Hat 9.2.1-1)
REM options -cpp -mtune=generic -march=x86-64 -g -O0 -fpre-include=/usr/include/finclude/math-vector-fortran.h
REM seed 85515508 160072345 1061784049 988264977 568995393 -1301117884 -560864238 -601796857 -506973731 -185462295 -2133107110 -259421797 707493865 -308752628 267019065 1646474987 1754782814 1666694816 1350417423 1659278504 1232872623 -1286582977 -2076396324 -185768778 -2036994113 1004237543 899910846 811689581 -1435077953 1447037964 81340807 -466579531 1135064914
REM
CELL 1.54180   50.00000   50.00000   50.00000   90.00000   90.00000   90.00000
LATT -1
SFAC C  
C      1  0.5696040000000  0.4610600000000  0.4888210000000 1.0
C      1  0.4647020000000  0.4758450000000  0.5284350000000 1.0
C      1  0.4699990000000  0.4475330000000  0.4901130000000 1.0
C      1  0.4467340000000  0.5102470000000  0.5678570000000 1.0
C      1  0.5429280000000  0.4503540000000  0.5058820000000 1.0
C      1  0.4492090000000  0.5129850000000  0.4453070000000 1.0
C      1  0.5733990000000  0.4943760000000  0.4807040000000 1.0
C      1  0.5055660000000  0.5650500000000  0.5393090000000 1.0
C      1  0.5226260000000  0.4201860000000  0.4694760000000 1.0
C      1  0.4963940000000  0.5489040000000  0.4943640000000 1.0
C      1  0.5341160000000  0.4918200000000  0.5707280000000 1.0
C      1  0.5182440000000  0.5203240000000  0.4441820000000 1.0
C      1  0.5185380000000  0.5117680000000  0.5835330000000 1.0
C      1  0.4672130000000  0.4878170000000  0.4779220000000 1.0
C      1  0.4896740000000  0.4396850000000  0.5379050000000 1.0
C      1  0.4382310000000  0.5115610000000  0.5143510000000 1.0
C      1  0.5128190000000  0.4889750000000  0.4349400000000 1.0
C      1  0.5229020000000  0.4801330000000  0.5461880000000 1.0
C      1  0.5452170000000  0.4704130000000  0.5297340000000 1.0
C      1  0.4724120000000  0.5173980000000  0.4686020000000 1.0
C      1  0.5340790000000  0.4374710000000  0.4488570000000 1.0
C      1  0.5381480000000  0.4647630000000  0.4580610000000 1.0
C      1  0.5002360000000  0.4620900000000  0.5547920000000 1.0
C      1  0.4486500000000  0.5409200000000  0.4337360000000 1.0
C      1  0.4742010000000  0.4609700000000  0.4596100000000 1.0
C      1  0.5342770000000  0.5442980000000  0.5370200000000 1.0
C      1  0.4860210000000  0.4732680000000  0.5787380000000 1.0
C      1  0.5608420000000  0.5289340000000  0.4802930000000 1.0
C      1  0.5174570000000  0.5370490000000  0.5681270000000 1.0
C      1  0.4453950000000  0.5380040000000  0.5047720000000 1.0
C      1  0.4766190000000  0.5568380000000  0.4370560000000 1.0
C      1  0.4810670000000  0.5181780000000  0.5422930000000 1.0
C      1  0.5287530000000  0.4702080000000  0.4854800000000 1.0
C      1  0.5484250000000  0.5149640000000  0.4506790000000 1.0
C      1  0.4919330000000  0.4819380000000  0.5178920000000 1.0
C      1  0.5617610000000  0.4954000000000  0.5224070000000 1.0
C      1  0.4697580000000  0.5221130000000  0.5825190000000 1.0
C      1  0.5196940000000  0.4308500000000  0.4969710000000 1.0
C      1  0.4859040000000  0.5445980000000  0.5615230000000 1.0
C      1  0.4928270000000  0.4373240000000  0.5079720000000 1.0
C      1  0.4376800000000  0.4889880000000  0.4925800000000 1.0
C      1  0.5535600000000  0.4859320000000  0.4446770000000 1.0
C      1  0.5583450000000  0.5270950000000  0.5164820000000 1.0
C      1  0.4532680000000  0.5029190000000  0.5391960000000 1.0
C      1  0.5160530000000  0.5289490000000  0.5139110000000 1.0
C      1  0.5437950000000  0.4936210000000  0.4947660000000 1.0
C      1  0.4713470000000  0.5025350000000  0.4269580000000 1.0
C      1  0.4904900000000  0.5269490000000  0.4267500000000 1.0
C      1  0.4954890000000  0.5719350000000  0.5130080000000 1.0
C      1  0.4492160000000  0.4625510000000  0.5062130000000 1.0
C      1  0.4668380000000  0.5421320000000  0.4855930000000 1.0
C      1  0.4292390000000  0.4978120000000  0.4630430000000 1.0
C      1  0.4907850000000  0.5013780000000  0.5890970000000 1.0
C      1  0.5031120000000  0.5488800000000  0.4602360000000 1.0
C      1  0.5036190000000  0.5083330000000  0.4710430000000 1.0
C      1  0.4854190000000  0.4773040000000  0.4349650000000 1.0
C      1  0.4641910000000  0.5638220000000  0.4652900000000 1.0
C      1  0.5050310000000  0.5052930000000  0.5307190000000 1.0
C      1  0.5277380000000  0.5183310000000  0.4891660000000 1.0
C      1  0.4982110000000  0.4786250000000  0.4891520000000 1.0
END
