TITL C-3985247-764-501 -6.44734919817624e-05 125000 -271.82722059613 0 0 60 (S10) n - 1
REM
REM in /home/nfs/bkarasulu/CARBON/AIRSS/Generating-Clusters/TERSOFF/Higher-Symm/Only-C60
REM
REM
REM
REM
REM
REM ./C.cell (28575a23ae977d3b5fae324c64b13b57)
REM
REM compiler GCC version 9.2.1 20190827 (Red Hat 9.2.1-1)
REM options -cpp -mtune=generic -march=x86-64 -g -O0 -fpre-include=/usr/include/finclude/math-vector-fortran.h
REM seed 422761013 1898380998 -1994517833 -673644508 -1393878153 -173537114 747284184 362191931 1964288785 745371791 -129351236 1217605590 1664213520 -700813107 451071453 -828701267 -168063432 1358932618 -264260361 -1017448875 -101590422 -575130065 -764210825 1647877455 318658820 489016577 1090412728 -1613608211 -2026392574 -671131607 854285846 -1779056872 373054517
REM
CELL 1.54180   50.00000   50.00000   50.00000   90.00000   90.00000   90.00000
LATT -1
SFAC C  
C      1  0.4361960000000  0.4674000000000  0.5131910000000 1.0
C      1  0.4292180000000  0.5111360000000  0.4868010000000 1.0
C      1  0.4492810000000  0.5506040000000  0.5132120000000 1.0
C      1  0.4887080000000  0.5707540000000  0.4868010000000 1.0
C      1  0.5324510000000  0.5638770000000  0.5131990000000 1.0
C      1  0.5638040000000  0.5326000000000  0.4868090000000 1.0
C      1  0.5707820000000  0.4888640000000  0.5131990000000 1.0
C      1  0.5507190000000  0.4493960000000  0.4867880000000 1.0
C      1  0.5112920000000  0.4292460000000  0.5131990000000 1.0
C      1  0.4675490000000  0.4361230000000  0.4868010000000 1.0
C      1  0.4714160000000  0.5120080000000  0.5524130000000 1.0
C      1  0.4839330000000  0.5265030000000  0.4475850000000 1.0
C      1  0.5025770000000  0.5308870000000  0.5524060000000 1.0
C      1  0.5202460000000  0.5234870000000  0.4475790000000 1.0
C      1  0.5301800000000  0.5070900000000  0.5524110000000 1.0
C      1  0.5285840000000  0.4879920000000  0.4475870000000 1.0
C      1  0.5160670000000  0.4734970000000  0.5524150000000 1.0
C      1  0.4974230000000  0.4691130000000  0.4475940000000 1.0
C      1  0.4797540000000  0.4765130000000  0.5524210000000 1.0
C      1  0.4698200000000  0.4929100000000  0.4475890000000 1.0
C      1  0.4904690000000  0.4738280000000  0.5191510000000 1.0
C      1  0.4769130000000  0.4844280000000  0.4808590000000 1.0
C      1  0.4721620000000  0.5009640000000  0.5191300000000 1.0
C      1  0.4780600000000  0.5171580000000  0.4808570000000 1.0
C      1  0.4923120000000  0.5267690000000  0.5191420000000 1.0
C      1  0.5095310000000  0.5261720000000  0.4808490000000 1.0
C      1  0.5230870000000  0.5155720000000  0.5191410000000 1.0
C      1  0.5278380000000  0.4990360000000  0.4808700000000 1.0
C      1  0.5219400000000  0.4828420000000  0.5191430000000 1.0
C      1  0.5076880000000  0.4732310000000  0.4808580000000 1.0
C      1  0.5095070000000  0.4404720000000  0.5444570000000 1.0
C      1  0.4726990000000  0.4462560000000  0.4555380000000 1.0
C      1  0.4463180000000  0.4725770000000  0.5444520000000 1.0
C      1  0.4404490000000  0.5093630000000  0.4555470000000 1.0
C      1  0.4573480000000  0.5425790000000  0.5444720000000 1.0
C      1  0.4904930000000  0.5595280000000  0.4555430000000 1.0
C      1  0.5273010000000  0.5537440000000  0.5444620000000 1.0
C      1  0.5536820000000  0.5274230000000  0.4555480000000 1.0
C      1  0.5595510000000  0.4906370000000  0.5444530000000 1.0
C      1  0.5426520000000  0.4574210000000  0.4555280000000 1.0
C      1  0.5472150000000  0.4599800000000  0.5446620000000 1.0
C      1  0.5146630000000  0.4398460000000  0.4553420000000 1.0
C      1  0.4765360000000  0.4427210000000  0.5446640000000 1.0
C      1  0.4473420000000  0.4674510000000  0.4553330000000 1.0
C      1  0.4382650000000  0.5046290000000  0.5446510000000 1.0
C      1  0.4527850000000  0.5400200000000  0.4553380000000 1.0
C      1  0.4853370000000  0.5601540000000  0.5446580000000 1.0
C      1  0.5234640000000  0.5572790000000  0.4553360000000 1.0
C      1  0.5526580000000  0.5325490000000  0.5446670000000 1.0
C      1  0.5617350000000  0.4953710000000  0.4553490000000 1.0
C      1  0.5598940000000  0.5022230000000  0.4885150000000 1.0
C      1  0.5497610000000  0.4665930000000  0.5114890000000 1.0
C      1  0.5206180000000  0.4437290000000  0.4885100000000 1.0
C      1  0.4836110000000  0.4423510000000  0.5114920000000 1.0
C      1  0.4528550000000  0.4629960000000  0.4885040000000 1.0
C      1  0.4401060000000  0.4977770000000  0.5114850000000 1.0
C      1  0.4502390000000  0.5334070000000  0.4885110000000 1.0
C      1  0.4793820000000  0.5562710000000  0.5114900000000 1.0
C      1  0.5163890000000  0.5576490000000  0.4885080000000 1.0
C      1  0.5471450000000  0.5370040000000  0.5114960000000 1.0
END
