TITL C-3985248-2097-102 -0.000254127641686058 125000 -293.06560330049 0 0 60 (C1) n - 1
REM
REM in /home/nfs/bkarasulu/CARBON/AIRSS/Generating-Clusters/TERSOFF/Higher-Symm/Only-C60
REM
REM
REM
REM
REM
REM ./C.cell (28575a23ae977d3b5fae324c64b13b57)
REM
REM compiler GCC version 9.2.1 20190827 (Red Hat 9.2.1-1)
REM options -cpp -mtune=generic -march=x86-64 -g -O0 -fpre-include=/usr/include/finclude/math-vector-fortran.h
REM seed -862225092 -1110798589 -1256236641 -17360004 1647051194 276221258 -221753505 1741028627 -703992125 1227011516 -2072721173 733484595 -1064012160 753078403 1330269915 -1661584161 -521744038 -1130711700 -134323322 578086620 -620245195 -91482862 -621069539 193463061 -929759531 908978409 1327945475 1614524046 2110857380 2066779730 -1275540520 -1833332121 554302032
REM
CELL 1.54180   50.00000   50.00000   50.00000   90.00000   90.00000   90.00000
LATT -1
SFAC C  
C      1  0.4399920000000  0.5199530000000  0.5315080000000 1.0
C      1  0.5425570000000  0.5406210000000  0.5306720000000 1.0
C      1  0.5125400000000  0.4419500000000  0.5342030000000 1.0
C      1  0.4552920000000  0.5425080000000  0.4642770000000 1.0
C      1  0.5567510000000  0.5214920000000  0.4629560000000 1.0
C      1  0.5014720000000  0.4361810000000  0.4663450000000 1.0
C      1  0.5683270000000  0.5219110000000  0.5190290000000 1.0
C      1  0.4821930000000  0.4313010000000  0.5192620000000 1.0
C      1  0.4481020000000  0.5517870000000  0.5222670000000 1.0
C      1  0.4496140000000  0.4980910000000  0.5064380000000 1.0
C      1  0.5204250000000  0.5443510000000  0.5055760000000 1.0
C      1  0.5301900000000  0.4571410000000  0.5099690000000 1.0
C      1  0.4824070000000  0.4768580000000  0.4685870000000 1.0
C      1  0.4923020000000  0.5174280000000  0.4685730000000 1.0
C      1  0.5263050000000  0.4930290000000  0.4674890000000 1.0
C      1  0.4626690000000  0.5540230000000  0.5512670000000 1.0
C      1  0.5683230000000  0.5086300000000  0.5481650000000 1.0
C      1  0.4710540000000  0.4407680000000  0.5481370000000 1.0
C      1  0.4956980000000  0.5365740000000  0.4313630000000 1.0
C      1  0.5314620000000  0.4849470000000  0.4266300000000 1.0
C      1  0.4681420000000  0.4728570000000  0.4293680000000 1.0
C      1  0.5158360000000  0.5597250000000  0.4777130000000 1.0
C      1  0.5460350000000  0.4561060000000  0.4820020000000 1.0
C      1  0.4358070000000  0.4914040000000  0.4793980000000 1.0
C      1  0.4990010000000  0.5565080000000  0.5260440000000 1.0
C      1  0.5550910000000  0.4712050000000  0.5253030000000 1.0
C      1  0.4465900000000  0.4706860000000  0.5232870000000 1.0
C      1  0.4708540000000  0.4932400000000  0.5655050000000 1.0
C      1  0.5014720000000  0.5123880000000  0.5681950000000 1.0
C      1  0.5239700000000  0.4840640000000  0.5665080000000 1.0
C      1  0.5053190000000  0.4644090000000  0.5532200000000 1.0
C      1  0.4667680000000  0.5130550000000  0.5431470000000 1.0
C      1  0.5291300000000  0.5230580000000  0.5519010000000 1.0
C      1  0.4879410000000  0.4493440000000  0.4375270000000 1.0
C      1  0.4674070000000  0.5301190000000  0.4373270000000 1.0
C      1  0.5423510000000  0.5122040000000  0.4337680000000 1.0
C      1  0.4542880000000  0.4481980000000  0.5039780000000 1.0
C      1  0.4753770000000  0.5664970000000  0.5102250000000 1.0
C      1  0.5694710000000  0.4900080000000  0.5062120000000 1.0
C      1  0.5315970000000  0.4386670000000  0.4632180000000 1.0
C      1  0.4330310000000  0.5173690000000  0.4636960000000 1.0
C      1  0.5438810000000  0.5527520000000  0.4643180000000 1.0
C      1  0.5604890000000  0.4870200000000  0.4752130000000 1.0
C      1  0.4532990000000  0.4631330000000  0.4752980000000 1.0
C      1  0.4801020000000  0.5639470000000  0.4793550000000 1.0
C      1  0.4927810000000  0.4822300000000  0.5314690000000 1.0
C      1  0.4900700000000  0.5153290000000  0.5246250000000 1.0
C      1  0.5189580000000  0.5031150000000  0.5294680000000 1.0
C      1  0.4920350000000  0.5445220000000  0.5547310000000 1.0
C      1  0.5513360000000  0.4842540000000  0.5526000000000 1.0
C      1  0.4584040000000  0.4677750000000  0.5507660000000 1.0
C      1  0.5116690000000  0.4722010000000  0.4477030000000 1.0
C      1  0.4679550000000  0.4993930000000  0.4488290000000 1.0
C      1  0.5168280000000  0.5238010000000  0.4504890000000 1.0
C      1  0.4811510000000  0.4803360000000  0.5015030000000 1.0
C      1  0.4897040000000  0.5272170000000  0.4971110000000 1.0
C      1  0.5278420000000  0.4919820000000  0.5010770000000 1.0
C      1  0.4978660000000  0.4488780000000  0.4955890000000 1.0
C      1  0.4588260000000  0.5308220000000  0.4957090000000 1.0
C      1  0.5436530000000  0.5206420000000  0.4938920000000 1.0
END
