TITL C-3985245-9316-67 3.22723748977745e-07 125000 -320.194209800265 0 0 60 (C3i) n - 1
REM
REM in /home/nfs/bkarasulu/CARBON/AIRSS/Generating-Clusters/TERSOFF/Higher-Symm/Only-C60
REM
REM
REM
REM
REM
REM ./C.cell (28575a23ae977d3b5fae324c64b13b57)
REM
REM compiler GCC version 9.2.1 20190827 (Red Hat 9.2.1-1)
REM options -cpp -mtune=generic -march=x86-64 -g -O0 -fpre-include=/usr/include/finclude/math-vector-fortran.h
REM seed 260867363 -979803014 209456655 -1254644774 1544400644 -1631966187 -1065810714 1995474093 -1631517215 852242601 -429599371 783179042 -615502949 1550507350 578041668 1662563729 321021613 1495891768 554640373 -370674821 -156341510 -1958356669 -87113580 -600282685 -183144288 2006123434 913663501 -726176729 -1102396544 -1256486497 -2029761523 246230144 450611674
REM
CELL 1.54180   50.00000   50.00000   50.00000   90.00000   90.00000   90.00000
LATT -1
SFAC C  
C      1  0.5302190000000  0.5014900000000  0.4437520000000 1.0
C      1  0.5138190000000  0.5269150000000  0.5562480000000 1.0
C      1  0.4836000000000  0.5254260000000  0.4437530000000 1.0
C      1  0.4697810000000  0.4985100000000  0.5562480000000 1.0
C      1  0.4861810000000  0.4730850000000  0.4437520000000 1.0
C      1  0.5164000000000  0.4745740000000  0.5562470000000 1.0
C      1  0.4742630000000  0.5260510000000  0.5181150000000 1.0
C      1  0.4645710000000  0.4907360000000  0.4818850000000 1.0
C      1  0.4903080000000  0.4646850000000  0.5181150000000 1.0
C      1  0.5257370000000  0.4739490000000  0.4818850000000 1.0
C      1  0.5354290000000  0.5092640000000  0.5181150000000 1.0
C      1  0.5096920000000  0.5353150000000  0.4818850000000 1.0
C      1  0.5144830000000  0.5276850000000  0.4409170000000 1.0
C      1  0.4832660000000  0.5263840000000  0.5590830000000 1.0
C      1  0.4687830000000  0.4987010000000  0.4409170000000 1.0
C      1  0.4855170000000  0.4723150000000  0.5590830000000 1.0
C      1  0.5167340000000  0.4736160000000  0.4409170000000 1.0
C      1  0.5312170000000  0.5012990000000  0.5590830000000 1.0
C      1  0.4325180000000  0.5334600000000  0.4960020000000 1.0
C      1  0.4372820000000  0.4582890000000  0.5039980000000 1.0
C      1  0.5047640000000  0.4248290000000  0.4960010000000 1.0
C      1  0.5674820000000  0.4665400000000  0.5039980000000 1.0
C      1  0.5627180000000  0.5417110000000  0.4960020000000 1.0
C      1  0.4952360000000  0.5751710000000  0.5039990000000 1.0
C      1  0.5205740000000  0.4611400000000  0.5289460000000 1.0
C      1  0.5439400000000  0.4983880000000  0.4710530000000 1.0
C      1  0.5233660000000  0.5372470000000  0.5289470000000 1.0
C      1  0.4794260000000  0.5388600000000  0.4710540000000 1.0
C      1  0.4560600000000  0.5016120000000  0.5289470000000 1.0
C      1  0.4766340000000  0.4627530000000  0.4710530000000 1.0
C      1  0.5612820000000  0.5041840000000  0.5392110000000 1.0
C      1  0.5270180000000  0.5551640000000  0.4607890000000 1.0
C      1  0.4657360000000  0.5509800000000  0.5392120000000 1.0
C      1  0.4387180000000  0.4958160000000  0.4607890000000 1.0
C      1  0.4729820000000  0.4448360000000  0.5392110000000 1.0
C      1  0.5342640000000  0.4490200000000  0.4607880000000 1.0
C      1  0.4756080000000  0.4268210000000  0.5078420000000 1.0
C      1  0.5511780000000  0.4422870000000  0.4921570000000 1.0
C      1  0.5755710000000  0.5154650000000  0.5078420000000 1.0
C      1  0.5243920000000  0.5731790000000  0.4921580000000 1.0
C      1  0.4488220000000  0.5577130000000  0.5078430000000 1.0
C      1  0.4244290000000  0.4845350000000  0.4921580000000 1.0
C      1  0.5724310000000  0.4761160000000  0.5329130000000 1.0
C      1  0.5569000000000  0.5507860000000  0.4670870000000 1.0
C      1  0.4844690000000  0.5746690000000  0.5329140000000 1.0
C      1  0.4275690000000  0.5238840000000  0.4670870000000 1.0
C      1  0.4431000000000  0.4492140000000  0.5329130000000 1.0
C      1  0.5155310000000  0.4253310000000  0.4670860000000 1.0
C      1  0.4997540000000  0.4575450000000  0.4895160000000 1.0
C      1  0.5366440000000  0.4785590000000  0.5104830000000 1.0
C      1  0.5368900000000  0.5210150000000  0.4895170000000 1.0
C      1  0.5002460000000  0.5424550000000  0.5104840000000 1.0
C      1  0.4633560000000  0.5214410000000  0.4895170000000 1.0
C      1  0.4631100000000  0.4789850000000  0.5104830000000 1.0
C      1  0.5291420000000  0.4344920000000  0.5129490000000 1.0
C      1  0.5713020000000  0.4924840000000  0.4870500000000 1.0
C      1  0.5421610000000  0.5579910000000  0.5129500000000 1.0
C      1  0.4708580000000  0.5655080000000  0.4870510000000 1.0
C      1  0.4286980000000  0.5075160000000  0.5129500000000 1.0
C      1  0.4578390000000  0.4420090000000  0.4870500000000 1.0
END
