TITL C-3985259-1859-1264 0.000139973961784306 125000 -345.329287736004 0 0 60 (C5) n - 1
REM
REM in /home/nfs/bkarasulu/CARBON/AIRSS/Generating-Clusters/TERSOFF/Higher-Symm/Only-C60
REM
REM
REM
REM
REM
REM ./C.cell (28575a23ae977d3b5fae324c64b13b57)
REM
REM compiler GCC version 9.2.1 20190827 (Red Hat 9.2.1-1)
REM options -cpp -mtune=generic -march=x86-64 -g -O0 -fpre-include=/usr/include/finclude/math-vector-fortran.h
REM seed -231082261 434744473 -280071692 1901546210 -931847179 7839681 -277803181 -543531158 -1116870658 968573942 -725535527 1627142812 -1060026332 402177380 -1080914693 709825385 -2041363748 1617388981 2012369518 200577990 546920770 -1450699777 294727857 -541712642 -949072063 1231707355 186226014 203569396 -1660830447 -1698142427 -311182057 318563712 -1628399052
REM
CELL 1.54180   50.00000   50.00000   50.00000   90.00000   90.00000   90.00000
LATT -1
SFAC C  
C      1  0.5009060000000  0.4446430000000  0.4655800000000 1.0
C      1  0.5008980000000  0.5156300000000  0.4367300000000 1.0
C      1  0.5008960000000  0.5650200000000  0.4953100000000 1.0
C      1  0.5009040000000  0.5245480000000  0.5603750000000 1.0
C      1  0.5009030000000  0.4501580000000  0.5420080000000 1.0
C      1  0.4724160000000  0.5009130000000  0.4754570000000 1.0
C      1  0.4724090000000  0.5236290000000  0.4932770000000 1.0
C      1  0.4724100000000  0.5136980000000  0.5203870000000 1.0
C      1  0.4724160000000  0.4848470000000  0.5193230000000 1.0
C      1  0.4724200000000  0.4769440000000  0.4915550000000 1.0
C      1  0.5031520000000  0.5434940000000  0.5359430000000 1.0
C      1  0.5031510000000  0.4792500000000  0.5524780000000 1.0
C      1  0.5031580000000  0.4436810000000  0.4964840000000 1.0
C      1  0.5031560000000  0.4859390000000  0.4453530000000 1.0
C      1  0.5031440000000  0.5476350000000  0.4697390000000 1.0
C      1  0.4724320000000  0.4510670000000  0.4575070000000 1.0
C      1  0.4724250000000  0.5252930000000  0.4403350000000 1.0
C      1  0.4724220000000  0.5645720000000  0.5056180000000 1.0
C      1  0.4724290000000  0.5146110000000  0.5631380000000 1.0
C      1  0.4724290000000  0.4444660000000  0.5334050000000 1.0
C      1  0.4305030000000  0.5153670000000  0.5218450000000 1.0
C      1  0.4305090000000  0.4839730000000  0.5213620000000 1.0
C      1  0.4305140000000  0.4747290000000  0.4913580000000 1.0
C      1  0.4305090000000  0.5004070000000  0.4732940000000 1.0
C      1  0.4305040000000  0.5255250000000  0.4921350000000 1.0
C      1  0.5137030000000  0.5218090000000  0.4860010000000 1.0
C      1  0.5137060000000  0.5200540000000  0.5164140000000 1.0
C      1  0.5137120000000  0.4905860000000  0.5241440000000 1.0
C      1  0.5137160000000  0.4741280000000  0.4985070000000 1.0
C      1  0.5137100000000  0.4934250000000  0.4749340000000 1.0
C      1  0.5616770000000  0.5206480000000  0.4852170000000 1.0
C      1  0.5616800000000  0.5204390000000  0.5150730000000 1.0
C      1  0.5616800000000  0.4919770000000  0.5240970000000 1.0
C      1  0.5616820000000  0.4745980000000  0.4998200000000 1.0
C      1  0.5616800000000  0.4923190000000  0.4757910000000 1.0
C      1  0.4544110000000  0.4522490000000  0.4836970000000 1.0
C      1  0.4544020000000  0.5007480000000  0.4495460000000 1.0
C      1  0.4543960000000  0.5482230000000  0.4851200000000 1.0
C      1  0.4543970000000  0.5290550000000  0.5412610000000 1.0
C      1  0.4544060000000  0.4697400000000  0.5403770000000 1.0
C      1  0.5270200000000  0.5028890000000  0.5643140000000 1.0
C      1  0.5270200000000  0.4397170000000  0.5226280000000 1.0
C      1  0.5270210000000  0.4598470000000  0.4496640000000 1.0
C      1  0.5270120000000  0.5354640000000  0.4462680000000 1.0
C      1  0.5270180000000  0.5620660000000  0.5171260000000 1.0
C      1  0.4739610000000  0.5537400000000  0.5328360000000 1.0
C      1  0.4739610000000  0.4853770000000  0.5612530000000 1.0
C      1  0.4739670000000  0.4372320000000  0.5050190000000 1.0
C      1  0.4739650000000  0.4758280000000  0.4418550000000 1.0
C      1  0.4739530000000  0.5478390000000  0.4590390000000 1.0
C      1  0.5423950000000  0.5648840000000  0.4889680000000 1.0
C      1  0.5424030000000  0.5305400000000  0.5583010000000 1.0
C      1  0.5424020000000  0.4539850000000  0.5470640000000 1.0
C      1  0.5424050000000  0.4410160000000  0.4707860000000 1.0
C      1  0.5423970000000  0.5095580000000  0.4348830000000 1.0
C      1  0.5474290000000  0.4490830000000  0.4984180000000 1.0
C      1  0.5474250000000  0.4857700000000  0.4510910000000 1.0
C      1  0.5474210000000  0.5421150000000  0.4713560000000 1.0
C      1  0.5474250000000  0.5402550000000  0.5312040000000 1.0
C      1  0.5474280000000  0.4827570000000  0.5479290000000 1.0
END
