TITL C-3985250-725-1018 -0.000933770271932983 125000 -273.309641807651 0 0 60 (S12) n - 1
REM
REM in /home/nfs/bkarasulu/CARBON/AIRSS/Generating-Clusters/TERSOFF/Higher-Symm/Only-C60
REM
REM
REM
REM
REM
REM ./C.cell (28575a23ae977d3b5fae324c64b13b57)
REM
REM compiler GCC version 9.2.1 20190827 (Red Hat 9.2.1-1)
REM options -cpp -mtune=generic -march=x86-64 -g -O0 -fpre-include=/usr/include/finclude/math-vector-fortran.h
REM seed -51315680 1739653303 1385198777 -145136105 1876679818 -1546140660 1396470150 385327113 -1696117566 -412753698 -748491969 780383197 -4833337 553673533 -1750157401 -53722856 -2026753462 2128567950 -1462081787 973236463 1884058797 -960629169 -848875070 1533210641 -643571390 -1319484434 913690693 1121459168 -387700135 -2132985025 -956537344 349237796 -1446140401
REM
CELL 1.54180   50.00000   50.00000   50.00000   90.00000   90.00000   90.00000
LATT -1
SFAC C  
C      1  0.4742960000000  0.4784280000000  0.4798840000000 1.0
C      1  0.4885260000000  0.4684670000000  0.5201170000000 1.0
C      1  0.5058300000000  0.4669550000000  0.4798850000000 1.0
C      1  0.5215720000000  0.4742960000000  0.5201160000000 1.0
C      1  0.5315330000000  0.4885260000000  0.4798830000000 1.0
C      1  0.5330450000000  0.5058300000000  0.5201150000000 1.0
C      1  0.5257040000000  0.5215720000000  0.4798840000000 1.0
C      1  0.5114740000000  0.5315330000000  0.5201170000000 1.0
C      1  0.4941700000000  0.5330450000000  0.4798850000000 1.0
C      1  0.4784280000000  0.5257040000000  0.5201160000000 1.0
C      1  0.4684670000000  0.5114740000000  0.4798830000000 1.0
C      1  0.4669550000000  0.4941700000000  0.5201150000000 1.0
C      1  0.5387500000000  0.4476850000000  0.5124510000000 1.0
C      1  0.5597120000000  0.4740680000000  0.4875490000000 1.0
C      1  0.5646780000000  0.5074000000000  0.5124470000000 1.0
C      1  0.5523160000000  0.5387490000000  0.4875480000000 1.0
C      1  0.5259320000000  0.5597130000000  0.5124520000000 1.0
C      1  0.4926000000000  0.5646790000000  0.4875510000000 1.0
C      1  0.4612490000000  0.5523150000000  0.5124520000000 1.0
C      1  0.4402880000000  0.5259320000000  0.4875500000000 1.0
C      1  0.4353220000000  0.4926010000000  0.5124470000000 1.0
C      1  0.4476840000000  0.4612510000000  0.4875480000000 1.0
C      1  0.4740680000000  0.4402870000000  0.5124530000000 1.0
C      1  0.5074010000000  0.4353210000000  0.4875510000000 1.0
C      1  0.4277160000000  0.4829850000000  0.4826080000000 1.0
C      1  0.4459050000000  0.4491220000000  0.5173900000000 1.0
C      1  0.4785930000000  0.4288920000000  0.4826120000000 1.0
C      1  0.5170150000000  0.4277150000000  0.5173920000000 1.0
C      1  0.5508780000000  0.4459050000000  0.4826100000000 1.0
C      1  0.5711080000000  0.4785930000000  0.5173880000000 1.0
C      1  0.5722840000000  0.5170150000000  0.4826080000000 1.0
C      1  0.5540950000000  0.5508780000000  0.5173900000000 1.0
C      1  0.5214070000000  0.5711080000000  0.4826120000000 1.0
C      1  0.4829850000000  0.5722850000000  0.5173920000000 1.0
C      1  0.4491220000000  0.5540950000000  0.4826100000000 1.0
C      1  0.4288920000000  0.5214070000000  0.5173880000000 1.0
C      1  0.5364520000000  0.4500040000000  0.4552480000000 1.0
C      1  0.5565650000000  0.4749280000000  0.5447500000000 1.0
C      1  0.5615240000000  0.5065700000000  0.4552480000000 1.0
C      1  0.5499960000000  0.5364520000000  0.5447520000000 1.0
C      1  0.5250720000000  0.5565650000000  0.4552500000000 1.0
C      1  0.4934300000000  0.5615240000000  0.5447520000000 1.0
C      1  0.4635480000000  0.5499960000000  0.4552480000000 1.0
C      1  0.4434350000000  0.5250720000000  0.5447500000000 1.0
C      1  0.4384760000000  0.4934300000000  0.4552480000000 1.0
C      1  0.4500040000000  0.4635480000000  0.5447520000000 1.0
C      1  0.4749280000000  0.4434350000000  0.4552500000000 1.0
C      1  0.5065700000000  0.4384760000000  0.5447520000000 1.0
C      1  0.4702770000000  0.4785380000000  0.4459760000000 1.0
C      1  0.4849860000000  0.4665530000000  0.5540240000000 1.0
C      1  0.5037220000000  0.4635260000000  0.4459780000000 1.0
C      1  0.5214620000000  0.4702770000000  0.5540240000000 1.0
C      1  0.5334470000000  0.4849860000000  0.4459760000000 1.0
C      1  0.5364740000000  0.5037220000000  0.5540220000000 1.0
C      1  0.5297230000000  0.5214620000000  0.4459760000000 1.0
C      1  0.5150140000000  0.5334470000000  0.5540240000000 1.0
C      1  0.4962780000000  0.5364740000000  0.4459780000000 1.0
C      1  0.4785380000000  0.5297230000000  0.5540240000000 1.0
C      1  0.4665530000000  0.5150140000000  0.4459760000000 1.0
C      1  0.4635260000000  0.4962780000000  0.5540220000000 1.0
END
