TITL C-3985247-764-46 3.12114721990969e-07 125000 -326.649065922951 0 0 60 (C1) n - 1
REM
REM in /home/nfs/bkarasulu/CARBON/AIRSS/Generating-Clusters/TERSOFF/Higher-Symm/Only-C60
REM
REM
REM
REM
REM
REM ./C.cell (28575a23ae977d3b5fae324c64b13b57)
REM
REM compiler GCC version 9.2.1 20190827 (Red Hat 9.2.1-1)
REM options -cpp -mtune=generic -march=x86-64 -g -O0 -fpre-include=/usr/include/finclude/math-vector-fortran.h
REM seed 61366515 1158939996 980383385 -1120410288 -1513538770 1519959111 1570467793 -195078997 -183255604 444767490 -1388003718 -1640221079 1398321886 1055615694 -1105375007 -753295632 533457215 -2066971582 1339471755 -1891117541 1409369049 1311516577 -433574380 -290761094 -347137487 -550073049 -705543568 -964359624 -1160442209 2118651717 559444532 864031061 1815232781
REM
CELL 1.54180   50.00000   50.00000   50.00000   90.00000   90.00000   90.00000
LATT -1
SFAC C  
C      1  0.4393040000000  0.4860230000000  0.5600690000000 1.0
C      1  0.4411850000000  0.4545680000000  0.4579820000000 1.0
C      1  0.4391620000000  0.5532630000000  0.4847720000000 1.0
C      1  0.5086850000000  0.5018230000000  0.4237390000000 1.0
C      1  0.5091590000000  0.5642950000000  0.5399650000000 1.0
C      1  0.5066430000000  0.4345130000000  0.5351900000000 1.0
C      1  0.4441160000000  0.5179870000000  0.5218660000000 1.0
C      1  0.4458720000000  0.4860020000000  0.5049120000000 1.0
C      1  0.4421450000000  0.5023610000000  0.4728640000000 1.0
C      1  0.4852060000000  0.4489940000000  0.4902270000000 1.0
C      1  0.4833340000000  0.5334730000000  0.4586450000000 1.0
C      1  0.4845690000000  0.5190660000000  0.5533870000000 1.0
C      1  0.5458760000000  0.5019270000000  0.4582670000000 1.0
C      1  0.5461680000000  0.5346250000000  0.5223660000000 1.0
C      1  0.5454000000000  0.4633770000000  0.5191890000000 1.0
C      1  0.5475190000000  0.4766200000000  0.5466460000000 1.0
C      1  0.5483280000000  0.4715110000000  0.4566090000000 1.0
C      1  0.5478630000000  0.5514000000000  0.4967910000000 1.0
C      1  0.5200850000000  0.4803440000000  0.5589720000000 1.0
C      1  0.5211850000000  0.4590290000000  0.4529720000000 1.0
C      1  0.5201790000000  0.5598980000000  0.4879150000000 1.0
C      1  0.5679910000000  0.4969650000000  0.5492010000000 1.0
C      1  0.5683740000000  0.4590850000000  0.4734560000000 1.0
C      1  0.5680600000000  0.5437150000000  0.4776190000000 1.0
C      1  0.4827590000000  0.5523450000000  0.5512700000000 1.0
C      1  0.4805090000000  0.4325290000000  0.5179630000000 1.0
C      1  0.4816430000000  0.5166410000000  0.4296950000000 1.0
C      1  0.4635700000000  0.4613980000000  0.5253590000000 1.0
C      1  0.4638680000000  0.4950080000000  0.4484240000000 1.0
C      1  0.4648980000000  0.5436940000000  0.5239180000000 1.0
C      1  0.5299300000000  0.5294560000000  0.5691130000000 1.0
C      1  0.5285430000000  0.4261020000000  0.4912360000000 1.0
C      1  0.5281580000000  0.5444760000000  0.4399430000000 1.0
C      1  0.5226320000000  0.4820830000000  0.5082240000000 1.0
C      1  0.5222380000000  0.5019640000000  0.4792480000000 1.0
C      1  0.5225130000000  0.5165620000000  0.5122350000000 1.0
C      1  0.5006720000000  0.4632590000000  0.5452180000000 1.0
C      1  0.5024180000000  0.4791650000000  0.4437410000000 1.0
C      1  0.5019400000000  0.5579960000000  0.5104100000000 1.0
C      1  0.4260550000000  0.4814480000000  0.5318620000000 1.0
C      1  0.4232950000000  0.4796320000000  0.4613810000000 1.0
C      1  0.4247040000000  0.5361150000000  0.5054670000000 1.0
C      1  0.4568270000000  0.4603220000000  0.4839380000000 1.0
C      1  0.4526210000000  0.5321360000000  0.4685910000000 1.0
C      1  0.4534340000000  0.5114150000000  0.5511550000000 1.0
C      1  0.4570290000000  0.4634340000000  0.5537700000000 1.0
C      1  0.4589420000000  0.4678270000000  0.4378300000000 1.0
C      1  0.4581520000000  0.5646190000000  0.5043760000000 1.0
C      1  0.5693790000000  0.4625600000000  0.5020980000000 1.0
C      1  0.5695860000000  0.5172900000000  0.4663670000000 1.0
C      1  0.5697710000000  0.5196090000000  0.5314300000000 1.0
C      1  0.5316970000000  0.4357960000000  0.5187570000000 1.0
C      1  0.5326540000000  0.5160650000000  0.4343090000000 1.0
C      1  0.5333760000000  0.5482160000000  0.5467130000000 1.0
C      1  0.4937320000000  0.5272110000000  0.5194990000000 1.0
C      1  0.4937250000000  0.4722150000000  0.5146070000000 1.0
C      1  0.4928590000000  0.5005040000000  0.4667670000000 1.0
C      1  0.5102820000000  0.5076660000000  0.5668700000000 1.0
C      1  0.5100350000000  0.4404310000000  0.4735890000000 1.0
C      1  0.5091440000000  0.5519510000000  0.4610030000000 1.0
END
