TITL C-3985253-1688-1080 0.00177824027342913 125000 -298.246746768843 0 0 60 (D3) n - 1
REM
REM in /home/nfs/bkarasulu/CARBON/AIRSS/Generating-Clusters/TERSOFF/Higher-Symm/Only-C60
REM
REM
REM
REM
REM
REM ./C.cell (28575a23ae977d3b5fae324c64b13b57)
REM
REM compiler GCC version 9.2.1 20190827 (Red Hat 9.2.1-1)
REM options -cpp -mtune=generic -march=x86-64 -g -O0 -fpre-include=/usr/include/finclude/math-vector-fortran.h
REM seed -1197105290 1713814601 1354621869 -765515875 -799143416 1048056490 487058131 64196829 -1816283420 756369978 -578951764 -557435099 -346797524 1660385654 1410001088 1705435698 -1589643937 -340598434 804729820 -1416442176 1726841883 -1562422213 -1770735630 -442616788 -878967604 1042804379 990990517 -1120023633 1139752954 -374816971 -248120720 1372385360 212409053
REM
CELL 1.54180   50.00000   50.00000   50.00000   90.00000   90.00000   90.00000
LATT -1
SFAC C  
C      1  0.5408390000000  0.4608310000000  0.4956620000000 1.0
C      1  0.5135590000000  0.5548500000000  0.4961370000000 1.0
C      1  0.4457340000000  0.4841910000000  0.4956840000000 1.0
C      1  0.4591700000000  0.4608450000000  0.5043340000000 1.0
C      1  0.4864460000000  0.5548420000000  0.5038600000000 1.0
C      1  0.5542550000000  0.4841900000000  0.5043360000000 1.0
C      1  0.5213480000000  0.4637230000000  0.5327400000000 1.0
C      1  0.5208940000000  0.5364850000000  0.5331730000000 1.0
C      1  0.4580910000000  0.4998510000000  0.5326280000000 1.0
C      1  0.4786580000000  0.4637320000000  0.4672630000000 1.0
C      1  0.4791260000000  0.5364970000000  0.4668130000000 1.0
C      1  0.5419250000000  0.4998450000000  0.4673700000000 1.0
C      1  0.4834010000000  0.5753530000000  0.5276920000000 1.0
C      1  0.4426620000000  0.4485220000000  0.5282800000000 1.0
C      1  0.5733320000000  0.4760350000000  0.5281200000000 1.0
C      1  0.5165940000000  0.5753560000000  0.4723000000000 1.0
C      1  0.5573420000000  0.4485160000000  0.4717230000000 1.0
C      1  0.4266640000000  0.4760320000000  0.4718760000000 1.0
C      1  0.4681240000000  0.5269350000000  0.5293020000000 1.0
C      1  0.4928310000000  0.4589380000000  0.5292830000000 1.0
C      1  0.5394640000000  0.5143610000000  0.5294480000000 1.0
C      1  0.5318690000000  0.5269400000000  0.4706920000000 1.0
C      1  0.5071470000000  0.4589360000000  0.4707160000000 1.0
C      1  0.4605460000000  0.5143940000000  0.4705240000000 1.0
C      1  0.5658150000000  0.5239760000000  0.5106890000000 1.0
C      1  0.4462200000000  0.5452020000000  0.5104420000000 1.0
C      1  0.4878630000000  0.4310090000000  0.5106690000000 1.0
C      1  0.4342030000000  0.5239320000000  0.4893250000000 1.0
C      1  0.5537830000000  0.5451930000000  0.4895640000000 1.0
C      1  0.5121130000000  0.4310320000000  0.4893230000000 1.0
C      1  0.4658570000000  0.4885460000000  0.4560920000000 1.0
C      1  0.5266180000000  0.4765770000000  0.4561220000000 1.0
C      1  0.5069140000000  0.5346810000000  0.4557770000000 1.0
C      1  0.5341400000000  0.4885440000000  0.5439140000000 1.0
C      1  0.4733780000000  0.4765750000000  0.5438730000000 1.0
C      1  0.4930780000000  0.5346820000000  0.5442320000000 1.0
C      1  0.5171860000000  0.5977470000000  0.4943650000000 1.0
C      1  0.4069240000000  0.4659370000000  0.4941200000000 1.0
C      1  0.5760200000000  0.4363600000000  0.4938920000000 1.0
C      1  0.4828140000000  0.5977450000000  0.5056320000000 1.0
C      1  0.5930820000000  0.4659040000000  0.5058820000000 1.0
C      1  0.4240020000000  0.4363520000000  0.5061050000000 1.0
C      1  0.5728350000000  0.4702110000000  0.4593930000000 1.0
C      1  0.4902800000000  0.5780600000000  0.4594100000000 1.0
C      1  0.4375880000000  0.4517030000000  0.4594850000000 1.0
C      1  0.4271600000000  0.4702160000000  0.5406080000000 1.0
C      1  0.5097130000000  0.5780570000000  0.5405910000000 1.0
C      1  0.5624140000000  0.4517120000000  0.5405130000000 1.0
C      1  0.4554730000000  0.4193690000000  0.5000140000000 1.0
C      1  0.5919910000000  0.5016970000000  0.4998550000000 1.0
C      1  0.4524960000000  0.5788410000000  0.4991780000000 1.0
C      1  0.5445550000000  0.4193630000000  0.4999990000000 1.0
C      1  0.4079730000000  0.5016880000000  0.5001420000000 1.0
C      1  0.5475130000000  0.5788390000000  0.5008340000000 1.0
C      1  0.5397340000000  0.4415950000000  0.5235780000000 1.0
C      1  0.5302680000000  0.5636150000000  0.5241610000000 1.0
C      1  0.4298000000000  0.4948150000000  0.5236060000000 1.0
C      1  0.4602580000000  0.4415910000000  0.4764270000000 1.0
C      1  0.4697240000000  0.5636110000000  0.4758420000000 1.0
C      1  0.5701930000000  0.4948200000000  0.4763900000000 1.0
END
