TITL C-3985259-1859-835 -0.00351491065137237 125000 -293.40011499393 0 0 60 (C4h) n - 1
REM
REM in /home/nfs/bkarasulu/CARBON/AIRSS/Generating-Clusters/TERSOFF/Higher-Symm/Only-C60
REM
REM
REM
REM
REM
REM ./C.cell (28575a23ae977d3b5fae324c64b13b57)
REM
REM compiler GCC version 9.2.1 20190827 (Red Hat 9.2.1-1)
REM options -cpp -mtune=generic -march=x86-64 -g -O0 -fpre-include=/usr/include/finclude/math-vector-fortran.h
REM seed 440179036 237298818 616254342 -1690393397 -2008761561 -1630774588 428310032 -646816167 1992250362 -1776582494 -1020561116 -475887643 1076341785 -942050720 1117166791 1797130766 1361491973 203512240 -399290982 -1050328587 -1417574256 553714833 -817709705 1671503920 -691793 66811748 -302770342 -97308346 486770662 1841726021 1096045740 1320554129 1201213362
REM
CELL 1.54180   50.00000   50.00000   50.00000   90.00000   90.00000   90.00000
LATT -1
SFAC C  
C      1  0.4623970000000  0.5604650000000  0.4845230000000 1.0
C      1  0.4623940000000  0.5155700000000  0.5603420000000 1.0
C      1  0.4623140000000  0.4396760000000  0.5155580000000 1.0
C      1  0.4623720000000  0.4844200000000  0.4396820000000 1.0
C      1  0.5360430000000  0.5603950000000  0.4844820000000 1.0
C      1  0.5359590000000  0.5155830000000  0.5603610000000 1.0
C      1  0.5360440000000  0.4396820000000  0.5155510000000 1.0
C      1  0.5359580000000  0.4843740000000  0.4396710000000 1.0
C      1  0.4433100000000  0.4478420000000  0.4951440000000 1.0
C      1  0.4432410000000  0.5048710000000  0.4478830000000 1.0
C      1  0.4432710000000  0.5520590000000  0.5048260000000 1.0
C      1  0.4432940000000  0.4951570000000  0.5521010000000 1.0
C      1  0.5550370000000  0.4478530000000  0.4951410000000 1.0
C      1  0.5551000000000  0.5048900000000  0.4478720000000 1.0
C      1  0.5550890000000  0.5520710000000  0.5048480000000 1.0
C      1  0.5550690000000  0.4951390000000  0.5520970000000 1.0
C      1  0.5141470000000  0.5275630000000  0.4351180000000 1.0
C      1  0.5141910000000  0.5648260000000  0.5275130000000 1.0
C      1  0.5142600000000  0.4724800000000  0.5648310000000 1.0
C      1  0.5141820000000  0.4351610000000  0.4724250000000 1.0
C      1  0.4841850000000  0.5275070000000  0.4350840000000 1.0
C      1  0.4841270000000  0.5648740000000  0.5274760000000 1.0
C      1  0.4840790000000  0.4724960000000  0.5648480000000 1.0
C      1  0.4841170000000  0.4350570000000  0.4724970000000 1.0
C      1  0.5147120000000  0.5158870000000  0.4834480000000 1.0
C      1  0.5147600000000  0.5164910000000  0.5158580000000 1.0
C      1  0.5148190000000  0.4842220000000  0.5164460000000 1.0
C      1  0.5147720000000  0.4834680000000  0.4841830000000 1.0
C      1  0.4836110000000  0.5158470000000  0.4834900000000 1.0
C      1  0.4835730000000  0.5164840000000  0.5158270000000 1.0
C      1  0.4836220000000  0.4840730000000  0.5165360000000 1.0
C      1  0.4836370000000  0.4834230000000  0.4840450000000 1.0
C      1  0.5299080000000  0.4649410000000  0.5357490000000 1.0
C      1  0.5299220000000  0.4642960000000  0.4648810000000 1.0
C      1  0.5299210000000  0.5350940000000  0.4642840000000 1.0
C      1  0.5299320000000  0.5357260000000  0.5351220000000 1.0
C      1  0.4684340000000  0.4649470000000  0.5357430000000 1.0
C      1  0.4684280000000  0.4642950000000  0.4648880000000 1.0
C      1  0.4684360000000  0.5350850000000  0.4642540000000 1.0
C      1  0.4684220000000  0.5357300000000  0.5351430000000 1.0
C      1  0.4833040000000  0.4894040000000  0.4175520000000 1.0
C      1  0.4833750000000  0.5824920000000  0.4893930000000 1.0
C      1  0.4833250000000  0.5106040000000  0.5824340000000 1.0
C      1  0.4833060000000  0.4175830000000  0.5106160000000 1.0
C      1  0.5150600000000  0.4893760000000  0.4175660000000 1.0
C      1  0.5149250000000  0.5825040000000  0.4893840000000 1.0
C      1  0.5150240000000  0.5106100000000  0.5824180000000 1.0
C      1  0.5150300000000  0.4175570000000  0.5106210000000 1.0
C      1  0.4420470000000  0.4863320000000  0.5216620000000 1.0
C      1  0.4420400000000  0.4783390000000  0.4863430000000 1.0
C      1  0.4420620000000  0.5136670000000  0.4783380000000 1.0
C      1  0.4420470000000  0.5216430000000  0.5136660000000 1.0
C      1  0.5562630000000  0.4863430000000  0.5216560000000 1.0
C      1  0.5562830000000  0.4783470000000  0.4863440000000 1.0
C      1  0.5562890000000  0.5136680000000  0.4783380000000 1.0
C      1  0.5563000000000  0.5216520000000  0.5136610000000 1.0
C      1  0.4991150000000  0.4487760000000  0.5336590000000 1.0
C      1  0.4991700000000  0.5335770000000  0.5511110000000 1.0
C      1  0.4991350000000  0.5510190000000  0.4665260000000 1.0
C      1  0.4991680000000  0.4664890000000  0.4489360000000 1.0
END
