TITL C-3985250-725-1082 -7.54156594393237e-08 125000 -291.443285114422 0 0 60 (Td) n - 1
REM
REM in /home/nfs/bkarasulu/CARBON/AIRSS/Generating-Clusters/TERSOFF/Higher-Symm/Only-C60
REM
REM
REM
REM
REM
REM ./C.cell (28575a23ae977d3b5fae324c64b13b57)
REM
REM compiler GCC version 9.2.1 20190827 (Red Hat 9.2.1-1)
REM options -cpp -mtune=generic -march=x86-64 -g -O0 -fpre-include=/usr/include/finclude/math-vector-fortran.h
REM seed -83454993 -1832891505 -1221370010 -731220142 470553121 799561750 -720402916 1086231184 280243470 1755186200 -675460650 -84528949 809482353 -796484795 2135143754 -1512053929 1185165507 -1405183045 -1684922596 1722810430 1398855976 816970620 -1084934136 -1774294429 -1117076658 1745458045 859775156 -1421761441 229512886 -1019674514 -524304949 -1948980381 1732197642
REM
CELL 1.54180   50.00000   50.00000   50.00000   90.00000   90.00000   90.00000
LATT -1
SFAC C  
C      1  0.4346770000000  0.5002410000000  0.5248940000000 1.0
C      1  0.5248940000000  0.4346770000000  0.5002410000000 1.0
C      1  0.5002410000000  0.5248940000000  0.4346770000000 1.0
C      1  0.4346770000000  0.4997590000000  0.4751060000000 1.0
C      1  0.5653230000000  0.4997590000000  0.5248940000000 1.0
C      1  0.5653230000000  0.5002410000000  0.4751060000000 1.0
C      1  0.5248940000000  0.5653230000000  0.4997590000000 1.0
C      1  0.4751060000000  0.5653230000000  0.5002410000000 1.0
C      1  0.4751060000000  0.4346770000000  0.4997590000000 1.0
C      1  0.5002410000000  0.4751060000000  0.5653230000000 1.0
C      1  0.4997590000000  0.4751060000000  0.4346770000000 1.0
C      1  0.4997590000000  0.5248940000000  0.5653230000000 1.0
C      1  0.4346770000000  0.5248940000000  0.5002410000000 1.0
C      1  0.5248940000000  0.5002410000000  0.4346770000000 1.0
C      1  0.5002410000000  0.4346770000000  0.5248940000000 1.0
C      1  0.4346770000000  0.4751060000000  0.4997590000000 1.0
C      1  0.5653230000000  0.5248940000000  0.4997590000000 1.0
C      1  0.5653230000000  0.4751060000000  0.5002410000000 1.0
C      1  0.5248940000000  0.4997590000000  0.5653230000000 1.0
C      1  0.4751060000000  0.5002410000000  0.5653230000000 1.0
C      1  0.4751060000000  0.4997590000000  0.4346770000000 1.0
C      1  0.5002410000000  0.5653230000000  0.4751060000000 1.0
C      1  0.4997590000000  0.4346770000000  0.4751060000000 1.0
C      1  0.4997590000000  0.5653230000000  0.5248940000000 1.0
C      1  0.5669560000000  0.5461670000000  0.5245000000000 1.0
C      1  0.5245000000000  0.5669560000000  0.5461670000000 1.0
C      1  0.5461670000000  0.5245000000000  0.5669560000000 1.0
C      1  0.5669560000000  0.4538330000000  0.4755000000000 1.0
C      1  0.4330440000000  0.4538330000000  0.5245000000000 1.0
C      1  0.4330440000000  0.5461670000000  0.4755000000000 1.0
C      1  0.5245000000000  0.4330440000000  0.4538330000000 1.0
C      1  0.4755000000000  0.4330440000000  0.5461670000000 1.0
C      1  0.4755000000000  0.5669560000000  0.4538330000000 1.0
C      1  0.5461670000000  0.4755000000000  0.4330440000000 1.0
C      1  0.4538330000000  0.4755000000000  0.5669560000000 1.0
C      1  0.4538330000000  0.5245000000000  0.4330440000000 1.0
C      1  0.5669560000000  0.5245000000000  0.5461670000000 1.0
C      1  0.5245000000000  0.5461670000000  0.5669560000000 1.0
C      1  0.5461670000000  0.5669560000000  0.5245000000000 1.0
C      1  0.5669560000000  0.4755000000000  0.4538330000000 1.0
C      1  0.4330440000000  0.5245000000000  0.4538330000000 1.0
C      1  0.4330440000000  0.4755000000000  0.5461670000000 1.0
C      1  0.5245000000000  0.4538330000000  0.4330440000000 1.0
C      1  0.4755000000000  0.5461670000000  0.4330440000000 1.0
C      1  0.4755000000000  0.4538330000000  0.5669560000000 1.0
C      1  0.5461670000000  0.4330440000000  0.4755000000000 1.0
C      1  0.4538330000000  0.5669560000000  0.4755000000000 1.0
C      1  0.4538330000000  0.4330440000000  0.5245000000000 1.0
C      1  0.4861800000000  0.5388300000000  0.5388300000000 1.0
C      1  0.5388300000000  0.5138200000000  0.4611700000000 1.0
C      1  0.5138200000000  0.5388300000000  0.4611700000000 1.0
C      1  0.5138200000000  0.4611700000000  0.5388300000000 1.0
C      1  0.5388300000000  0.4861800000000  0.5388300000000 1.0
C      1  0.5388300000000  0.5388300000000  0.4861800000000 1.0
C      1  0.4611700000000  0.5138200000000  0.5388300000000 1.0
C      1  0.4611700000000  0.4861800000000  0.4611700000000 1.0
C      1  0.5388300000000  0.4611700000000  0.5138200000000 1.0
C      1  0.4611700000000  0.4611700000000  0.4861800000000 1.0
C      1  0.4611700000000  0.5388300000000  0.5138200000000 1.0
C      1  0.4861800000000  0.4611700000000  0.4611700000000 1.0
END
