TITL C-3985246-2097-123 -0.0019087488679566 125000 -288.472029193668 0 0 60 (C4v) n - 1
REM
REM in /home/nfs/bkarasulu/CARBON/AIRSS/Generating-Clusters/TERSOFF/Higher-Symm/Only-C60
REM
REM
REM
REM
REM
REM ./C.cell (28575a23ae977d3b5fae324c64b13b57)
REM
REM compiler GCC version 9.2.1 20190827 (Red Hat 9.2.1-1)
REM options -cpp -mtune=generic -march=x86-64 -g -O0 -fpre-include=/usr/include/finclude/math-vector-fortran.h
REM seed -1509722413 1040336926 -280754802 -1862878774 714952087 711793931 1048795340 507303069 1562924014 -800744317 2023401613 -1166787619 1185641100 120582969 768501266 1645831451 -1094194307 -902165707 -1525108407 -509466410 -733368578 2017646260 -1534143719 1127715615 -412030410 819742789 1190327321 85003127 716249056 1336522142 -1149359319 -886397984 -268964854
REM
CELL 1.54180   50.00000   50.00000   50.00000   90.00000   90.00000   90.00000
LATT -1
SFAC C  
C      1  0.4587590000000  0.4723770000000  0.5584190000000 1.0
C      1  0.4587590000000  0.4415810000000  0.4723770000000 1.0
C      1  0.4587590000000  0.5276230000000  0.4415810000000 1.0
C      1  0.4587590000000  0.5584190000000  0.5276230000000 1.0
C      1  0.4587590000000  0.4723770000000  0.4415810000000 1.0
C      1  0.4587590000000  0.4415810000000  0.5276230000000 1.0
C      1  0.4587590000000  0.5276230000000  0.5584190000000 1.0
C      1  0.4587590000000  0.5584190000000  0.4723770000000 1.0
C      1  0.5213810000000  0.4846860000000  0.5367970000000 1.0
C      1  0.5213810000000  0.4632030000000  0.4846860000000 1.0
C      1  0.5213810000000  0.5153140000000  0.4632030000000 1.0
C      1  0.5213810000000  0.5367970000000  0.5153140000000 1.0
C      1  0.5213810000000  0.4846860000000  0.4632030000000 1.0
C      1  0.5213810000000  0.4632030000000  0.5153140000000 1.0
C      1  0.5213810000000  0.5153140000000  0.5367970000000 1.0
C      1  0.5213810000000  0.5367970000000  0.4846860000000 1.0
C      1  0.5090450000000  0.5160430000000  0.4230860000000 1.0
C      1  0.5090450000000  0.5769140000000  0.5160430000000 1.0
C      1  0.5090450000000  0.4839570000000  0.5769140000000 1.0
C      1  0.5090450000000  0.4230860000000  0.4839570000000 1.0
C      1  0.5090450000000  0.5160430000000  0.5769140000000 1.0
C      1  0.5090450000000  0.5769140000000  0.4839570000000 1.0
C      1  0.5090450000000  0.4839570000000  0.4230860000000 1.0
C      1  0.5090450000000  0.4230860000000  0.5160430000000 1.0
C      1  0.5414110000000  0.4834460000000  0.4254420000000 1.0
C      1  0.5414110000000  0.5745580000000  0.4834460000000 1.0
C      1  0.5414110000000  0.5165540000000  0.5745580000000 1.0
C      1  0.5414110000000  0.4254420000000  0.5165540000000 1.0
C      1  0.5414110000000  0.4834460000000  0.5745580000000 1.0
C      1  0.5414110000000  0.5745580000000  0.5165540000000 1.0
C      1  0.5414110000000  0.5165540000000  0.4254420000000 1.0
C      1  0.5414110000000  0.4254420000000  0.4834460000000 1.0
C      1  0.4402450000000  0.4625240000000  0.4845610000000 1.0
C      1  0.4402450000000  0.5154390000000  0.4625240000000 1.0
C      1  0.4402450000000  0.5374760000000  0.5154390000000 1.0
C      1  0.4402450000000  0.4845610000000  0.5374760000000 1.0
C      1  0.4402450000000  0.4625240000000  0.5154390000000 1.0
C      1  0.4402450000000  0.5154390000000  0.5374760000000 1.0
C      1  0.4402450000000  0.5374760000000  0.4845610000000 1.0
C      1  0.4402450000000  0.4845610000000  0.4625240000000 1.0
C      1  0.5537230000000  0.4817460000000  0.5437400000000 1.0
C      1  0.5537230000000  0.4562600000000  0.4817460000000 1.0
C      1  0.5537230000000  0.5182540000000  0.4562600000000 1.0
C      1  0.5537230000000  0.5437400000000  0.5182540000000 1.0
C      1  0.5537230000000  0.4817460000000  0.4562600000000 1.0
C      1  0.5537230000000  0.4562600000000  0.5182540000000 1.0
C      1  0.5537230000000  0.5182540000000  0.5437400000000 1.0
C      1  0.5537230000000  0.5437400000000  0.4817460000000 1.0
C      1  0.4911200000000  0.4721670000000  0.4475240000000 1.0
C      1  0.4911200000000  0.5524760000000  0.4721670000000 1.0
C      1  0.4911200000000  0.5278330000000  0.5524760000000 1.0
C      1  0.4911200000000  0.4475240000000  0.5278330000000 1.0
C      1  0.4911200000000  0.4721670000000  0.5524760000000 1.0
C      1  0.4911200000000  0.5524760000000  0.5278330000000 1.0
C      1  0.4911200000000  0.5278330000000  0.4475240000000 1.0
C      1  0.4911200000000  0.4475240000000  0.4721670000000 1.0
C      1  0.4823750000000  0.5374550000000  0.5000000000000 1.0
C      1  0.4823750000000  0.5000000000000  0.5374550000000 1.0
C      1  0.4823750000000  0.4625450000000  0.5000000000000 1.0
C      1  0.4823750000000  0.5000000000000  0.4625450000000 1.0
END
