TITL C-3985254-1270-90 1.73947938876438e-06 125000 -333.66281440109 0 0 60 (C3) n - 1
REM
REM in /home/nfs/bkarasulu/CARBON/AIRSS/Generating-Clusters/TERSOFF/Higher-Symm/Only-C60
REM
REM
REM
REM
REM
REM ./C.cell (28575a23ae977d3b5fae324c64b13b57)
REM
REM compiler GCC version 9.2.1 20190827 (Red Hat 9.2.1-1)
REM options -cpp -mtune=generic -march=x86-64 -g -O0 -fpre-include=/usr/include/finclude/math-vector-fortran.h
REM seed 1919247108 -394027086 1835754595 -264208303 -145711267 -1764600401 -643952455 -1702668557 -898213172 1535012631 -813524006 2129010984 1810435429 -1773749658 -2016752364 -1637702702 -346011473 1698601647 -589388990 233989339 445516103 -1863859313 -50179035 -1009858047 -127304537 1328830604 -2100423014 -1999323360 808513180 1023690645 -1825996487 -1321717497 1068515604
REM
CELL 1.54180   50.00000   50.00000   50.00000   90.00000   90.00000   90.00000
LATT -1
SFAC C  
C      1  0.4969790000000  0.5272780000000  0.4879330000000 1.0
C      1  0.4778870000000  0.4837450000000  0.4879310000000 1.0
C      1  0.5251360000000  0.4889770000000  0.4879300000000 1.0
C      1  0.4755080000000  0.5312300000000  0.5462510000000 1.0
C      1  0.4852000000000  0.4631700000000  0.5462470000000 1.0
C      1  0.5392920000000  0.5055960000000  0.5462530000000 1.0
C      1  0.5418870000000  0.4828080000000  0.4428810000000 1.0
C      1  0.4939480000000  0.5448730000000  0.4428830000000 1.0
C      1  0.4641660000000  0.4723240000000  0.4428800000000 1.0
C      1  0.5812980000000  0.4838310000000  0.4717040000000 1.0
C      1  0.4733550000000  0.5784920000000  0.4717060000000 1.0
C      1  0.4453470000000  0.4376800000000  0.4717010000000 1.0
C      1  0.4686060000000  0.5020230000000  0.5340510000000 1.0
C      1  0.5139450000000  0.4717970000000  0.5340470000000 1.0
C      1  0.5174510000000  0.5261780000000  0.5340520000000 1.0
C      1  0.5602170000000  0.5292940000000  0.4608410000000 1.0
C      1  0.4445240000000  0.5375040000000  0.4608390000000 1.0
C      1  0.4952600000000  0.4332060000000  0.4608360000000 1.0
C      1  0.5553300000000  0.5450940000000  0.5102930000000 1.0
C      1  0.4332820000000  0.5253700000000  0.5102900000000 1.0
C      1  0.5113880000000  0.4295350000000  0.5102880000000 1.0
C      1  0.5187980000000  0.4401740000000  0.4822330000000 1.0
C      1  0.5424130000000  0.5461930000000  0.4822380000000 1.0
C      1  0.4387900000000  0.5136350000000  0.4822350000000 1.0
C      1  0.4480550000000  0.5516140000000  0.5085780000000 1.0
C      1  0.4812720000000  0.4292060000000  0.5085740000000 1.0
C      1  0.5706690000000  0.5191770000000  0.5085790000000 1.0
C      1  0.4334780000000  0.4759710000000  0.5049570000000 1.0
C      1  0.5540740000000  0.4544050000000  0.5049540000000 1.0
C      1  0.5124510000000  0.5696230000000  0.5049600000000 1.0
C      1  0.5379180000000  0.5519050000000  0.5370260000000 1.0
C      1  0.4360920000000  0.5068840000000  0.5370230000000 1.0
C      1  0.5259890000000  0.4412080000000  0.5370230000000 1.0
C      1  0.4718020000000  0.4271400000000  0.4796510000000 1.0
C      1  0.5771970000000  0.5120100000000  0.4796560000000 1.0
C      1  0.4510000000000  0.5608520000000  0.4796550000000 1.0
C      1  0.5236830000000  0.5182130000000  0.4782400000000 1.0
C      1  0.4723870000000  0.5114040000000  0.4782400000000 1.0
C      1  0.5039320000000  0.4703850000000  0.4782380000000 1.0
C      1  0.5490380000000  0.4448980000000  0.4774910000000 1.0
C      1  0.5232010000000  0.5700180000000  0.4774970000000 1.0
C      1  0.4277620000000  0.4850850000000  0.4774940000000 1.0
C      1  0.4414150000000  0.4646260000000  0.4597910000000 1.0
C      1  0.5599300000000  0.4669530000000  0.4597910000000 1.0
C      1  0.4986560000000  0.5684250000000  0.4597950000000 1.0
C      1  0.4421920000000  0.4888720000000  0.5638570000000 1.0
C      1  0.5385360000000  0.4554970000000  0.5638570000000 1.0
C      1  0.5192700000000  0.5556260000000  0.5638600000000 1.0
C      1  0.5351400000000  0.4851310000000  0.5677650000000 1.0
C      1  0.4953030000000  0.5378700000000  0.5677660000000 1.0
C      1  0.4695530000000  0.4769930000000  0.5677630000000 1.0
C      1  0.4720640000000  0.5260760000000  0.4485570000000 1.0
C      1  0.4913870000000  0.4627710000000  0.4485540000000 1.0
C      1  0.5365500000000  0.5111590000000  0.4485560000000 1.0
C      1  0.5584510000000  0.4985650000000  0.5250790000000 1.0
C      1  0.4720140000000  0.5513400000000  0.5250790000000 1.0
C      1  0.4695300000000  0.4500910000000  0.5250760000000 1.0
C      1  0.5396390000000  0.4790490000000  0.5128220000000 1.0
C      1  0.4983230000000  0.5448010000000  0.5128270000000 1.0
C      1  0.4620390000000  0.4761460000000  0.5128240000000 1.0
END
