TITL C-3985254-1270-605 -0.00119219651211361 125000 -339.272302139325 0 0 60 (Ci) n - 1
REM
REM in /home/nfs/bkarasulu/CARBON/AIRSS/Generating-Clusters/TERSOFF/Higher-Symm/Only-C60
REM
REM
REM
REM
REM
REM ./C.cell (28575a23ae977d3b5fae324c64b13b57)
REM
REM compiler GCC version 9.2.1 20190827 (Red Hat 9.2.1-1)
REM options -cpp -mtune=generic -march=x86-64 -g -O0 -fpre-include=/usr/include/finclude/math-vector-fortran.h
REM seed 433228663 -735004116 205132659 -397844599 1230628732 793578203 -527435029 -2141856355 -281341418 -1178359432 -1871642715 -580212756 -1807344072 -287004417 613553542 446222537 1944024894 -1879837802 -1723386716 -54423495 -1878360194 -30423871 -1229115891 -258573295 -74360720 -1846523734 1310644198 -2116129420 -209870317 1904096729 245270024 1674339721 -462658834
REM
CELL 1.54180   50.00000   50.00000   50.00000   90.00000   90.00000   90.00000
LATT -1
SFAC C  
C      1  0.5302660000000  0.5238280000000  0.5383520000000 1.0
C      1  0.4697350000000  0.4761700000000  0.4616490000000 1.0
C      1  0.5545920000000  0.5281980000000  0.4845760000000 1.0
C      1  0.4454060000000  0.4718060000000  0.5154250000000 1.0
C      1  0.4974410000000  0.4732890000000  0.5082160000000 1.0
C      1  0.5025630000000  0.5267130000000  0.4917840000000 1.0
C      1  0.4369900000000  0.5095680000000  0.4573060000000 1.0
C      1  0.5629930000000  0.4904250000000  0.5426860000000 1.0
C      1  0.4405880000000  0.5067040000000  0.5223150000000 1.0
C      1  0.5594210000000  0.4932970000000  0.4776780000000 1.0
C      1  0.4836950000000  0.4831640000000  0.4324740000000 1.0
C      1  0.5163080000000  0.5168340000000  0.5675290000000 1.0
C      1  0.5431600000000  0.4765050000000  0.5265030000000 1.0
C      1  0.4568230000000  0.5234920000000  0.4734850000000 1.0
C      1  0.4654970000000  0.5182150000000  0.5674800000000 1.0
C      1  0.5345030000000  0.4817840000000  0.4325190000000 1.0
C      1  0.5255510000000  0.4291520000000  0.4937730000000 1.0
C      1  0.4744510000000  0.5708530000000  0.5062410000000 1.0
C      1  0.4735670000000  0.5492230000000  0.5296900000000 1.0
C      1  0.5264290000000  0.4507750000000  0.4703110000000 1.0
C      1  0.5343740000000  0.5509330000000  0.4712240000000 1.0
C      1  0.4656270000000  0.4490710000000  0.5287710000000 1.0
C      1  0.4623460000000  0.5100220000000  0.4995490000000 1.0
C      1  0.5376480000000  0.4899780000000  0.5004480000000 1.0
C      1  0.4741990000000  0.4272620000000  0.5076590000000 1.0
C      1  0.5258100000000  0.5727480000000  0.4923470000000 1.0
C      1  0.4973780000000  0.4987570000000  0.4696350000000 1.0
C      1  0.5026260000000  0.5012440000000  0.5303670000000 1.0
C      1  0.5063920000000  0.5431980000000  0.4533770000000 1.0
C      1  0.4936070000000  0.4567920000000  0.5466170000000 1.0
C      1  0.5360870000000  0.4290000000000  0.5224110000000 1.0
C      1  0.4639240000000  0.5709860000000  0.4775900000000 1.0
C      1  0.4839570000000  0.5225280000000  0.5152520000000 1.0
C      1  0.5160380000000  0.4774740000000  0.4847470000000 1.0
C      1  0.4774600000000  0.4462040000000  0.4599020000000 1.0
C      1  0.5225420000000  0.5538000000000  0.5400980000000 1.0
C      1  0.4287950000000  0.4691830000000  0.4884950000000 1.0
C      1  0.5712030000000  0.5308120000000  0.5115100000000 1.0
C      1  0.5336830000000  0.5104110000000  0.4266810000000 1.0
C      1  0.4663190000000  0.4895900000000  0.5733190000000 1.0
C      1  0.5262840000000  0.4532950000000  0.5363720000000 1.0
C      1  0.4737290000000  0.5467160000000  0.4636240000000 1.0
C      1  0.4908470000000  0.4741670000000  0.5699280000000 1.0
C      1  0.5091540000000  0.5258340000000  0.4300690000000 1.0
C      1  0.5055510000000  0.4445310000000  0.4491040000000 1.0
C      1  0.4944490000000  0.5554720000000  0.5508930000000 1.0
C      1  0.5145350000000  0.4894980000000  0.5764350000000 1.0
C      1  0.4854640000000  0.5105020000000  0.4235610000000 1.0
C      1  0.5336940000000  0.5729230000000  0.5209010000000 1.0
C      1  0.4663080000000  0.4270780000000  0.4790990000000 1.0
C      1  0.4702620000000  0.4805960000000  0.4959590000000 1.0
C      1  0.5297380000000  0.5194080000000  0.5040410000000 1.0
C      1  0.4914950000000  0.5334990000000  0.5711970000000 1.0
C      1  0.5085060000000  0.4665030000000  0.4288040000000 1.0
C      1  0.4521010000000  0.5275260000000  0.5421640000000 1.0
C      1  0.5478980000000  0.4724730000000  0.4578360000000 1.0
C      1  0.4999150000000  0.4421410000000  0.5056240000000 1.0
C      1  0.5000770000000  0.5578550000000  0.4943980000000 1.0
C      1  0.4390160000000  0.4804910000000  0.4625490000000 1.0
C      1  0.5609860000000  0.5195050000000  0.5374530000000 1.0
END
