TITL C-3985257-5396-73 -0.00133837761481637 125000 -331.671261674047 0 0 60 (Ci) n - 1
REM
REM in /home/nfs/bkarasulu/CARBON/AIRSS/Generating-Clusters/TERSOFF/Higher-Symm/Only-C60
REM
REM
REM
REM
REM
REM ./C.cell (28575a23ae977d3b5fae324c64b13b57)
REM
REM compiler GCC version 9.2.1 20190827 (Red Hat 9.2.1-1)
REM options -cpp -mtune=generic -march=x86-64 -g -O0 -fpre-include=/usr/include/finclude/math-vector-fortran.h
REM seed -1100007252 1188081070 823628293 564327455 -176938099 1163608429 2067324984 -346643297 -155677719 -1972395886 -2044601471 -2018441061 -386687343 -1198007791 921507608 -409297586 1369122237 -1625648143 -1170241907 -2116023526 1521225621 587140443 2080275287 274014393 508583152 1198240127 1852810415 -1806852764 -1121542349 882016725 -1991972114 62203517 108136521
REM
CELL 1.54180   50.00000   50.00000   50.00000   90.00000   90.00000   90.00000
LATT -1
SFAC C  
C      1  0.4748900000000  0.5471880000000  0.5587630000000 1.0
C      1  0.4764200000000  0.4540300000000  0.4407890000000 1.0
C      1  0.5229770000000  0.5458980000000  0.5598400000000 1.0
C      1  0.5243590000000  0.4521570000000  0.4408530000000 1.0
C      1  0.4758100000000  0.5478430000000  0.4404540000000 1.0
C      1  0.4768360000000  0.4539710000000  0.5595670000000 1.0
C      1  0.5237540000000  0.5462360000000  0.4409900000000 1.0
C      1  0.5250090000000  0.4528340000000  0.5590970000000 1.0
C      1  0.5175830000000  0.5145430000000  0.5112840000000 1.0
C      1  0.5145970000000  0.4830180000000  0.4786050000000 1.0
C      1  0.4854960000000  0.5180580000000  0.5219100000000 1.0
C      1  0.4822810000000  0.4846540000000  0.4883740000000 1.0
C      1  0.5146360000000  0.5167450000000  0.4780680000000 1.0
C      1  0.5176720000000  0.4833820000000  0.5118480000000 1.0
C      1  0.4823410000000  0.5158090000000  0.4885400000000 1.0
C      1  0.4851740000000  0.4843480000000  0.5213200000000 1.0
C      1  0.4881210000000  0.4826110000000  0.5646860000000 1.0
C      1  0.4790050000000  0.5163230000000  0.4339430000000 1.0
C      1  0.5219630000000  0.4846500000000  0.5650880000000 1.0
C      1  0.5125160000000  0.5170400000000  0.4353320000000 1.0
C      1  0.4877510000000  0.4831820000000  0.4354550000000 1.0
C      1  0.4778460000000  0.5153440000000  0.5647620000000 1.0
C      1  0.5212180000000  0.4838100000000  0.4346460000000 1.0
C      1  0.5116220000000  0.5173220000000  0.5648440000000 1.0
C      1  0.5661160000000  0.4846770000000  0.5287920000000 1.0
C      1  0.5668910000000  0.5140040000000  0.4721330000000 1.0
C      1  0.4333790000000  0.4862560000000  0.5284570000000 1.0
C      1  0.4348520000000  0.5149620000000  0.4698810000000 1.0
C      1  0.5664250000000  0.4849500000000  0.4713970000000 1.0
C      1  0.5652540000000  0.5136670000000  0.5298920000000 1.0
C      1  0.4341980000000  0.4859350000000  0.4707260000000 1.0
C      1  0.4328270000000  0.5152690000000  0.5274160000000 1.0
C      1  0.5451350000000  0.4681700000000  0.5163140000000 1.0
C      1  0.5454680000000  0.5303530000000  0.4839710000000 1.0
C      1  0.4549860000000  0.4699960000000  0.5166830000000 1.0
C      1  0.4557850000000  0.5313430000000  0.4827700000000 1.0
C      1  0.5448640000000  0.4686720000000  0.4834540000000 1.0
C      1  0.5441820000000  0.5299790000000  0.5172600000000 1.0
C      1  0.4550710000000  0.4694820000000  0.4834570000000 1.0
C      1  0.4544140000000  0.5315420000000  0.5156430000000 1.0
C      1  0.5328880000000  0.5533160000000  0.4684200000000 1.0
C      1  0.5334340000000  0.4454920000000  0.5317640000000 1.0
C      1  0.4671430000000  0.5544520000000  0.4678710000000 1.0
C      1  0.4674610000000  0.4470340000000  0.5322990000000 1.0
C      1  0.5323900000000  0.5526240000000  0.5325760000000 1.0
C      1  0.5330610000000  0.4451570000000  0.4682340000000 1.0
C      1  0.4666430000000  0.5546300000000  0.5313720000000 1.0
C      1  0.4671760000000  0.4470010000000  0.4681230000000 1.0
C      1  0.4839220000000  0.5729990000000  0.5158540000000 1.0
C      1  0.4832620000000  0.4276850000000  0.4840330000000 1.0
C      1  0.5166980000000  0.5722260000000  0.5167460000000 1.0
C      1  0.5160700000000  0.4267850000000  0.4841180000000 1.0
C      1  0.4837920000000  0.5731930000000  0.4837230000000 1.0
C      1  0.4834800000000  0.4277940000000  0.5163650000000 1.0
C      1  0.5165520000000  0.5723180000000  0.4843840000000 1.0
C      1  0.5163200000000  0.4268850000000  0.5162630000000 1.0
C      1  0.5002280000000  0.5618330000000  0.4317090000000 1.0
C      1  0.5008430000000  0.4389190000000  0.5685430000000 1.0
C      1  0.4999570000000  0.4383240000000  0.4317690000000 1.0
C      1  0.4989540000000  0.5610830000000  0.5685300000000 1.0
END
