TITL C-3985250-725-1029 0.00116129817044162 125000 -269.009693010391 0 0 60 (C6) n - 1
REM
REM in /home/nfs/bkarasulu/CARBON/AIRSS/Generating-Clusters/TERSOFF/Higher-Symm/Only-C60
REM
REM
REM
REM
REM
REM ./C.cell (28575a23ae977d3b5fae324c64b13b57)
REM
REM compiler GCC version 9.2.1 20190827 (Red Hat 9.2.1-1)
REM options -cpp -mtune=generic -march=x86-64 -g -O0 -fpre-include=/usr/include/finclude/math-vector-fortran.h
REM seed 646306398 445068869 -81591644 -801534278 -1036057420 1343943499 -2081157661 -168846227 2061566999 1209304614 -492191576 -660991709 -1493662510 1283337490 -1910048838 -2029253766 181672735 1130433035 756721228 491740276 669887808 -1238866137 1738390578 -1055471018 1876359809 1138910710 1206818111 1832619719 -816718514 -1243947928 1365192760 723933068 185502653
REM
CELL 1.54180   50.00000   50.00000   50.00000   90.00000   90.00000   90.00000
LATT -1
SFAC C  
C      1  0.5140370000000  0.5529620000000  0.4979160000000 1.0
C      1  0.4611010000000  0.5386880000000  0.4981020000000 1.0
C      1  0.4471210000000  0.4856600000000  0.4979400000000 1.0
C      1  0.4859630000000  0.4470380000000  0.4979160000000 1.0
C      1  0.5388990000000  0.4613120000000  0.4981020000000 1.0
C      1  0.5528790000000  0.5143400000000  0.4979400000000 1.0
C      1  0.5140370000000  0.4470380000000  0.4979160000000 1.0
C      1  0.4611010000000  0.4613120000000  0.4981020000000 1.0
C      1  0.4471210000000  0.5143400000000  0.4979400000000 1.0
C      1  0.4859630000000  0.5529620000000  0.4979160000000 1.0
C      1  0.5388990000000  0.5386880000000  0.4981020000000 1.0
C      1  0.5528790000000  0.4856600000000  0.4979400000000 1.0
C      1  0.4532360000000  0.5479490000000  0.5382550000000 1.0
C      1  0.4351980000000  0.4834890000000  0.5381480000000 1.0
C      1  0.4818750000000  0.4356410000000  0.5381300000000 1.0
C      1  0.5467640000000  0.4520510000000  0.5382550000000 1.0
C      1  0.5648020000000  0.5165110000000  0.5381480000000 1.0
C      1  0.5181250000000  0.5643590000000  0.5381300000000 1.0
C      1  0.4532360000000  0.4520510000000  0.5382550000000 1.0
C      1  0.4351980000000  0.5165110000000  0.5381480000000 1.0
C      1  0.4818750000000  0.5643590000000  0.5381300000000 1.0
C      1  0.5467640000000  0.5479490000000  0.5382550000000 1.0
C      1  0.5648020000000  0.4834890000000  0.5381480000000 1.0
C      1  0.5181250000000  0.4356410000000  0.5381300000000 1.0
C      1  0.4347790000000  0.4819140000000  0.4580760000000 1.0
C      1  0.4830490000000  0.4344710000000  0.4580530000000 1.0
C      1  0.5482830000000  0.4525480000000  0.4582070000000 1.0
C      1  0.5652210000000  0.5180860000000  0.4580760000000 1.0
C      1  0.5169510000000  0.5655290000000  0.4580530000000 1.0
C      1  0.4517170000000  0.5474520000000  0.4582070000000 1.0
C      1  0.4347790000000  0.5180860000000  0.4580760000000 1.0
C      1  0.4830490000000  0.5655290000000  0.4580530000000 1.0
C      1  0.5482830000000  0.5474520000000  0.4582070000000 1.0
C      1  0.5652210000000  0.4819140000000  0.4580760000000 1.0
C      1  0.5169510000000  0.4344710000000  0.4580530000000 1.0
C      1  0.4517170000000  0.4525480000000  0.4582070000000 1.0
C      1  0.5275450000000  0.4183090000000  0.4884030000000 1.0
C      1  0.5845100000000  0.4829990000000  0.4884100000000 1.0
C      1  0.5570200000000  0.5647090000000  0.4884900000000 1.0
C      1  0.4724550000000  0.5816910000000  0.4884030000000 1.0
C      1  0.4154900000000  0.5170010000000  0.4884100000000 1.0
C      1  0.4429800000000  0.4352910000000  0.4884900000000 1.0
C      1  0.5275450000000  0.5816910000000  0.4884030000000 1.0
C      1  0.5845100000000  0.5170010000000  0.4884100000000 1.0
C      1  0.5570200000000  0.4352910000000  0.4884900000000 1.0
C      1  0.4724550000000  0.4183090000000  0.4884030000000 1.0
C      1  0.4154900000000  0.4829990000000  0.4884100000000 1.0
C      1  0.4429800000000  0.5647090000000  0.4884900000000 1.0
C      1  0.5155660000000  0.4098800000000  0.5172520000000 1.0
C      1  0.5858390000000  0.4684340000000  0.5172750000000 1.0
C      1  0.5703710000000  0.5585890000000  0.5173420000000 1.0
C      1  0.4844340000000  0.5901200000000  0.5172520000000 1.0
C      1  0.4141610000000  0.5315660000000  0.5172750000000 1.0
C      1  0.4296290000000  0.4414110000000  0.5173420000000 1.0
C      1  0.5155660000000  0.5901200000000  0.5172520000000 1.0
C      1  0.5858390000000  0.5315660000000  0.5172750000000 1.0
C      1  0.5703710000000  0.4414110000000  0.5173420000000 1.0
C      1  0.4844340000000  0.4098800000000  0.5172520000000 1.0
C      1  0.4141610000000  0.4684340000000  0.5172750000000 1.0
C      1  0.4296290000000  0.5585890000000  0.5173420000000 1.0
END
