TITL C-3985254-1270-2074 2.94772910367415e-07 125000 -293.314694425586 0 0 60 (Th) n - 1
REM
REM in /home/nfs/bkarasulu/CARBON/AIRSS/Generating-Clusters/TERSOFF/Higher-Symm/Only-C60
REM
REM
REM
REM
REM
REM ./C.cell (28575a23ae977d3b5fae324c64b13b57)
REM
REM compiler GCC version 9.2.1 20190827 (Red Hat 9.2.1-1)
REM options -cpp -mtune=generic -march=x86-64 -g -O0 -fpre-include=/usr/include/finclude/math-vector-fortran.h
REM seed 1752298452 -463817203 1707430204 49647712 217165909 615220113 -84144585 511011176 -1639885182 430194795 347052222 -1632614686 494589492 1733296829 -1184837610 -1632860890 2023455646 1112043348 -698666546 1484592966 395807042 668843869 -1886140450 -1102796081 1040803216 1641649927 695280859 262196774 1629841380 -2101624711 -1828129726 -1035538784 308431525
REM
CELL 1.54180   50.00000   50.00000   50.00000   90.00000   90.00000   90.00000
LATT -1
SFAC C  
C      1  0.4295440000000  0.4762890000000  0.5283620000000 1.0
C      1  0.4762890000000  0.5283620000000  0.4295440000000 1.0
C      1  0.5283620000000  0.4295440000000  0.4762890000000 1.0
C      1  0.5704560000000  0.4762890000000  0.4716380000000 1.0
C      1  0.5704560000000  0.5237110000000  0.5283620000000 1.0
C      1  0.4295440000000  0.5237110000000  0.4716380000000 1.0
C      1  0.5237110000000  0.5283620000000  0.5704560000000 1.0
C      1  0.5237110000000  0.4716380000000  0.4295440000000 1.0
C      1  0.4762890000000  0.4716380000000  0.5704560000000 1.0
C      1  0.4716380000000  0.4295440000000  0.5237110000000 1.0
C      1  0.4716380000000  0.5704560000000  0.4762890000000 1.0
C      1  0.5283620000000  0.5704560000000  0.5237110000000 1.0
C      1  0.4295440000000  0.5237110000000  0.5283620000000 1.0
C      1  0.4762890000000  0.4716380000000  0.4295440000000 1.0
C      1  0.5283620000000  0.5704560000000  0.4762890000000 1.0
C      1  0.5704560000000  0.5237110000000  0.4716380000000 1.0
C      1  0.5704560000000  0.4762890000000  0.5283620000000 1.0
C      1  0.4295440000000  0.4762890000000  0.4716380000000 1.0
C      1  0.5237110000000  0.4716380000000  0.5704560000000 1.0
C      1  0.5237110000000  0.5283620000000  0.4295440000000 1.0
C      1  0.4762890000000  0.5283620000000  0.5704560000000 1.0
C      1  0.4716380000000  0.5704560000000  0.5237110000000 1.0
C      1  0.4716380000000  0.4295440000000  0.4762890000000 1.0
C      1  0.5283620000000  0.4295440000000  0.5237110000000 1.0
C      1  0.5168870000000  0.4571660000000  0.5178290000000 1.0
C      1  0.4571660000000  0.5178290000000  0.5168870000000 1.0
C      1  0.5178290000000  0.5168870000000  0.4571660000000 1.0
C      1  0.4831130000000  0.4571660000000  0.4821710000000 1.0
C      1  0.4831130000000  0.5428340000000  0.5178290000000 1.0
C      1  0.5168870000000  0.5428340000000  0.4821710000000 1.0
C      1  0.5428340000000  0.5178290000000  0.4831130000000 1.0
C      1  0.5428340000000  0.4821710000000  0.5168870000000 1.0
C      1  0.4571660000000  0.4821710000000  0.4831130000000 1.0
C      1  0.4821710000000  0.5168870000000  0.5428340000000 1.0
C      1  0.4821710000000  0.4831130000000  0.4571660000000 1.0
C      1  0.5178290000000  0.4831130000000  0.5428340000000 1.0
C      1  0.5168870000000  0.5428340000000  0.5178290000000 1.0
C      1  0.4571660000000  0.4821710000000  0.5168870000000 1.0
C      1  0.5178290000000  0.4831130000000  0.4571660000000 1.0
C      1  0.4831130000000  0.5428340000000  0.4821710000000 1.0
C      1  0.4831130000000  0.4571660000000  0.5178290000000 1.0
C      1  0.5168870000000  0.4571660000000  0.4821710000000 1.0
C      1  0.5428340000000  0.4821710000000  0.4831130000000 1.0
C      1  0.5428340000000  0.5178290000000  0.5168870000000 1.0
C      1  0.4571660000000  0.5178290000000  0.4831130000000 1.0
C      1  0.4821710000000  0.4831130000000  0.5428340000000 1.0
C      1  0.4821710000000  0.5168870000000  0.4571660000000 1.0
C      1  0.5178290000000  0.5168870000000  0.5428340000000 1.0
C      1  0.5862060000000  0.5000000000000  0.4650950000000 1.0
C      1  0.4650950000000  0.5862060000000  0.5000000000000 1.0
C      1  0.5000000000000  0.5349050000000  0.5862060000000 1.0
C      1  0.5349050000000  0.5862060000000  0.5000000000000 1.0
C      1  0.5349050000000  0.4137940000000  0.5000000000000 1.0
C      1  0.4650950000000  0.4137940000000  0.5000000000000 1.0
C      1  0.4137940000000  0.5000000000000  0.5349050000000 1.0
C      1  0.5000000000000  0.4650950000000  0.4137940000000 1.0
C      1  0.5000000000000  0.4650950000000  0.5862060000000 1.0
C      1  0.5000000000000  0.5349050000000  0.4137940000000 1.0
C      1  0.4137940000000  0.5000000000000  0.4650950000000 1.0
C      1  0.5862060000000  0.5000000000000  0.5349050000000 1.0
END
