TITL C-3985247-764-730 0.0314795637675153 125000 -308.520870498082 0 0 60 (S10) n - 1
REM
REM in /home/nfs/bkarasulu/CARBON/AIRSS/Generating-Clusters/TERSOFF/Higher-Symm/Only-C60
REM
REM
REM
REM
REM
REM ./C.cell (28575a23ae977d3b5fae324c64b13b57)
REM
REM compiler GCC version 9.2.1 20190827 (Red Hat 9.2.1-1)
REM options -cpp -mtune=generic -march=x86-64 -g -O0 -fpre-include=/usr/include/finclude/math-vector-fortran.h
REM seed -1323371247 1796541865 -2043568067 -425596811 1115093743 -1857348684 81583251 -1760449982 1986986407 358755766 -616210689 711046369 61682742 273843310 -1201471141 109305469 1846360366 -772849033 901816307 -1099231525 329709845 -1162053253 5605184 -1676898188 1952356206 -1161078280 152373613 -1277621886 -823632601 1014884258 -1495979425 336277727 -2124812213
REM
CELL 1.54180   50.00000   50.00000   50.00000   90.00000   90.00000   90.00000
LATT -1
SFAC C  
C      1  0.5610860000000  0.5245250000000  0.5118900000000 1.0
C      1  0.4389810000000  0.5269440000000  0.4951690000000 1.0
C      1  0.5615770000000  0.5188760000000  0.4801650000000 1.0
C      1  0.4386770000000  0.5037050000000  0.4730760000000 1.0
C      1  0.5609270000000  0.4871270000000  0.4760160000000 1.0
C      1  0.4389080000000  0.4754750000000  0.4881090000000 1.0
C      1  0.5610310000000  0.4730530000000  0.5048300000000 1.0
C      1  0.4384450000000  0.4811270000000  0.5198340000000 1.0
C      1  0.5613110000000  0.4962960000000  0.5269210000000 1.0
C      1  0.4390780000000  0.5128730000000  0.5239830000000 1.0
C      1  0.4833160000000  0.5512970000000  0.4791480000000 1.0
C      1  0.5166940000000  0.5292470000000  0.4528320000000 1.0
C      1  0.4832570000000  0.4958420000000  0.4448140000000 1.0
C      1  0.5169050000000  0.4642600000000  0.4577450000000 1.0
C      1  0.4831510000000  0.4462780000000  0.4867960000000 1.0
C      1  0.5166880000000  0.4487040000000  0.5208500000000 1.0
C      1  0.4833060000000  0.4707550000000  0.5471710000000 1.0
C      1  0.5167400000000  0.5041560000000  0.5551880000000 1.0
C      1  0.4830950000000  0.5357400000000  0.5422560000000 1.0
C      1  0.5168490000000  0.5537220000000  0.5132030000000 1.0
C      1  0.5368420000000  0.5647930000000  0.4704020000000 1.0
C      1  0.4630640000000  0.5350940000000  0.4379230000000 1.0
C      1  0.5369090000000  0.4918810000000  0.4291990000000 1.0
C      1  0.4632760000000  0.4516840000000  0.4475310000000 1.0
C      1  0.5367830000000  0.4300290000000  0.4859220000000 1.0
C      1  0.4631590000000  0.4352060000000  0.5295980000000 1.0
C      1  0.5369320000000  0.4649130000000  0.5620740000000 1.0
C      1  0.4630910000000  0.5081190000000  0.5708010000000 1.0
C      1  0.5367240000000  0.5483160000000  0.5524690000000 1.0
C      1  0.4632200000000  0.5699660000000  0.5140730000000 1.0
C      1  0.5195470000000  0.5243520000000  0.5053940000000 1.0
C      1  0.4804740000000  0.5226280000000  0.4902420000000 1.0
C      1  0.5192720000000  0.5127870000000  0.4787890000000 1.0
C      1  0.4802680000000  0.4978830000000  0.4754400000000 1.0
C      1  0.5195850000000  0.4838340000000  0.4817900000000 1.0
C      1  0.4804670000000  0.4756450000000  0.4946150000000 1.0
C      1  0.5195260000000  0.4773700000000  0.5097500000000 1.0
C      1  0.4807180000000  0.4872320000000  0.5212150000000 1.0
C      1  0.5197330000000  0.5021050000000  0.5245680000000 1.0
C      1  0.4804020000000  0.5161820000000  0.5181900000000 1.0
C      1  0.4922490000000  0.4286580000000  0.5237550000000 1.0
C      1  0.5076810000000  0.4564080000000  0.5610990000000 1.0
C      1  0.4921460000000  0.5004790000000  0.5752440000000 1.0
C      1  0.5077640000000  0.5447830000000  0.5605050000000 1.0
C      1  0.4921900000000  0.5717180000000  0.5227100000000 1.0
C      1  0.5077500000000  0.5713420000000  0.4762450000000 1.0
C      1  0.4923210000000  0.5435870000000  0.4389010000000 1.0
C      1  0.5078540000000  0.4995210000000  0.4247570000000 1.0
C      1  0.4922360000000  0.4552170000000  0.4394950000000 1.0
C      1  0.5078090000000  0.4282830000000  0.4772930000000 1.0
C      1  0.5467260000000  0.4741440000000  0.4509960000000 1.0
C      1  0.4531880000000  0.4500330000000  0.4756410000000 1.0
C      1  0.5466100000000  0.4454700000000  0.5095290000000 1.0
C      1  0.4531260000000  0.4613920000000  0.5398560000000 1.0
C      1  0.5468330000000  0.4922410000000  0.5549160000000 1.0
C      1  0.4532590000000  0.5258620000000  0.5490200000000 1.0
C      1  0.5468170000000  0.5499710000000  0.5243630000000 1.0
C      1  0.4534080000000  0.5545090000000  0.4904760000000 1.0
C      1  0.5468650000000  0.5386010000000  0.4601510000000 1.0
C      1  0.4531550000000  0.5077590000000  0.4450690000000 1.0
END
