TITL C-3985252-168-381 -0.00113326899541566 125000 -236.400981429544 0 0 60 (D2d) n - 1
REM
REM in /home/nfs/bkarasulu/CARBON/AIRSS/Generating-Clusters/TERSOFF/Higher-Symm/Only-C60
REM
REM
REM
REM
REM
REM ./C.cell (28575a23ae977d3b5fae324c64b13b57)
REM
REM compiler GCC version 9.2.1 20190827 (Red Hat 9.2.1-1)
REM options -cpp -mtune=generic -march=x86-64 -g -O0 -fpre-include=/usr/include/finclude/math-vector-fortran.h
REM seed -2010357346 129873002 594343136 130032734 -2038954459 -1778047488 -177600566 1612858479 934419960 -1307594669 -997006809 749095449 -815429402 792866952 1744514775 -899349944 -1483836818 -856344362 1947334921 -910087485 -701870833 -1584594662 -694700278 1107971532 -1767485472 -1761261639 -1968783369 1040408121 -410855673 882407 -1069648070 2023412065 1361180793
REM
CELL 1.54180   50.00000   50.00000   50.00000   90.00000   90.00000   90.00000
LATT -1
SFAC C  
C      1  0.5231220000000  0.4466410000000  0.5004200000000 1.0
C      1  0.4768780000000  0.4466410000000  0.4995800000000 1.0
C      1  0.5231220000000  0.5533590000000  0.4995800000000 1.0
C      1  0.4768780000000  0.5533590000000  0.5004200000000 1.0
C      1  0.5004200000000  0.4466410000000  0.5231220000000 1.0
C      1  0.4995800000000  0.4466410000000  0.4768780000000 1.0
C      1  0.4995800000000  0.5533590000000  0.5231220000000 1.0
C      1  0.5004200000000  0.5533590000000  0.4768780000000 1.0
C      1  0.4496130000000  0.5183200000000  0.4254900000000 1.0
C      1  0.5503870000000  0.5183200000000  0.5745100000000 1.0
C      1  0.4496130000000  0.4816800000000  0.5745100000000 1.0
C      1  0.5503870000000  0.4816800000000  0.4254900000000 1.0
C      1  0.4254900000000  0.5183200000000  0.4496130000000 1.0
C      1  0.5745100000000  0.5183200000000  0.5503870000000 1.0
C      1  0.5745100000000  0.4816800000000  0.4496130000000 1.0
C      1  0.4254900000000  0.4816800000000  0.5503870000000 1.0
C      1  0.5632600000000  0.5424490000000  0.5052580000000 1.0
C      1  0.4367400000000  0.5424490000000  0.4947420000000 1.0
C      1  0.5632600000000  0.4575510000000  0.4947420000000 1.0
C      1  0.4367400000000  0.4575510000000  0.5052580000000 1.0
C      1  0.5052580000000  0.5424490000000  0.5632600000000 1.0
C      1  0.4947420000000  0.5424490000000  0.4367400000000 1.0
C      1  0.4947420000000  0.4575510000000  0.5632600000000 1.0
C      1  0.5052580000000  0.4575510000000  0.4367400000000 1.0
C      1  0.4768060000000  0.4866510000000  0.4471220000000 1.0
C      1  0.5231940000000  0.4866510000000  0.5528780000000 1.0
C      1  0.4768060000000  0.5133490000000  0.5528780000000 1.0
C      1  0.5231940000000  0.5133490000000  0.4471220000000 1.0
C      1  0.4471220000000  0.4866510000000  0.4768060000000 1.0
C      1  0.5528780000000  0.4866510000000  0.5231940000000 1.0
C      1  0.5528780000000  0.5133490000000  0.4768060000000 1.0
C      1  0.4471220000000  0.5133490000000  0.5231940000000 1.0
C      1  0.5000970000000  0.4823950000000  0.4743170000000 1.0
C      1  0.4999030000000  0.4823950000000  0.5256830000000 1.0
C      1  0.5000970000000  0.5176050000000  0.5256830000000 1.0
C      1  0.4999030000000  0.5176050000000  0.4743170000000 1.0
C      1  0.4743170000000  0.4823950000000  0.5000970000000 1.0
C      1  0.5256830000000  0.4823950000000  0.4999030000000 1.0
C      1  0.5256830000000  0.5176050000000  0.5000970000000 1.0
C      1  0.4743170000000  0.5176050000000  0.4999030000000 1.0
C      1  0.4770300000000  0.4521190000000  0.4514680000000 1.0
C      1  0.5229700000000  0.4521190000000  0.5485320000000 1.0
C      1  0.4770300000000  0.5478810000000  0.5485320000000 1.0
C      1  0.5229700000000  0.5478810000000  0.4514680000000 1.0
C      1  0.4514680000000  0.4521190000000  0.4770300000000 1.0
C      1  0.5485320000000  0.4521190000000  0.5229700000000 1.0
C      1  0.5485320000000  0.5478810000000  0.4770300000000 1.0
C      1  0.4514680000000  0.5478810000000  0.5229700000000 1.0
C      1  0.4742340000000  0.5223260000000  0.4485790000000 1.0
C      1  0.5257660000000  0.5223260000000  0.5514210000000 1.0
C      1  0.4742340000000  0.4776740000000  0.5514210000000 1.0
C      1  0.5257660000000  0.4776740000000  0.4485790000000 1.0
C      1  0.4485790000000  0.5223260000000  0.4742340000000 1.0
C      1  0.5514210000000  0.5223260000000  0.5257660000000 1.0
C      1  0.5514210000000  0.4776740000000  0.4742340000000 1.0
C      1  0.4485790000000  0.4776740000000  0.5257660000000 1.0
C      1  0.5568350000000  0.5124690000000  0.4431650000000 1.0
C      1  0.4431650000000  0.5124690000000  0.5568350000000 1.0
C      1  0.5568350000000  0.4875310000000  0.5568350000000 1.0
C      1  0.4431650000000  0.4875310000000  0.4431650000000 1.0
END
