TITL C-3985245-9316-228 0.00186021164905951 125000 -341.656175552639 0 0 60 (D5) n - 1
REM
REM in /home/nfs/bkarasulu/CARBON/AIRSS/Generating-Clusters/TERSOFF/Higher-Symm/Only-C60
REM
REM
REM
REM
REM
REM ./C.cell (28575a23ae977d3b5fae324c64b13b57)
REM
REM compiler GCC version 9.2.1 20190827 (Red Hat 9.2.1-1)
REM options -cpp -mtune=generic -march=x86-64 -g -O0 -fpre-include=/usr/include/finclude/math-vector-fortran.h
REM seed 364459949 1831540547 -330829182 1490412313 1737333529 1575479234 391048993 861776633 -599381539 1290045396 533767790 -1580959306 27995420 938252442 -1526794005 723702630 -1983656526 -214165146 -2000332831 -691444473 -813886872 904175476 -1565549288 -1517599687 -955362884 1275880738 1031832431 -1579466350 -1861271510 -709730225 -1380942770 2006106598 1372447723
REM
CELL 1.54180   50.00000   50.00000   50.00000   90.00000   90.00000   90.00000
LATT -1
SFAC C  
C      1  0.4415890000000  0.4574670000000  0.5069360000000 1.0
C      1  0.4415390000000  0.4800190000000  0.4616460000000 1.0
C      1  0.4415910000000  0.5304290000000  0.4694410000000 1.0
C      1  0.4416680000000  0.5384310000000  0.5193110000000 1.0
C      1  0.4416310000000  0.4935180000000  0.5424960000000 1.0
C      1  0.5584100000000  0.5425340000000  0.5069360000000 1.0
C      1  0.5584610000000  0.5199810000000  0.4616460000000 1.0
C      1  0.5584090000000  0.4695710000000  0.4694410000000 1.0
C      1  0.5583320000000  0.4615700000000  0.5193120000000 1.0
C      1  0.5583690000000  0.5064820000000  0.5424960000000 1.0
C      1  0.4660160000000  0.5183000000000  0.4817680000000 1.0
C      1  0.4661260000000  0.5228650000000  0.5117050000000 1.0
C      1  0.4660720000000  0.4957750000000  0.5252420000000 1.0
C      1  0.4660760000000  0.4744520000000  0.5036910000000 1.0
C      1  0.4660750000000  0.4883570000000  0.4767450000000 1.0
C      1  0.5339850000000  0.4817010000000  0.4817690000000 1.0
C      1  0.5338740000000  0.4771350000000  0.5117050000000 1.0
C      1  0.5339280000000  0.5042250000000  0.5252430000000 1.0
C      1  0.5339230000000  0.5255490000000  0.5036910000000 1.0
C      1  0.5339260000000  0.5116430000000  0.4767460000000 1.0
C      1  0.4861590000000  0.5599150000000  0.4243740000000 1.0
C      1  0.4859010000000  0.5911720000000  0.5331110000000 1.0
C      1  0.4859730000000  0.4963670000000  0.5966960000000 1.0
C      1  0.4860330000000  0.4069220000000  0.5260120000000 1.0
C      1  0.4859650000000  0.4464200000000  0.4200290000000 1.0
C      1  0.5138420000000  0.4400860000000  0.4243730000000 1.0
C      1  0.5140990000000  0.4088270000000  0.5331110000000 1.0
C      1  0.5140280000000  0.5036340000000  0.5966950000000 1.0
C      1  0.5139670000000  0.5930770000000  0.5260120000000 1.0
C      1  0.5140350000000  0.5535810000000  0.4200290000000 1.0
C      1  0.5354300000000  0.5595890000000  0.4385600000000 1.0
C      1  0.5350880000000  0.5766790000000  0.5372680000000 1.0
C      1  0.5351780000000  0.4881130000000  0.5843920000000 1.0
C      1  0.5354400000000  0.4158660000000  0.5147940000000 1.0
C      1  0.5353330000000  0.4594400000000  0.4248870000000 1.0
C      1  0.4645710000000  0.4404120000000  0.4385610000000 1.0
C      1  0.4649130000000  0.4233210000000  0.5372680000000 1.0
C      1  0.4648220000000  0.5118860000000  0.5843920000000 1.0
C      1  0.4645600000000  0.5841350000000  0.5147940000000 1.0
C      1  0.4646670000000  0.5405600000000  0.4248870000000 1.0
C      1  0.5580230000000  0.5669550000000  0.5224650000000 1.0
C      1  0.5579760000000  0.4994110000000  0.5705760000000 1.0
C      1  0.5580270000000  0.4326900000000  0.5216000000000 1.0
C      1  0.5580050000000  0.4582960000000  0.4428150000000 1.0
C      1  0.5582790000000  0.5424960000000  0.4433990000000 1.0
C      1  0.4419770000000  0.4330460000000  0.5224650000000 1.0
C      1  0.4420250000000  0.5005860000000  0.5705760000000 1.0
C      1  0.4419720000000  0.5673100000000  0.5215990000000 1.0
C      1  0.4419950000000  0.5417030000000  0.4428140000000 1.0
C      1  0.4417210000000  0.4575040000000  0.4433990000000 1.0
C      1  0.4167630000000  0.4884830000000  0.4766260000000 1.0
C      1  0.4167400000000  0.5186490000000  0.4818550000000 1.0
C      1  0.4167420000000  0.5229360000000  0.5121780000000 1.0
C      1  0.4166890000000  0.4954710000000  0.5256720000000 1.0
C      1  0.4167120000000  0.4741810000000  0.5037080000000 1.0
C      1  0.5832370000000  0.5115170000000  0.4766260000000 1.0
C      1  0.5832600000000  0.4813510000000  0.4818550000000 1.0
C      1  0.5832580000000  0.4770640000000  0.5121780000000 1.0
C      1  0.5833100000000  0.5045290000000  0.5256720000000 1.0
C      1  0.5832870000000  0.5258190000000  0.5037070000000 1.0
END
