TITL C-3985254-1270-1959 1.46998036182115e-07 125000 -334.698178547589 0 0 60 (C3) n - 1
REM
REM in /home/nfs/bkarasulu/CARBON/AIRSS/Generating-Clusters/TERSOFF/Higher-Symm/Only-C60
REM
REM
REM
REM
REM
REM ./C.cell (28575a23ae977d3b5fae324c64b13b57)
REM
REM compiler GCC version 9.2.1 20190827 (Red Hat 9.2.1-1)
REM options -cpp -mtune=generic -march=x86-64 -g -O0 -fpre-include=/usr/include/finclude/math-vector-fortran.h
REM seed 414565095 634586915 -1390240254 54258832 -437957069 -548018148 -1871197066 -99014170 1363138050 1278080405 431777751 2011273614 -471705101 514073734 -1434205400 1566647383 1359525343 -1943676573 -2087556692 -1804776437 -1410985230 372885524 -1852846489 -809436304 -738097434 201989391 -268482057 -1741503383 -1551957754 1920295022 603157444 -1314967170 1178241904
REM
CELL 1.54180   50.00000   50.00000   50.00000   90.00000   90.00000   90.00000
LATT -1
SFAC C  
C      1  0.4729920000000  0.4938250000000  0.4324840000000 1.0
C      1  0.4550330000000  0.4938160000000  0.5571450000000 1.0
C      1  0.5719730000000  0.4938100000000  0.5103690000000 1.0
C      1  0.4412420000000  0.5214410000000  0.5385920000000 1.0
C      1  0.5628020000000  0.5214310000000  0.5315940000000 1.0
C      1  0.4959610000000  0.5214460000000  0.4298190000000 1.0
C      1  0.4616180000000  0.4507970000000  0.5260770000000 1.0
C      1  0.5417720000000  0.4507910000000  0.5201920000000 1.0
C      1  0.4965980000000  0.4508010000000  0.4537190000000 1.0
C      1  0.4412940000000  0.4967960000000  0.4952140000000 1.0
C      1  0.5252080000000  0.4967850000000  0.5532340000000 1.0
C      1  0.5334980000000  0.4967920000000  0.4515520000000 1.0
C      1  0.5025290000000  0.5780120000000  0.4684420000000 1.0
C      1  0.4714100000000  0.5780110000000  0.5136040000000 1.0
C      1  0.5260810000000  0.5780060000000  0.5179730000000 1.0
C      1  0.5153150000000  0.4943460000000  0.4756170000000 1.0
C      1  0.4712270000000  0.4943480000000  0.4989280000000 1.0
C      1  0.5134580000000  0.4943430000000  0.5254540000000 1.0
C      1  0.4544870000000  0.5458790000000  0.5153780000000 1.0
C      1  0.5360770000000  0.5458710000000  0.5317350000000 1.0
C      1  0.5094480000000  0.5458790000000  0.4528980000000 1.0
C      1  0.5044760000000  0.4779530000000  0.5659940000000 1.0
C      1  0.5549130000000  0.4779580000000  0.4631230000000 1.0
C      1  0.4406050000000  0.4779670000000  0.4708780000000 1.0
C      1  0.4304730000000  0.4929040000000  0.5231230000000 1.0
C      1  0.5547890000000  0.4928920000000  0.5486490000000 1.0
C      1  0.5147360000000  0.4929060000000  0.4282260000000 1.0
C      1  0.5286200000000  0.5262360000000  0.5576780000000 1.0
C      1  0.5356420000000  0.5262450000000  0.4463800000000 1.0
C      1  0.4357440000000  0.5262490000000  0.4959480000000 1.0
C      1  0.4491430000000  0.4487010000000  0.4755050000000 1.0
C      1  0.5042120000000  0.4486900000000  0.5562810000000 1.0
C      1  0.5466310000000  0.4486930000000  0.4682020000000 1.0
C      1  0.4660810000000  0.5513940000000  0.4816530000000 1.0
C      1  0.5010730000000  0.5513870000000  0.5385590000000 1.0
C      1  0.5328590000000  0.5513890000000  0.4798010000000 1.0
C      1  0.4803700000000  0.5332910000000  0.5290680000000 1.0
C      1  0.5349910000000  0.5332890000000  0.5024730000000 1.0
C      1  0.4846480000000  0.5332960000000  0.4684680000000 1.0
C      1  0.4857610000000  0.5058640000000  0.5226230000000 1.0
C      1  0.5267120000000  0.5058620000000  0.5010220000000 1.0
C      1  0.4875300000000  0.5058670000000  0.4763570000000 1.0
C      1  0.4705590000000  0.4372990000000  0.4586140000000 1.0
C      1  0.4788760000000  0.4372910000000  0.5461770000000 1.0
C      1  0.5505490000000  0.4372890000000  0.4951940000000 1.0
C      1  0.4470260000000  0.4377720000000  0.5028790000000 1.0
C      1  0.5289770000000  0.4377610000000  0.5444250000000 1.0
C      1  0.5239810000000  0.4377700000000  0.4526800000000 1.0
C      1  0.5050160000000  0.4654540000000  0.4803620000000 1.0
C      1  0.4804830000000  0.4654550000000  0.5054690000000 1.0
C      1  0.5144930000000  0.4654510000000  0.5141610000000 1.0
C      1  0.4964140000000  0.5803950000000  0.5304380000000 1.0
C      1  0.5281580000000  0.5803960000000  0.4879020000000 1.0
C      1  0.4754480000000  0.5804010000000  0.4816790000000 1.0
C      1  0.4790820000000  0.4910730000000  0.5743020000000 1.0
C      1  0.5748060000000  0.4910730000000  0.4809620000000 1.0
C      1  0.4461090000000  0.4910870000000  0.4447330000000 1.0
C      1  0.4438800000000  0.4705910000000  0.5394010000000 1.0
C      1  0.5621810000000  0.4705830000000  0.5288950000000 1.0
C      1  0.4939320000000  0.4705970000000  0.4316960000000 1.0
END
