TITL C-3985259-1859-73 -4.50592577996693e-06 125000 -332.332343399968 0 0 60 (S4) n - 1
REM
REM in /home/nfs/bkarasulu/CARBON/AIRSS/Generating-Clusters/TERSOFF/Higher-Symm/Only-C60
REM
REM
REM
REM
REM
REM ./C.cell (28575a23ae977d3b5fae324c64b13b57)
REM
REM compiler GCC version 9.2.1 20190827 (Red Hat 9.2.1-1)
REM options -cpp -mtune=generic -march=x86-64 -g -O0 -fpre-include=/usr/include/finclude/math-vector-fortran.h
REM seed -1818501366 939761948 -1568311593 1598106024 597084044 -454627953 319350714 1823207376 -1014127670 -1339888576 -166268230 1774338950 -1325625578 -1811926435 511091320 -131272379 992891598 1907682607 1764236349 768188061 -1413937992 -1184195688 1082307066 -1061370766 800962838 -129249006 1185816524 -268102595 -764764614 1266767489 937536799 977737087 -384978758
REM
CELL 1.54180   50.00000   50.00000   50.00000   90.00000   90.00000   90.00000
LATT -1
SFAC C  
C      1  0.5402040000000  0.4883440000000  0.4520720000000 1.0
C      1  0.5479280000000  0.5116560000000  0.5402040000000 1.0
C      1  0.4597960000000  0.4883440000000  0.5479280000000 1.0
C      1  0.4520720000000  0.5116560000000  0.4597960000000 1.0
C      1  0.5232440000000  0.5148620000000  0.5204820000000 1.0
C      1  0.4795180000000  0.4851380000000  0.5232440000000 1.0
C      1  0.4767560000000  0.5148620000000  0.4795180000000 1.0
C      1  0.5204820000000  0.4851380000000  0.4767560000000 1.0
C      1  0.4814970000000  0.4324980000000  0.5126740000000 1.0
C      1  0.4873260000000  0.5675010000000  0.4814970000000 1.0
C      1  0.5185030000000  0.4324980000000  0.4873260000000 1.0
C      1  0.5126740000000  0.5675010000000  0.5185030000000 1.0
C      1  0.5540630000000  0.5253850000000  0.4776440000000 1.0
C      1  0.5223560000000  0.4746150000000  0.5540620000000 1.0
C      1  0.4459380000000  0.5253850000000  0.5223560000000 1.0
C      1  0.4776440000000  0.4746150000000  0.4459380000000 1.0
C      1  0.5294620000000  0.4608730000000  0.4923090000000 1.0
C      1  0.5076900000000  0.5391270000000  0.5294620000000 1.0
C      1  0.4705380000000  0.4608730000000  0.5076910000000 1.0
C      1  0.4923100000000  0.5391270000000  0.4705380000000 1.0
C      1  0.4752090000000  0.5623090000000  0.5564740000000 1.0
C      1  0.4435260000000  0.4376910000000  0.4752100000000 1.0
C      1  0.5247910000000  0.5623090000000  0.4435260000000 1.0
C      1  0.5564740000000  0.4376910000000  0.5247900000000 1.0
C      1  0.5401240000000  0.4713120000000  0.4286680000000 1.0
C      1  0.5713320000000  0.5286880000000  0.5401240000000 1.0
C      1  0.4598760000000  0.4713120000000  0.5713320000000 1.0
C      1  0.4286680000000  0.5286880000000  0.4598760000000 1.0
C      1  0.4321400000000  0.4951520000000  0.5289430000000 1.0
C      1  0.4710570000000  0.5048480000000  0.4321400000000 1.0
C      1  0.5678600000000  0.4951520000000  0.4710570000000 1.0
C      1  0.5289430000000  0.5048480000000  0.5678600000000 1.0
C      1  0.4890100000000  0.5353240000000  0.5541570000000 1.0
C      1  0.4458420000000  0.4646760000000  0.4890100000000 1.0
C      1  0.5109900000000  0.5353240000000  0.4458430000000 1.0
C      1  0.5541580000000  0.4646760000000  0.5109900000000 1.0
C      1  0.5316180000000  0.4278750000000  0.5377590000000 1.0
C      1  0.4622410000000  0.5721250000000  0.5316180000000 1.0
C      1  0.4683820000000  0.4278750000000  0.4622410000000 1.0
C      1  0.5377590000000  0.5721250000000  0.4683820000000 1.0
C      1  0.4783650000000  0.4454690000000  0.4412000000000 1.0
C      1  0.5588000000000  0.5545310000000  0.4783650000000 1.0
C      1  0.5216350000000  0.4454690000000  0.5588000000000 1.0
C      1  0.4412000000000  0.5545310000000  0.5216350000000 1.0
C      1  0.4932330000000  0.5229990000000  0.4251690000000 1.0
C      1  0.5748310000000  0.4770010000000  0.4932330000000 1.0
C      1  0.5067670000000  0.5229990000000  0.5748310000000 1.0
C      1  0.4251690000000  0.4770010000000  0.5067670000000 1.0
C      1  0.4697620000000  0.5106370000000  0.5080150000000 1.0
C      1  0.4919850000000  0.4893630000000  0.4697620000000 1.0
C      1  0.5302380000000  0.5106370000000  0.4919850000000 1.0
C      1  0.5080150000000  0.4893630000000  0.5302380000000 1.0
C      1  0.5124640000000  0.4209880000000  0.5168850000000 1.0
C      1  0.4831150000000  0.5790120000000  0.5124630000000 1.0
C      1  0.4875360000000  0.4209880000000  0.4831150000000 1.0
C      1  0.5168850000000  0.5790120000000  0.4875370000000 1.0
C      1  0.4632480000000  0.5194080000000  0.5485670000000 1.0
C      1  0.4514320000000  0.4805920000000  0.4632480000000 1.0
C      1  0.5367520000000  0.5194080000000  0.4514330000000 1.0
C      1  0.5485670000000  0.4805920000000  0.5367520000000 1.0
END
