TITL C-3985244-725-365 2.33680486384026e-05 125000 -341.611737802311 0 0 60 (Ci) n - 1
REM
REM in /home/nfs/bkarasulu/CARBON/AIRSS/Generating-Clusters/TERSOFF/Higher-Symm/Only-C60
REM
REM
REM
REM
REM
REM ./C.cell (28575a23ae977d3b5fae324c64b13b57)
REM
REM compiler GCC version 9.2.1 20190827 (Red Hat 9.2.1-1)
REM options -cpp -mtune=generic -march=x86-64 -g -O0 -fpre-include=/usr/include/finclude/math-vector-fortran.h
REM seed -104937349 -1945771595 -1100037796 1944417676 -1955488723 1814399503 -823349535 1292714778 1144887950 -1345720082 -961777220 1954187242 -618022702 -870028940 -1919553925 2015171315 684762925 999060784 -1816657556 1004088234 1768368896 1984440903 709245628 1152554085 -763265525 -248048287 377608721 1663788818 -473260397 1621688956 -333840662 -1363000519 -1539789069
REM
CELL 1.54180   50.00000   50.00000   50.00000   90.00000   90.00000   90.00000
LATT -1
SFAC C  
C      1  0.4864960000000  0.4123150000000  0.4809470000000 1.0
C      1  0.5134980000000  0.5876870000000  0.5190540000000 1.0
C      1  0.4594450000000  0.5314770000000  0.5443360000000 1.0
C      1  0.5405560000000  0.4685200000000  0.4556640000000 1.0
C      1  0.5421480000000  0.5445280000000  0.4646190000000 1.0
C      1  0.4578540000000  0.4554740000000  0.5353820000000 1.0
C      1  0.4812980000000  0.5110600000000  0.5381580000000 1.0
C      1  0.5187060000000  0.4889400000000  0.4618420000000 1.0
C      1  0.5392770000000  0.4300880000000  0.4842520000000 1.0
C      1  0.4607180000000  0.5699090000000  0.5157460000000 1.0
C      1  0.5179160000000  0.5384710000000  0.4461440000000 1.0
C      1  0.4820880000000  0.4615290000000  0.5538550000000 1.0
C      1  0.4943510000000  0.4711990000000  0.4752840000000 1.0
C      1  0.5056520000000  0.5288030000000  0.5247170000000 1.0
C      1  0.4705430000000  0.5539150000000  0.5624050000000 1.0
C      1  0.5294540000000  0.4460830000000  0.4375950000000 1.0
C      1  0.5136070000000  0.4969980000000  0.5730260000000 1.0
C      1  0.4863970000000  0.5030030000000  0.4269750000000 1.0
C      1  0.5328990000000  0.5130630000000  0.5300930000000 1.0
C      1  0.4671050000000  0.4869390000000  0.4699080000000 1.0
C      1  0.4724470000000  0.5122750000000  0.4885490000000 1.0
C      1  0.5275570000000  0.4877260000000  0.5114510000000 1.0
C      1  0.5044540000000  0.5834850000000  0.4926510000000 1.0
C      1  0.4955400000000  0.4165160000000  0.5073500000000 1.0
C      1  0.4939180000000  0.5478790000000  0.5791990000000 1.0
C      1  0.5060790000000  0.4521220000000  0.4208010000000 1.0
C      1  0.5373960000000  0.4162370000000  0.5107310000000 1.0
C      1  0.4625980000000  0.5837550000000  0.4892650000000 1.0
C      1  0.4485400000000  0.5279840000000  0.4947210000000 1.0
C      1  0.5514620000000  0.4720120000000  0.5052790000000 1.0
C      1  0.4576820000000  0.4332520000000  0.5144350000000 1.0
C      1  0.5423130000000  0.5667510000000  0.4855650000000 1.0
C      1  0.5073150000000  0.4421630000000  0.5491880000000 1.0
C      1  0.4926890000000  0.5578360000000  0.4508110000000 1.0
C      1  0.4476250000000  0.4698630000000  0.4862470000000 1.0
C      1  0.5523760000000  0.5301420000000  0.5137540000000 1.0
C      1  0.5431430000000  0.5583120000000  0.5147660000000 1.0
C      1  0.4568520000000  0.4416910000000  0.4852340000000 1.0
C      1  0.5301800000000  0.5175770000000  0.5606980000000 1.0
C      1  0.4698210000000  0.4824270000000  0.4393030000000 1.0
C      1  0.5196120000000  0.5456570000000  0.5647390000000 1.0
C      1  0.4803850000000  0.4543460000000  0.4352610000000 1.0
C      1  0.5494040000000  0.5220520000000  0.4839370000000 1.0
C      1  0.4506000000000  0.4779510000000  0.5160640000000 1.0
C      1  0.5347230000000  0.4300060000000  0.5374500000000 1.0
C      1  0.4652760000000  0.5699810000000  0.4625480000000 1.0
C      1  0.4803070000000  0.5718400000000  0.5391990000000 1.0
C      1  0.5196880000000  0.4281590000000  0.4608000000000 1.0
C      1  0.5005980000000  0.5283300000000  0.4934180000000 1.0
C      1  0.4994060000000  0.4716710000000  0.5065820000000 1.0
C      1  0.4988760000000  0.4432340000000  0.5200160000000 1.0
C      1  0.5011280000000  0.5567670000000  0.4799840000000 1.0
C      1  0.4887880000000  0.4903350000000  0.5594840000000 1.0
C      1  0.5112160000000  0.5096650000000  0.4405160000000 1.0
C      1  0.4852920000000  0.4385870000000  0.4637840000000 1.0
C      1  0.5147040000000  0.5614150000000  0.5362160000000 1.0
C      1  0.4758290000000  0.4938790000000  0.5138040000000 1.0
C      1  0.5241760000000  0.5061210000000  0.4861960000000 1.0
C      1  0.5524520000000  0.4562030000000  0.4813390000000 1.0
C      1  0.4475460000000  0.5437920000000  0.5186620000000 1.0
END
