TITL C-3985244-725-30 -0.00618297964619581 125000 -324.358526250939 0 0 60 (C2) n - 1
REM
REM in /home/nfs/bkarasulu/CARBON/AIRSS/Generating-Clusters/TERSOFF/Higher-Symm/Only-C60
REM
REM
REM
REM
REM
REM ./C.cell (28575a23ae977d3b5fae324c64b13b57)
REM
REM compiler GCC version 9.2.1 20190827 (Red Hat 9.2.1-1)
REM options -cpp -mtune=generic -march=x86-64 -g -O0 -fpre-include=/usr/include/finclude/math-vector-fortran.h
REM seed -1126860984 -1353233943 1425886552 -2107711427 -1210135523 1264952128 -191786813 -885610 -399468599 -181640353 -987497838 -725839906 -591700461 -1524583909 1331036468 -1457737945 -1336110718 -888028643 1038207765 1102471072 1835104345 2041402799 -664793883 802458306 -185669548 203410701 372157051 395703873 493232309 -1637604722 258727858 -1380525110 1834135465
REM
CELL 1.54180   50.00000   50.00000   50.00000   90.00000   90.00000   90.00000
LATT -1
SFAC C  
C      1  0.5248500000000  0.5406420000000  0.5459080000000 1.0
C      1  0.4955720000000  0.5508510000000  0.5443960000000 1.0
C      1  0.4629600000000  0.5357710000000  0.5449770000000 1.0
C      1  0.4529950000000  0.5063120000000  0.5454730000000 1.0
C      1  0.4695080000000  0.4855040000000  0.5580410000000 1.0
C      1  0.4751490000000  0.4593580000000  0.5459080000000 1.0
C      1  0.5044280000000  0.4491490000000  0.5443960000000 1.0
C      1  0.5370400000000  0.4642290000000  0.5449780000000 1.0
C      1  0.5470050000000  0.4936880000000  0.5454730000000 1.0
C      1  0.5304920000000  0.5144960000000  0.5580410000000 1.0
C      1  0.4671800000000  0.5344780000000  0.4993410000000 1.0
C      1  0.4553140000000  0.5079560000000  0.4983610000000 1.0
C      1  0.4584330000000  0.4795650000000  0.4912870000000 1.0
C      1  0.4785910000000  0.4602690000000  0.5002570000000 1.0
C      1  0.5066280000000  0.4538180000000  0.4971320000000 1.0
C      1  0.5328220000000  0.4655230000000  0.4993410000000 1.0
C      1  0.5446860000000  0.4920490000000  0.4983590000000 1.0
C      1  0.5415710000000  0.5204250000000  0.4912880000000 1.0
C      1  0.5214020000000  0.5397310000000  0.5002550000000 1.0
C      1  0.4933140000000  0.5461580000000  0.4971400000000 1.0
C      1  0.4291310000000  0.4962390000000  0.5288860000000 1.0
C      1  0.4293290000000  0.4659580000000  0.5210260000000 1.0
C      1  0.4522550000000  0.4466390000000  0.5298010000000 1.0
C      1  0.5182200000000  0.4256510000000  0.5261530000000 1.0
C      1  0.5478370000000  0.4382450000000  0.5274460000000 1.0
C      1  0.5708680000000  0.5037610000000  0.5288850000000 1.0
C      1  0.5706710000000  0.5340430000000  0.5210250000000 1.0
C      1  0.5477470000000  0.5533620000000  0.5298040000000 1.0
C      1  0.4817790000000  0.5743490000000  0.5261530000000 1.0
C      1  0.4521630000000  0.5617540000000  0.5274450000000 1.0
C      1  0.4215510000000  0.4903430000000  0.4744150000000 1.0
C      1  0.4437760000000  0.4439240000000  0.4746480000000 1.0
C      1  0.4845390000000  0.4228040000000  0.4796040000000 1.0
C      1  0.5345410000000  0.4296450000000  0.4768240000000 1.0
C      1  0.5699030000000  0.4641390000000  0.4797510000000 1.0
C      1  0.5784480000000  0.5096580000000  0.4744150000000 1.0
C      1  0.5562250000000  0.5560770000000  0.4746470000000 1.0
C      1  0.5154950000000  0.5772450000000  0.4795770000000 1.0
C      1  0.4654870000000  0.5703320000000  0.4768440000000 1.0
C      1  0.4300920000000  0.5358580000000  0.4797500000000 1.0
C      1  0.5107730000000  0.4213270000000  0.4954370000000 1.0
C      1  0.5557420000000  0.4422280000000  0.4963010000000 1.0
C      1  0.5777570000000  0.4883560000000  0.4980760000000 1.0
C      1  0.5731270000000  0.5355970000000  0.4895330000000 1.0
C      1  0.5390870000000  0.5683080000000  0.4987480000000 1.0
C      1  0.4892290000000  0.5786740000000  0.4954370000000 1.0
C      1  0.4442570000000  0.5577720000000  0.4963010000000 1.0
C      1  0.4222460000000  0.5116450000000  0.4980750000000 1.0
C      1  0.4268740000000  0.4644030000000  0.4895330000000 1.0
C      1  0.4609130000000  0.4316920000000  0.4987480000000 1.0
C      1  0.5538390000000  0.5062580000000  0.4537430000000 1.0
C      1  0.5384350000000  0.5388370000000  0.4538420000000 1.0
C      1  0.5101470000000  0.5550490000000  0.4574320000000 1.0
C      1  0.4761030000000  0.5486330000000  0.4555460000000 1.0
C      1  0.4504830000000  0.5262960000000  0.4576150000000 1.0
C      1  0.4461590000000  0.4937440000000  0.4537390000000 1.0
C      1  0.4615660000000  0.4611650000000  0.4538470000000 1.0
C      1  0.4898530000000  0.4449500000000  0.4574320000000 1.0
C      1  0.5238960000000  0.4513670000000  0.4555460000000 1.0
C      1  0.5495170000000  0.4737050000000  0.4576150000000 1.0
END
