TITL C-3985251-913-702 9.88341622036735e-08 125000 -341.123976347669 0 0 60 (D3) n - 1
REM
REM in /home/nfs/bkarasulu/CARBON/AIRSS/Generating-Clusters/TERSOFF/Higher-Symm/Only-C60
REM
REM
REM
REM
REM
REM ./C.cell (28575a23ae977d3b5fae324c64b13b57)
REM
REM compiler GCC version 9.2.1 20190827 (Red Hat 9.2.1-1)
REM options -cpp -mtune=generic -march=x86-64 -g -O0 -fpre-include=/usr/include/finclude/math-vector-fortran.h
REM seed -1563758145 -2146909887 -1673083538 1257729493 -231671456 1816951693 -133800013 -280312504 369388388 -1142496514 -454973685 -413855086 57907656 510298702 1155935159 -11689126 -1550883952 -1371414179 -1048782806 -451872429 62313109 743311924 1475019909 -436871164 -782836347 -132233560 -1962931361 -748532198 524047471 484652825 798957119 2129118704 -2089992448
REM
CELL 1.54180   50.00000   50.00000   50.00000   90.00000   90.00000   90.00000
LATT -1
SFAC C  
C      1  0.4574100000000  0.4463940000000  0.4956300000000 1.0
C      1  0.4574100000000  0.5305880000000  0.4557610000000 1.0
C      1  0.4574100000000  0.5230180000000  0.5486090000000 1.0
C      1  0.5425900000000  0.5536060000000  0.4956300000000 1.0
C      1  0.5425900000000  0.4694120000000  0.4557610000000 1.0
C      1  0.5425900000000  0.4769820000000  0.5486090000000 1.0
C      1  0.5375730000000  0.4477800000000  0.4749040000000 1.0
C      1  0.5375730000000  0.5478430000000  0.4673240000000 1.0
C      1  0.5375730000000  0.5043760000000  0.5577720000000 1.0
C      1  0.4624270000000  0.5522200000000  0.4749040000000 1.0
C      1  0.4624270000000  0.4521570000000  0.4673240000000 1.0
C      1  0.4624270000000  0.4956240000000  0.5577720000000 1.0
C      1  0.5111370000000  0.5581980000000  0.4540600000000 1.0
C      1  0.5111370000000  0.5106860000000  0.5733710000000 1.0
C      1  0.5111370000000  0.4311160000000  0.4725690000000 1.0
C      1  0.4888630000000  0.4418020000000  0.4540600000000 1.0
C      1  0.4888630000000  0.4893140000000  0.5733710000000 1.0
C      1  0.4888630000000  0.5688840000000  0.4725690000000 1.0
C      1  0.5226810000000  0.5121260000000  0.4322570000000 1.0
C      1  0.5226810000000  0.5526040000000  0.5443730000000 1.0
C      1  0.5226810000000  0.4352700000000  0.5233700000000 1.0
C      1  0.4773190000000  0.4878740000000  0.4322570000000 1.0
C      1  0.4773190000000  0.4473960000000  0.5443730000000 1.0
C      1  0.4773190000000  0.5647300000000  0.5233700000000 1.0
C      1  0.4829140000000  0.4435960000000  0.5114820000000 1.0
C      1  0.4829140000000  0.5182590000000  0.4454120000000 1.0
C      1  0.4829140000000  0.5381450000000  0.5431070000000 1.0
C      1  0.5170860000000  0.5564040000000  0.5114820000000 1.0
C      1  0.5170860000000  0.4817410000000  0.4454120000000 1.0
C      1  0.5170860000000  0.4618550000000  0.5431070000000 1.0
C      1  0.5031470000000  0.5398750000000  0.5660890000000 1.0
C      1  0.5031460000000  0.4228280000000  0.5014890000000 1.0
C      1  0.5031470000000  0.5372970000000  0.4324220000000 1.0
C      1  0.4968530000000  0.4601250000000  0.5660890000000 1.0
C      1  0.4968540000000  0.5771720000000  0.5014890000000 1.0
C      1  0.4968530000000  0.4627030000000  0.4324220000000 1.0
C      1  0.5550750000000  0.4955650000000  0.4642380000000 1.0
C      1  0.5550750000000  0.5331880000000  0.5140410000000 1.0
C      1  0.5550750000000  0.4712460000000  0.5217220000000 1.0
C      1  0.4449250000000  0.5044350000000  0.4642380000000 1.0
C      1  0.4449250000000  0.4668120000000  0.5140410000000 1.0
C      1  0.4449250000000  0.5287540000000  0.5217220000000 1.0
C      1  0.4213530000000  0.4818800000000  0.5075930000000 1.0
C      1  0.4213530000000  0.5024840000000  0.4805110000000 1.0
C      1  0.4213530000000  0.5156360000000  0.5118960000000 1.0
C      1  0.5786470000000  0.5181200000000  0.5075930000000 1.0
C      1  0.5786470000000  0.4975160000000  0.4805110000000 1.0
C      1  0.5786470000000  0.4843640000000  0.5118960000000 1.0
C      1  0.4965950000000  0.4847640000000  0.4736320000000 1.0
C      1  0.4965950000000  0.5304530000000  0.4999890000000 1.0
C      1  0.4965950000000  0.4847830000000  0.5263790000000 1.0
C      1  0.5034050000000  0.5152360000000  0.4736320000000 1.0
C      1  0.5034050000000  0.4695470000000  0.4999890000000 1.0
C      1  0.5034050000000  0.5152170000000  0.5263790000000 1.0
C      1  0.4649370000000  0.5429470000000  0.5038670000000 1.0
C      1  0.4649370000000  0.4751770000000  0.5352600000000 1.0
C      1  0.4649370000000  0.4818750000000  0.4608730000000 1.0
C      1  0.5350630000000  0.4570530000000  0.5038670000000 1.0
C      1  0.5350630000000  0.5248230000000  0.5352600000000 1.0
C      1  0.5350630000000  0.5181250000000  0.4608730000000 1.0
END
