TITL C-3985251-913-411 0.00192117609328998 125000 -307.847481294187 0 0 60 (C3) n - 1
REM
REM in /home/nfs/bkarasulu/CARBON/AIRSS/Generating-Clusters/TERSOFF/Higher-Symm/Only-C60
REM
REM
REM
REM
REM
REM ./C.cell (28575a23ae977d3b5fae324c64b13b57)
REM
REM compiler GCC version 9.2.1 20190827 (Red Hat 9.2.1-1)
REM options -cpp -mtune=generic -march=x86-64 -g -O0 -fpre-include=/usr/include/finclude/math-vector-fortran.h
REM seed -1041680925 1976273791 1138760646 -1546867202 -1284555690 -603127062 -1978596778 -1381583924 1075439004 -840455056 1883676659 1504473491 1510743522 -898813875 1519897756 1768661965 148624702 1760832974 -179526305 1228627568 -2098589681 1946552738 -1535571858 -5238454 -1374608813 -1068250223 2019489921 -306391133 -1984886476 -490253974 -768552032 -1157699833 880374383
REM
CELL 1.54180   50.00000   50.00000   50.00000   90.00000   90.00000   90.00000
LATT -1
SFAC C  
C      1  0.5104820000000  0.4864210000000  0.5257820000000 1.0
C      1  0.5104890000000  0.5291590000000  0.4988880000000 1.0
C      1  0.5104810000000  0.4844600000000  0.4753460000000 1.0
C      1  0.5193390000000  0.5730460000000  0.4883580000000 1.0
C      1  0.5193450000000  0.4533920000000  0.4425600000000 1.0
C      1  0.5193480000000  0.4735600000000  0.5690830000000 1.0
C      1  0.4496360000000  0.4907350000000  0.4725320000000 1.0
C      1  0.4496330000000  0.4808460000000  0.5217570000000 1.0
C      1  0.4496360000000  0.5284170000000  0.5057060000000 1.0
C      1  0.5121010000000  0.5174040000000  0.5253780000000 1.0
C      1  0.5121060000000  0.5132750000000  0.4722400000000 1.0
C      1  0.5120980000000  0.4693160000000  0.5023850000000 1.0
C      1  0.4505770000000  0.5442090000000  0.4573350000000 1.0
C      1  0.4505820000000  0.4409550000000  0.4830430000000 1.0
C      1  0.4505690000000  0.5148310000000  0.5596150000000 1.0
C      1  0.4708280000000  0.5670490000000  0.4986990000000 1.0
C      1  0.4708350000000  0.4653580000000  0.4425840000000 1.0
C      1  0.4708410000000  0.4675950000000  0.5587240000000 1.0
C      1  0.4467180000000  0.5649060000000  0.4795300000000 1.0
C      1  0.4467120000000  0.4498610000000  0.4540240000000 1.0
C      1  0.4467180000000  0.4852590000000  0.5664330000000 1.0
C      1  0.5173300000000  0.5656060000000  0.5184830000000 1.0
C      1  0.5173580000000  0.4831930000000  0.4339360000000 1.0
C      1  0.5173620000000  0.4511760000000  0.5476040000000 1.0
C      1  0.5136100000000  0.5461130000000  0.4387010000000 1.0
C      1  0.5135960000000  0.4238570000000  0.4907230000000 1.0
C      1  0.5136060000000  0.5300340000000  0.5705780000000 1.0
C      1  0.4438610000000  0.5195930000000  0.4764750000000 1.0
C      1  0.4438580000000  0.4698310000000  0.4947920000000 1.0
C      1  0.4438600000000  0.5105730000000  0.5287320000000 1.0
C      1  0.4918670000000  0.4848360000000  0.5743850000000 1.0
C      1  0.4918570000000  0.5719970000000  0.4759420000000 1.0
C      1  0.4918610000000  0.4431690000000  0.4496680000000 1.0
C      1  0.5401450000000  0.4523060000000  0.5286150000000 1.0
C      1  0.5401480000000  0.5486190000000  0.5269690000000 1.0
C      1  0.5401440000000  0.4990520000000  0.4444010000000 1.0
C      1  0.4885770000000  0.4938240000000  0.4378260000000 1.0
C      1  0.4885730000000  0.4492350000000  0.5364440000000 1.0
C      1  0.4885720000000  0.5569300000000  0.5257400000000 1.0
C      1  0.5355450000000  0.5295480000000  0.4544050000000 1.0
C      1  0.5355440000000  0.4457370000000  0.4972130000000 1.0
C      1  0.5355510000000  0.5247130000000  0.5483790000000 1.0
C      1  0.5617110000000  0.4801670000000  0.5283290000000 1.0
C      1  0.5617100000000  0.5344590000000  0.5030120000000 1.0
C      1  0.5617050000000  0.4853890000000  0.4686630000000 1.0
C      1  0.5632670000000  0.4683440000000  0.4974930000000 1.0
C      1  0.5632610000000  0.5136580000000  0.5286740000000 1.0
C      1  0.5633050000000  0.5179780000000  0.4738270000000 1.0
C      1  0.5345050000000  0.5461820000000  0.4854330000000 1.0
C      1  0.5345180000000  0.4643020000000  0.4672870000000 1.0
C      1  0.5345360000000  0.4895460000000  0.5472700000000 1.0
C      1  0.4851890000000  0.5160420000000  0.5701500000000 1.0
C      1  0.4851730000000  0.5527260000000  0.4510310000000 1.0
C      1  0.4851650000000  0.4312320000000  0.4788120000000 1.0
C      1  0.4845710000000  0.5261580000000  0.5380150000000 1.0
C      1  0.4845680000000  0.5198430000000  0.4583390000000 1.0
C      1  0.4845570000000  0.4539880000000  0.5036470000000 1.0
C      1  0.4801220000000  0.4750300000000  0.4743770000000 1.0
C      1  0.4801200000000  0.4902860000000  0.5344370000000 1.0
C      1  0.4801240000000  0.5346700000000  0.4911900000000 1.0
END
