TITL C-3985252-168-262 -0.000483349388063964 125000 -342.645720687037 0 0 60 (C5) n - 1
REM
REM in /home/nfs/bkarasulu/CARBON/AIRSS/Generating-Clusters/TERSOFF/Higher-Symm/Only-C60
REM
REM
REM
REM
REM
REM ./C.cell (28575a23ae977d3b5fae324c64b13b57)
REM
REM compiler GCC version 9.2.1 20190827 (Red Hat 9.2.1-1)
REM options -cpp -mtune=generic -march=x86-64 -g -O0 -fpre-include=/usr/include/finclude/math-vector-fortran.h
REM seed 1071667404 -501455797 -691020978 314016270 -839236522 -993010963 579511329 -934570104 646700396 -1169847734 -1256608795 1332173067 163501823 -1924127603 -2110613000 -1725330658 -406807084 -2142042841 1051644494 458745062 1947828034 -1023642528 1394186371 1679717144 1223954343 -1731486766 387659899 563716823 -1566600564 -889996120 527209282 945006742 1082868255
REM
CELL 1.54180   50.00000   50.00000   50.00000   90.00000   90.00000   90.00000
LATT -1
SFAC C  
C      1  0.4514620000000  0.5186060000000  0.5471790000000 1.0
C      1  0.4514670000000  0.4608890000000  0.5322700000000 1.0
C      1  0.4514700000000  0.4572290000000  0.4727720000000 1.0
C      1  0.4514680000000  0.5126770000000  0.4509000000000 1.0
C      1  0.4514630000000  0.5506260000000  0.4968930000000 1.0
C      1  0.4972240000000  0.5334230000000  0.4461290000000 1.0
C      1  0.4972180000000  0.5615690000000  0.5151390000000 1.0
C      1  0.4972170000000  0.5046270000000  0.5632360000000 1.0
C      1  0.4972210000000  0.4412910000000  0.5239360000000 1.0
C      1  0.4972260000000  0.4590930000000  0.4515550000000 1.0
C      1  0.4684370000000  0.5368540000000  0.4512990000000 1.0
C      1  0.4684270000000  0.5577210000000  0.5199810000000 1.0
C      1  0.4684310000000  0.4988410000000  0.5610680000000 1.0
C      1  0.4684320000000  0.4415700000000  0.5177600000000 1.0
C      1  0.4684340000000  0.4650620000000  0.4499130000000 1.0
C      1  0.5614400000000  0.4408850000000  0.4812260000000 1.0
C      1  0.5614510000000  0.4995860000000  0.4379580000000 1.0
C      1  0.5614480000000  0.5588620000000  0.4804350000000 1.0
C      1  0.5614050000000  0.5367920000000  0.5499560000000 1.0
C      1  0.5614150000000  0.4638770000000  0.5504270000000 1.0
C      1  0.4603490000000  0.5461400000000  0.5453620000000 1.0
C      1  0.4603480000000  0.4711210000000  0.5578920000000 1.0
C      1  0.4603490000000  0.4360260000000  0.4904190000000 1.0
C      1  0.4603510000000  0.4893510000000  0.4361920000000 1.0
C      1  0.4603500000000  0.5573970000000  0.4701430000000 1.0
C      1  0.5163670000000  0.4414250000000  0.5003080000000 1.0
C      1  0.5163710000000  0.4816070000000  0.4443840000000 1.0
C      1  0.5163700000000  0.5471940000000  0.4653350000000 1.0
C      1  0.5163600000000  0.5475670000000  0.5341670000000 1.0
C      1  0.5163600000000  0.4822000000000  0.5557970000000 1.0
C      1  0.4355930000000  0.5067010000000  0.4751580000000 1.0
C      1  0.4355860000000  0.5257030000000  0.4986830000000 1.0
C      1  0.4355900000000  0.5092040000000  0.5240370000000 1.0
C      1  0.4355930000000  0.4799920000000  0.5161730000000 1.0
C      1  0.4355950000000  0.4784430000000  0.4859630000000 1.0
C      1  0.5061640000000  0.4522400000000  0.5507540000000 1.0
C      1  0.5061690000000  0.4369680000000  0.4702520000000 1.0
C      1  0.5061680000000  0.5088120000000  0.4308630000000 1.0
C      1  0.5061600000000  0.5684650000000  0.4870060000000 1.0
C      1  0.5061640000000  0.5335160000000  0.5611040000000 1.0
C      1  0.4880370000000  0.5034470000000  0.4740310000000 1.0
C      1  0.4880480000000  0.5257580000000  0.4952650000000 1.0
C      1  0.4879650000000  0.5124680000000  0.5230500000000 1.0
C      1  0.4879940000000  0.4819320000000  0.5189730000000 1.0
C      1  0.4879850000000  0.4763530000000  0.4886790000000 1.0
C      1  0.5456840000000  0.5481900000000  0.5027750000000 1.0
C      1  0.5456120000000  0.5122630000000  0.5467440000000 1.0
C      1  0.5456350000000  0.4593530000000  0.5260990000000 1.0
C      1  0.5456480000000  0.4626150000000  0.4694010000000 1.0
C      1  0.5456660000000  0.5175390000000  0.4549880000000 1.0
C      1  0.5473310000000  0.4731570000000  0.4406370000000 1.0
C      1  0.5473270000000  0.5481520000000  0.4561290000000 1.0
C      1  0.5473180000000  0.5565950000000  0.5322290000000 1.0
C      1  0.5473080000000  0.4868260000000  0.5638100000000 1.0
C      1  0.5473250000000  0.4352570000000  0.5071870000000 1.0
C      1  0.5220360000000  0.5290190000000  0.4939830000000 1.0
C      1  0.5219730000000  0.5146870000000  0.5257690000000 1.0
C      1  0.5219820000000  0.4800300000000  0.5219320000000 1.0
C      1  0.5219900000000  0.4729600000000  0.4877840000000 1.0
C      1  0.5220230000000  0.5032440000000  0.4705110000000 1.0
END
