TITL C-3985251-913-715 -7.26769189340899e-05 125000 -321.127134383648 0 0 60 (Cs) n - 1
REM
REM in /home/nfs/bkarasulu/CARBON/AIRSS/Generating-Clusters/TERSOFF/Higher-Symm/Only-C60
REM
REM
REM
REM
REM
REM ./C.cell (28575a23ae977d3b5fae324c64b13b57)
REM
REM compiler GCC version 9.2.1 20190827 (Red Hat 9.2.1-1)
REM options -cpp -mtune=generic -march=x86-64 -g -O0 -fpre-include=/usr/include/finclude/math-vector-fortran.h
REM seed -1293316199 653351868 -321986139 -757297821 -198836961 604497392 -2102671387 367772068 -1603027240 2030888736 1498613498 457905924 -184777692 -1469060422 230808690 -1174041979 723072785 291001261 -1277131323 1676674458 1675848610 -776011829 -420062988 1612439891 1757814338 -894633381 -1546537247 1630074271 1735085109 383701551 -1523867678 -1594026981 639593198
REM
CELL 1.54180   50.00000   50.00000   50.00000   90.00000   90.00000   90.00000
LATT -1
SFAC C  
C      1  0.4422850000000  0.5427390000000  0.5211210000000 1.0
C      1  0.4422980000000  0.5428400000000  0.4733300000000 1.0
C      1  0.4867500000000  0.4913020000000  0.5392600000000 1.0
C      1  0.4867180000000  0.4912900000000  0.4554040000000 1.0
C      1  0.4747640000000  0.4395770000000  0.5295210000000 1.0
C      1  0.4746930000000  0.4395290000000  0.4651240000000 1.0
C      1  0.5308810000000  0.5088330000000  0.5393290000000 1.0
C      1  0.5309120000000  0.5088190000000  0.4553000000000 1.0
C      1  0.4805020000000  0.5208240000000  0.4478830000000 1.0
C      1  0.4805340000000  0.5208290000000  0.5468070000000 1.0
C      1  0.4646720000000  0.4685680000000  0.4692780000000 1.0
C      1  0.4647160000000  0.4685940000000  0.5254090000000 1.0
C      1  0.5294670000000  0.4517670000000  0.5252270000000 1.0
C      1  0.5294120000000  0.4517430000000  0.4693960000000 1.0
C      1  0.5020020000000  0.4452910000000  0.4511420000000 1.0
C      1  0.5020800000000  0.4453120000000  0.5434850000000 1.0
C      1  0.5439830000000  0.5549350000000  0.4731980000000 1.0
C      1  0.5439390000000  0.5549410000000  0.5215090000000 1.0
C      1  0.4930920000000  0.5514450000000  0.5336010000000 1.0
C      1  0.4931430000000  0.5514610000000  0.4610330000000 1.0
C      1  0.5181820000000  0.4842160000000  0.4667730000000 1.0
C      1  0.5182050000000  0.4842190000000  0.5278370000000 1.0
C      1  0.4959510000000  0.4695000000000  0.5602470000000 1.0
C      1  0.4958650000000  0.4694880000000  0.4344000000000 1.0
C      1  0.4649310000000  0.5615330000000  0.4736940000000 1.0
C      1  0.4649000000000  0.5614730000000  0.5208640000000 1.0
C      1  0.5184450000000  0.5747970000000  0.4727090000000 1.0
C      1  0.5184090000000  0.5748070000000  0.5220000000000 1.0
C      1  0.5228610000000  0.5333450000000  0.5257970000000 1.0
C      1  0.5229110000000  0.5333440000000  0.4688280000000 1.0
C      1  0.5404770000000  0.4226720000000  0.4733260000000 1.0
C      1  0.5405580000000  0.4227060000000  0.5213350000000 1.0
C      1  0.4348420000000  0.5257160000000  0.4971790000000 1.0
C      1  0.5158780000000  0.5004060000000  0.4973090000000 1.0
C      1  0.4941920000000  0.4578820000000  0.4972870000000 1.0
C      1  0.5821450000000  0.4276760000000  0.4972620000000 1.0
C      1  0.4421390000000  0.4195320000000  0.4973600000000 1.0
C      1  0.4859560000000  0.6001770000000  0.4973310000000 1.0
C      1  0.4073860000000  0.5140900000000  0.4971360000000 1.0
C      1  0.5486030000000  0.4646570000000  0.4972880000000 1.0
C      1  0.4188290000000  0.4373380000000  0.4973710000000 1.0
C      1  0.5940960000000  0.5047820000000  0.4974230000000 1.0
C      1  0.5871010000000  0.5630170000000  0.4973880000000 1.0
C      1  0.4635880000000  0.5817790000000  0.4973030000000 1.0
C      1  0.5092210000000  0.5284190000000  0.4972990000000 1.0
C      1  0.5776780000000  0.4564220000000  0.4972710000000 1.0
C      1  0.5555860000000  0.4149190000000  0.4973110000000 1.0
C      1  0.4374160000000  0.5959550000000  0.4973080000000 1.0
C      1  0.5121460000000  0.5894310000000  0.4973480000000 1.0
C      1  0.4720790000000  0.4293880000000  0.4973380000000 1.0
C      1  0.5671160000000  0.5156750000000  0.4973710000000 1.0
C      1  0.4798590000000  0.5301590000000  0.4972500000000 1.0
C      1  0.5990270000000  0.4762380000000  0.4973610000000 1.0
C      1  0.4223820000000  0.4660150000000  0.4973980000000 1.0
C      1  0.5451030000000  0.4946120000000  0.4972880000000 1.0
C      1  0.4496880000000  0.4746900000000  0.4973950000000 1.0
C      1  0.4600870000000  0.5051110000000  0.4971590000000 1.0
C      1  0.4015440000000  0.4856930000000  0.4972430000000 1.0
C      1  0.4896630000000  0.4872510000000  0.4973150000000 1.0
C      1  0.5615430000000  0.5478740000000  0.4973670000000 1.0
END
