TITL C-3985259-1859-527 0.000841295815657222 125000 -336.721806639838 0 0 60 (C3) n - 1
REM
REM in /home/nfs/bkarasulu/CARBON/AIRSS/Generating-Clusters/TERSOFF/Higher-Symm/Only-C60
REM
REM
REM
REM
REM
REM ./C.cell (28575a23ae977d3b5fae324c64b13b57)
REM
REM compiler GCC version 9.2.1 20190827 (Red Hat 9.2.1-1)
REM options -cpp -mtune=generic -march=x86-64 -g -O0 -fpre-include=/usr/include/finclude/math-vector-fortran.h
REM seed -74443609 -1071378249 -744169320 -767413831 1737105294 -2007444999 1835473961 -1984683243 684428568 54045021 1457412675 1638396145 -1967439597 1430735266 -857770594 1812041194 -1305534376 -1433091655 -1752710106 136789936 1365055235 1452892989 1975761122 81935294 2001710430 775966833 466928762 832911797 1687371669 -358406716 1139356010 -767177493 1064360804
REM
CELL 1.54180   50.00000   50.00000   50.00000   90.00000   90.00000   90.00000
LATT -1
SFAC C  
C      1  0.4740980000000  0.4853440000000  0.5503180000000 1.0
C      1  0.5255910000000  0.4848700000000  0.5503080000000 1.0
C      1  0.5003140000000  0.5297050000000  0.5503140000000 1.0
C      1  0.4740980000000  0.5146560000000  0.5503180000000 1.0
C      1  0.5255910000000  0.5151300000000  0.5503080000000 1.0
C      1  0.5003140000000  0.4702950000000  0.5503140000000 1.0
C      1  0.4754900000000  0.5708280000000  0.4797170000000 1.0
C      1  0.4509170000000  0.4433670000000  0.4797180000000 1.0
C      1  0.5735910000000  0.4858120000000  0.4797170000000 1.0
C      1  0.4754900000000  0.4291720000000  0.4797170000000 1.0
C      1  0.4509170000000  0.5566330000000  0.4797180000000 1.0
C      1  0.5735910000000  0.5141880000000  0.4797170000000 1.0
C      1  0.4990460000000  0.5339010000000  0.5085520000000 1.0
C      1  0.4711170000000  0.4822200000000  0.5085270000000 1.0
C      1  0.5298370000000  0.4838760000000  0.5085560000000 1.0
C      1  0.4990460000000  0.4660990000000  0.5085520000000 1.0
C      1  0.4711170000000  0.5177800000000  0.5085270000000 1.0
C      1  0.5298370000000  0.5161240000000  0.5085560000000 1.0
C      1  0.5004750000000  0.5319140000000  0.4618630000000 1.0
C      1  0.4721230000000  0.4844560000000  0.4618660000000 1.0
C      1  0.5274010000000  0.4836300000000  0.4618640000000 1.0
C      1  0.5004750000000  0.4680860000000  0.4618630000000 1.0
C      1  0.4721230000000  0.5155440000000  0.4618660000000 1.0
C      1  0.5274010000000  0.5163700000000  0.4618640000000 1.0
C      1  0.4503150000000  0.5293510000000  0.5347220000000 1.0
C      1  0.4994040000000  0.4422790000000  0.5347200000000 1.0
C      1  0.5502810000000  0.5283550000000  0.5347160000000 1.0
C      1  0.4503150000000  0.4706490000000  0.5347220000000 1.0
C      1  0.4994040000000  0.5577210000000  0.5347200000000 1.0
C      1  0.5502810000000  0.4716450000000  0.5347160000000 1.0
C      1  0.4748100000000  0.4282440000000  0.5416210000000 1.0
C      1  0.5747450000000  0.5140630000000  0.5416270000000 1.0
C      1  0.4504460000000  0.5577050000000  0.5416260000000 1.0
C      1  0.4748100000000  0.5717560000000  0.5416210000000 1.0
C      1  0.5747450000000  0.4859370000000  0.5416270000000 1.0
C      1  0.4504460000000  0.4422950000000  0.5416260000000 1.0
C      1  0.5279570000000  0.4839910000000  0.4284390000000 1.0
C      1  0.4998860000000  0.5322160000000  0.4284390000000 1.0
C      1  0.4721570000000  0.4837930000000  0.4284380000000 1.0
C      1  0.5279570000000  0.5160090000000  0.4284390000000 1.0
C      1  0.4998860000000  0.4677840000000  0.4284390000000 1.0
C      1  0.4721570000000  0.5162070000000  0.4284380000000 1.0
C      1  0.5494050000000  0.4435180000000  0.4918760000000 1.0
C      1  0.5242090000000  0.5710250000000  0.4918750000000 1.0
C      1  0.4263830000000  0.4854530000000  0.4918750000000 1.0
C      1  0.5494050000000  0.5564820000000  0.4918760000000 1.0
C      1  0.5242090000000  0.4289750000000  0.4918750000000 1.0
C      1  0.4263830000000  0.5145470000000  0.4918750000000 1.0
C      1  0.5185330000000  0.5762210000000  0.5204400000000 1.0
C      1  0.4247230000000  0.4779480000000  0.5204400000000 1.0
C      1  0.5567420000000  0.4458440000000  0.5204430000000 1.0
C      1  0.5185330000000  0.4237790000000  0.5204400000000 1.0
C      1  0.4247230000000  0.5220520000000  0.5204400000000 1.0
C      1  0.5567420000000  0.5541560000000  0.5204430000000 1.0
C      1  0.5476210000000  0.4724500000000  0.4824570000000 1.0
C      1  0.5000500000000  0.5550150000000  0.4824620000000 1.0
C      1  0.4523330000000  0.4725310000000  0.4824630000000 1.0
C      1  0.5476210000000  0.5275500000000  0.4824570000000 1.0
C      1  0.5000500000000  0.4449850000000  0.4824620000000 1.0
C      1  0.4523330000000  0.5274690000000  0.4824630000000 1.0
END
