TITL C-3985244-725-349 0.000982242625177701 125000 -337.60400730083 0 0 60 (C5) n - 1
REM
REM in /home/nfs/bkarasulu/CARBON/AIRSS/Generating-Clusters/TERSOFF/Higher-Symm/Only-C60
REM
REM
REM
REM
REM
REM ./C.cell (28575a23ae977d3b5fae324c64b13b57)
REM
REM compiler GCC version 9.2.1 20190827 (Red Hat 9.2.1-1)
REM options -cpp -mtune=generic -march=x86-64 -g -O0 -fpre-include=/usr/include/finclude/math-vector-fortran.h
REM seed 10306691 -701530581 -2118805870 -1008219445 -154345853 79102749 2068514946 41225943 -224179133 1531817471 2083671868 235129220 -1350819051 -1421347881 -1986182223 -883164021 -1349213168 1220117322 -695596775 -2112842106 1070644899 1299568854 42108032 498642144 -971101327 774463565 -977754459 1842634468 835569083 1327983520 1575556369 1941944442 -1031712868
REM
CELL 1.54180   50.00000   50.00000   50.00000   90.00000   90.00000   90.00000
LATT -1
SFAC C  
C      1  0.5078850000000  0.5348470000000  0.4509790000000 1.0
C      1  0.5078820000000  0.5573930000000  0.5179990000000 1.0
C      1  0.5078770000000  0.5006170000000  0.5601300000000 1.0
C      1  0.5078740000000  0.4430200000000  0.5191590000000 1.0
C      1  0.5078850000000  0.4641700000000  0.4517330000000 1.0
C      1  0.4733780000000  0.4551020000000  0.4569510000000 1.0
C      1  0.4733820000000  0.5270720000000  0.4439980000000 1.0
C      1  0.4733720000000  0.5616360000000  0.5084430000000 1.0
C      1  0.4733680000000  0.5110240000000  0.5612330000000 1.0
C      1  0.4733700000000  0.4451740000000  0.5294030000000 1.0
C      1  0.4511930000000  0.4762680000000  0.4517300000000 1.0
C      1  0.4512010000000  0.5385740000000  0.4625180000000 1.0
C      1  0.4511940000000  0.5475800000000  0.5251010000000 1.0
C      1  0.4511870000000  0.4908350000000  0.5530140000000 1.0
C      1  0.4511840000000  0.4467560000000  0.5076660000000 1.0
C      1  0.5418140000000  0.4405960000000  0.5206740000000 1.0
C      1  0.5418190000000  0.4619750000000  0.4499050000000 1.0
C      1  0.5418300000000  0.5358930000000  0.4483440000000 1.0
C      1  0.5418290000000  0.5602070000000  0.5181720000000 1.0
C      1  0.5418220000000  0.5013100000000  0.5628720000000 1.0
C      1  0.4780530000000  0.5157660000000  0.5197670000000 1.0
C      1  0.4780460000000  0.4860790000000  0.5211090000000 1.0
C      1  0.4780480000000  0.4756250000000  0.4932900000000 1.0
C      1  0.4780580000000  0.4988640000000  0.4747520000000 1.0
C      1  0.4780590000000  0.5236640000000  0.4911240000000 1.0
C      1  0.4984730000000  0.4865690000000  0.4317730000000 1.0
C      1  0.4984710000000  0.5607370000000  0.4661410000000 1.0
C      1  0.4984710000000  0.5509760000000  0.5473060000000 1.0
C      1  0.4984660000000  0.4707620000000  0.5631000000000 1.0
C      1  0.4984650000000  0.4309530000000  0.4916920000000 1.0
C      1  0.4730810000000  0.5358620000000  0.5441780000000 1.0
C      1  0.4730720000000  0.4690670000000  0.5477650000000 1.0
C      1  0.4730750000000  0.4450220000000  0.4853390000000 1.0
C      1  0.4730900000000  0.4969470000000  0.4431990000000 1.0
C      1  0.4730900000000  0.5530780000000  0.4795430000000 1.0
C      1  0.4364960000000  0.4736710000000  0.5040630000000 1.0
C      1  0.4364980000000  0.4880070000000  0.4762180000000 1.0
C      1  0.4365000000000  0.5189160000000  0.4812430000000 1.0
C      1  0.4365000000000  0.5236920000000  0.5121980000000 1.0
C      1  0.4364960000000  0.4957270000000  0.5263030000000 1.0
C      1  0.5478230000000  0.4528440000000  0.5492480000000 1.0
C      1  0.5478240000000  0.4385720000000  0.4703700000000 1.0
C      1  0.5478340000000  0.5091870000000  0.4324280000000 1.0
C      1  0.5478330000000  0.5670910000000  0.4878550000000 1.0
C      1  0.5478310000000  0.5322690000000  0.5600520000000 1.0
C      1  0.5585370000000  0.5484720000000  0.4683560000000 1.0
C      1  0.5585340000000  0.5450570000000  0.5363180000000 1.0
C      1  0.5585260000000  0.4793680000000  0.5540750000000 1.0
C      1  0.5585260000000  0.4421630000000  0.4970910000000 1.0
C      1  0.5585330000000  0.4848880000000  0.4441150000000 1.0
C      1  0.5161680000000  0.5099460000000  0.4276690000000 1.0
C      1  0.5161700000000  0.5718560000000  0.4871060000000 1.0
C      1  0.5161680000000  0.5344600000000  0.5643530000000 1.0
C      1  0.5161570000000  0.4494430000000  0.5526530000000 1.0
C      1  0.5161550000000  0.4342900000000  0.4681850000000 1.0
C      1  0.5171010000000  0.5255880000000  0.5079180000000 1.0
C      1  0.5170970000000  0.5003830000000  0.5267690000000 1.0
C      1  0.5171060000000  0.4746690000000  0.5086270000000 1.0
C      1  0.5171130000000  0.4839770000000  0.4785620000000 1.0
C      1  0.5171120000000  0.5154470000000  0.4781230000000 1.0
END
