TITL C-3985245-9316-338 0.00515509778662514 125000 -328.875489562881 0 0 60 (C1) n - 1
REM
REM in /home/nfs/bkarasulu/CARBON/AIRSS/Generating-Clusters/TERSOFF/Higher-Symm/Only-C60
REM
REM
REM
REM
REM
REM ./C.cell (28575a23ae977d3b5fae324c64b13b57)
REM
REM compiler GCC version 9.2.1 20190827 (Red Hat 9.2.1-1)
REM options -cpp -mtune=generic -march=x86-64 -g -O0 -fpre-include=/usr/include/finclude/math-vector-fortran.h
REM seed -278875051 1025574466 1015598834 1351422109 -1419610953 286970601 -713036029 1791156515 7578392 1882723080 -1060287267 1165335612 -1954066995 442347388 -916274295 1493897247 -190324288 972860152 2024444393 -594885645 -823536430 -1507884450 -756553783 627199012 532621535 909558840 2016809893 -1336826562 -1232276211 70742232 100038485 -819472061 -806734255
REM
CELL 1.54180   50.00000   50.00000   50.00000   90.00000   90.00000   90.00000
LATT -1
SFAC C  
C      1  0.4408890000000  0.5361620000000  0.4464620000000 1.0
C      1  0.4482810000000  0.5687070000000  0.4902890000000 1.0
C      1  0.4497420000000  0.5508080000000  0.5522960000000 1.0
C      1  0.4481380000000  0.4919680000000  0.5688860000000 1.0
C      1  0.4500020000000  0.4404010000000  0.5365210000000 1.0
C      1  0.4512210000000  0.4358490000000  0.4785940000000 1.0
C      1  0.4479530000000  0.4710760000000  0.4367820000000 1.0
C      1  0.5432560000000  0.5540610000000  0.4754870000000 1.0
C      1  0.5435320000000  0.5489440000000  0.5262070000000 1.0
C      1  0.5425890000000  0.5129360000000  0.5628670000000 1.0
C      1  0.5412990000000  0.4599010000000  0.5545690000000 1.0
C      1  0.5461980000000  0.4377790000000  0.5036590000000 1.0
C      1  0.5451570000000  0.4641080000000  0.4490080000000 1.0
C      1  0.5431720000000  0.5162710000000  0.4374340000000 1.0
C      1  0.4989270000000  0.5365560000000  0.5473690000000 1.0
C      1  0.4981060000000  0.4869650000000  0.5572330000000 1.0
C      1  0.5005520000000  0.4481320000000  0.5243670000000 1.0
C      1  0.5023700000000  0.4489720000000  0.4728830000000 1.0
C      1  0.4999730000000  0.4835760000000  0.4332530000000 1.0
C      1  0.4984160000000  0.5358560000000  0.4551250000000 1.0
C      1  0.4994360000000  0.5607890000000  0.5013370000000 1.0
C      1  0.4404220000000  0.5024180000000  0.4415170000000 1.0
C      1  0.4510240000000  0.5426720000000  0.4742670000000 1.0
C      1  0.4458310000000  0.5591080000000  0.5209980000000 1.0
C      1  0.4477130000000  0.5195370000000  0.5522330000000 1.0
C      1  0.4504360000000  0.4725280000000  0.5441930000000 1.0
C      1  0.4541920000000  0.4492890000000  0.5069110000000 1.0
C      1  0.4553750000000  0.4633280000000  0.4650940000000 1.0
C      1  0.4818150000000  0.4765260000000  0.4775700000000 1.0
C      1  0.4755940000000  0.4994450000000  0.4503210000000 1.0
C      1  0.4778490000000  0.5285120000000  0.4805710000000 1.0
C      1  0.4726650000000  0.5409180000000  0.5102120000000 1.0
C      1  0.4742450000000  0.5198010000000  0.5328870000000 1.0
C      1  0.4764270000000  0.4882740000000  0.5322320000000 1.0
C      1  0.4789170000000  0.4673460000000  0.5090240000000 1.0
C      1  0.5614600000000  0.5037300000000  0.5416850000000 1.0
C      1  0.5621050000000  0.4728170000000  0.5389660000000 1.0
C      1  0.5637190000000  0.4604670000000  0.5115550000000 1.0
C      1  0.5590980000000  0.4820450000000  0.4670860000000 1.0
C      1  0.5603610000000  0.5101920000000  0.4600600000000 1.0
C      1  0.5600260000000  0.5309760000000  0.4825430000000 1.0
C      1  0.5572290000000  0.5244510000000  0.5153260000000 1.0
C      1  0.5171400000000  0.4412970000000  0.5001560000000 1.0
C      1  0.5162110000000  0.4618300000000  0.4483640000000 1.0
C      1  0.5142180000000  0.5138020000000  0.4387560000000 1.0
C      1  0.5140700000000  0.5535980000000  0.4758870000000 1.0
C      1  0.5146100000000  0.5524910000000  0.5272250000000 1.0
C      1  0.5134050000000  0.5129220000000  0.5596800000000 1.0
C      1  0.5132620000000  0.4627920000000  0.5480370000000 1.0
C      1  0.4796180000000  0.4286400000000  0.4688680000000 1.0
C      1  0.4731180000000  0.4708930000000  0.4198140000000 1.0
C      1  0.4711640000000  0.5311020000000  0.4383180000000 1.0
C      1  0.4760970000000  0.5804760000000  0.4945340000000 1.0
C      1  0.4780660000000  0.5538060000000  0.5618310000000 1.0
C      1  0.4762360000000  0.4856590000000  0.5784230000000 1.0
C      1  0.4790110000000  0.4296480000000  0.5356210000000 1.0
C      1  0.4901960000000  0.5029720000000  0.4900530000000 1.0
C      1  0.5101660000000  0.5030610000000  0.5109760000000 1.0
C      1  0.5387850000000  0.5022790000000  0.5063110000000 1.0
C      1  0.5523930000000  0.4803710000000  0.4944210000000 1.0
END
