TITL C-3985247-764-156 -0.00551262080645512 125000 -306.581600847491 0 0 60 (D2h) n - 1
REM
REM in /home/nfs/bkarasulu/CARBON/AIRSS/Generating-Clusters/TERSOFF/Higher-Symm/Only-C60
REM
REM
REM
REM
REM
REM ./C.cell (28575a23ae977d3b5fae324c64b13b57)
REM
REM compiler GCC version 9.2.1 20190827 (Red Hat 9.2.1-1)
REM options -cpp -mtune=generic -march=x86-64 -g -O0 -fpre-include=/usr/include/finclude/math-vector-fortran.h
REM seed 1841504390 -1130945104 460335212 -1847344711 2072111874 2055765727 1111646500 -1201766170 1618331811 -1495393159 1484846550 -1968016865 663196227 857419376 -797521684 -500407247 -393254948 782647702 -672738297 1261794491 1634595309 2105805711 -870442073 1700177822 520202377 -1941393209 -572525967 2009035957 -410988311 2140635622 -761674265 -376683821 -751371221
REM
CELL 1.54180   50.00000   50.00000   50.00000   90.00000   90.00000   90.00000
LATT -1
SFAC C  
C      1  0.4413270000000  0.5545800000000  0.5241930000000 1.0
C      1  0.4413270000000  0.4454200000000  0.4758070000000 1.0
C      1  0.5586730000000  0.5545800000000  0.5241930000000 1.0
C      1  0.5586730000000  0.4454200000000  0.4758070000000 1.0
C      1  0.4413270000000  0.4454200000000  0.5241930000000 1.0
C      1  0.4413270000000  0.5545800000000  0.4758070000000 1.0
C      1  0.5586730000000  0.4454200000000  0.5241930000000 1.0
C      1  0.5586730000000  0.5545800000000  0.4758070000000 1.0
C      1  0.5641870000000  0.5255130000000  0.4818940000000 1.0
C      1  0.5641870000000  0.4744870000000  0.5181060000000 1.0
C      1  0.4358130000000  0.5255130000000  0.4818940000000 1.0
C      1  0.4358130000000  0.4744870000000  0.5181060000000 1.0
C      1  0.5641870000000  0.4744870000000  0.4818940000000 1.0
C      1  0.5641870000000  0.5255130000000  0.5181060000000 1.0
C      1  0.4358130000000  0.4744870000000  0.4818940000000 1.0
C      1  0.4358130000000  0.5255130000000  0.5181060000000 1.0
C      1  0.4849160000000  0.5719940000000  0.5159210000000 1.0
C      1  0.4849160000000  0.4280060000000  0.4840790000000 1.0
C      1  0.5150840000000  0.5719940000000  0.5159210000000 1.0
C      1  0.5150840000000  0.4280060000000  0.4840790000000 1.0
C      1  0.4849160000000  0.4280060000000  0.5159210000000 1.0
C      1  0.4849160000000  0.5719940000000  0.4840790000000 1.0
C      1  0.5150840000000  0.4280060000000  0.5159210000000 1.0
C      1  0.5150840000000  0.5719940000000  0.4840790000000 1.0
C      1  0.4530220000000  0.4856760000000  0.4561530000000 1.0
C      1  0.4530220000000  0.5143240000000  0.5438470000000 1.0
C      1  0.5469780000000  0.4856760000000  0.4561530000000 1.0
C      1  0.5469780000000  0.5143240000000  0.5438470000000 1.0
C      1  0.4530220000000  0.5143240000000  0.4561530000000 1.0
C      1  0.4530220000000  0.4856760000000  0.5438470000000 1.0
C      1  0.5469780000000  0.5143240000000  0.4561530000000 1.0
C      1  0.5469780000000  0.4856760000000  0.5438470000000 1.0
C      1  0.4709840000000  0.4504720000000  0.5287060000000 1.0
C      1  0.4709840000000  0.5495280000000  0.4712940000000 1.0
C      1  0.5290160000000  0.4504720000000  0.5287060000000 1.0
C      1  0.5290160000000  0.5495280000000  0.4712940000000 1.0
C      1  0.4709840000000  0.5495280000000  0.5287060000000 1.0
C      1  0.4709840000000  0.4504720000000  0.4712940000000 1.0
C      1  0.5290160000000  0.5495280000000  0.5287060000000 1.0
C      1  0.5290160000000  0.4504720000000  0.4712940000000 1.0
C      1  0.4821940000000  0.5322260000000  0.4447750000000 1.0
C      1  0.4821940000000  0.4677740000000  0.5552250000000 1.0
C      1  0.5178060000000  0.5322260000000  0.4447750000000 1.0
C      1  0.5178060000000  0.4677740000000  0.5552250000000 1.0
C      1  0.4821940000000  0.4677740000000  0.4447750000000 1.0
C      1  0.4821940000000  0.5322260000000  0.5552250000000 1.0
C      1  0.5178060000000  0.4677740000000  0.4447750000000 1.0
C      1  0.5178060000000  0.5322260000000  0.5552250000000 1.0
C      1  0.4837180000000  0.5184870000000  0.4843170000000 1.0
C      1  0.4837180000000  0.4815130000000  0.5156830000000 1.0
C      1  0.5162820000000  0.5184870000000  0.4843170000000 1.0
C      1  0.5162820000000  0.4815130000000  0.5156830000000 1.0
C      1  0.4837180000000  0.4815130000000  0.4843170000000 1.0
C      1  0.4837180000000  0.5184870000000  0.5156830000000 1.0
C      1  0.5162820000000  0.4815130000000  0.4843170000000 1.0
C      1  0.5162820000000  0.5184870000000  0.5156830000000 1.0
C      1  0.4355320000000  0.5703370000000  0.5000000000000 1.0
C      1  0.5644680000000  0.4296630000000  0.5000000000000 1.0
C      1  0.4355320000000  0.4296630000000  0.5000000000000 1.0
C      1  0.5644680000000  0.5703370000000  0.5000000000000 1.0
END
