TITL C-3985259-1859-783 -0.0020176418562811 125000 -304.113198936149 0 0 60 (D4) n - 1
REM
REM in /home/nfs/bkarasulu/CARBON/AIRSS/Generating-Clusters/TERSOFF/Higher-Symm/Only-C60
REM
REM
REM
REM
REM
REM ./C.cell (28575a23ae977d3b5fae324c64b13b57)
REM
REM compiler GCC version 9.2.1 20190827 (Red Hat 9.2.1-1)
REM options -cpp -mtune=generic -march=x86-64 -g -O0 -fpre-include=/usr/include/finclude/math-vector-fortran.h
REM seed -1159643948 1065743660 -1465732488 289062063 1137835284 -434800201 -2081454447 1987523576 -1810653652 -1510960733 -2035204807 -1112224 542991214 507748808 -1036124950 636614657 1816694608 -955955393 -1322412405 -157763355 1551991193 1419039100 1339497807 2039147553 842407859 275248396 -833160632 -845641212 -1958494903 1404924364 567713622 349508835 -1361236425
REM
CELL 1.54180   50.00000   50.00000   50.00000   90.00000   90.00000   90.00000
LATT -1
SFAC C  
C      1  0.4650770000000  0.5635870000000  0.5151620000000 1.0
C      1  0.4650770000000  0.4848380000000  0.5635870000000 1.0
C      1  0.4650770000000  0.4364130000000  0.4848380000000 1.0
C      1  0.4650770000000  0.5151620000000  0.4364130000000 1.0
C      1  0.5339030000000  0.4363960000000  0.5151640000000 1.0
C      1  0.5339030000000  0.5151640000000  0.5636040000000 1.0
C      1  0.5339030000000  0.5636040000000  0.4848360000000 1.0
C      1  0.5339030000000  0.4848360000000  0.4363960000000 1.0
C      1  0.5564380000000  0.4543940000000  0.5269330000000 1.0
C      1  0.5564380000000  0.4730670000000  0.4543940000000 1.0
C      1  0.5564380000000  0.5456060000000  0.4730670000000 1.0
C      1  0.5564380000000  0.5269330000000  0.5456060000000 1.0
C      1  0.4425730000000  0.5455550000000  0.5269440000000 1.0
C      1  0.4425730000000  0.5269440000000  0.4544450000000 1.0
C      1  0.4425730000000  0.4544450000000  0.4730560000000 1.0
C      1  0.4425730000000  0.4730560000000  0.5455550000000 1.0
C      1  0.4963800000000  0.5625040000000  0.5276460000000 1.0
C      1  0.4963800000000  0.4723540000000  0.5625040000000 1.0
C      1  0.4963800000000  0.4374960000000  0.4723540000000 1.0
C      1  0.4963800000000  0.5276460000000  0.4374960000000 1.0
C      1  0.5026230000000  0.4374890000000  0.5276600000000 1.0
C      1  0.5026230000000  0.5276600000000  0.5625110000000 1.0
C      1  0.5026230000000  0.5625110000000  0.4723400000000 1.0
C      1  0.5026230000000  0.4723400000000  0.4374890000000 1.0
C      1  0.4660560000000  0.5242400000000  0.4973080000000 1.0
C      1  0.4660560000000  0.5026920000000  0.5242400000000 1.0
C      1  0.4660560000000  0.4757600000000  0.5026920000000 1.0
C      1  0.4660560000000  0.4973080000000  0.4757600000000 1.0
C      1  0.5329640000000  0.4757490000000  0.4973490000000 1.0
C      1  0.5329640000000  0.4973490000000  0.5242510000000 1.0
C      1  0.5329640000000  0.5242510000000  0.5026510000000 1.0
C      1  0.5329640000000  0.5026510000000  0.4757490000000 1.0
C      1  0.5274750000000  0.4857780000000  0.5571620000000 1.0
C      1  0.5274750000000  0.4428380000000  0.4857780000000 1.0
C      1  0.5274750000000  0.5142220000000  0.4428380000000 1.0
C      1  0.5274750000000  0.5571620000000  0.5142220000000 1.0
C      1  0.4714890000000  0.5142360000000  0.5571820000000 1.0
C      1  0.4714890000000  0.5571820000000  0.4857640000000 1.0
C      1  0.4714890000000  0.4857640000000  0.4428180000000 1.0
C      1  0.4714890000000  0.4428180000000  0.5142360000000 1.0
C      1  0.5717700000000  0.4872520000000  0.4784360000000 1.0
C      1  0.5717700000000  0.5215640000000  0.4872520000000 1.0
C      1  0.5717700000000  0.5127480000000  0.5215640000000 1.0
C      1  0.5717700000000  0.4784360000000  0.5127480000000 1.0
C      1  0.4272320000000  0.5127400000000  0.4784460000000 1.0
C      1  0.4272320000000  0.4784460000000  0.4872600000000 1.0
C      1  0.4272320000000  0.4872600000000  0.5215540000000 1.0
C      1  0.4272320000000  0.5215540000000  0.5127400000000 1.0
C      1  0.4933900000000  0.4861690000000  0.5326990000000 1.0
C      1  0.4933900000000  0.4673010000000  0.4861690000000 1.0
C      1  0.4933900000000  0.5138310000000  0.4673010000000 1.0
C      1  0.4933900000000  0.5326990000000  0.5138310000000 1.0
C      1  0.5055690000000  0.5138190000000  0.5327240000000 1.0
C      1  0.5055690000000  0.5327240000000  0.4861810000000 1.0
C      1  0.5055690000000  0.4861810000000  0.4672760000000 1.0
C      1  0.5055690000000  0.4672760000000  0.5138190000000 1.0
C      1  0.4995030000000  0.5566720000000  0.4433170000000 1.0
C      1  0.4995030000000  0.4433280000000  0.5566830000000 1.0
C      1  0.4995030000000  0.4433170000000  0.4433280000000 1.0
C      1  0.4995030000000  0.5566830000000  0.5566720000000 1.0
END
