TITL C-3985253-1688-963 9.80549278175375e-06 125000 -339.097415916171 0 0 60 (Cs) n - 1
REM
REM in /home/nfs/bkarasulu/CARBON/AIRSS/Generating-Clusters/TERSOFF/Higher-Symm/Only-C60
REM
REM
REM
REM
REM
REM ./C.cell (28575a23ae977d3b5fae324c64b13b57)
REM
REM compiler GCC version 9.2.1 20190827 (Red Hat 9.2.1-1)
REM options -cpp -mtune=generic -march=x86-64 -g -O0 -fpre-include=/usr/include/finclude/math-vector-fortran.h
REM seed -1265271590 1408235926 1217668935 -436849299 -287121255 192187230 -1871790879 1461941114 -1478007891 1666369463 -602263286 -1352781795 727879038 135869833 2008414196 1221000627 644176705 -1207101866 844199113 -202689059 -1522900206 -2097954114 -1950733676 176973318 414830524 165722180 1722794950 917832216 231047866 -1280030474 212446981 297827105 2059808819
REM
CELL 1.54180   50.00000   50.00000   50.00000   90.00000   90.00000   90.00000
LATT -1
SFAC C  
C      1  0.5152560000000  0.4842230000000  0.4571030000000 1.0
C      1  0.5152560000000  0.5157770000000  0.4571030000000 1.0
C      1  0.5619220000000  0.4446420000000  0.4941600000000 1.0
C      1  0.5619220000000  0.5553580000000  0.4941600000000 1.0
C      1  0.5264050000000  0.4135250000000  0.5031330000000 1.0
C      1  0.5264050000000  0.5864750000000  0.5031330000000 1.0
C      1  0.5153200000000  0.5149200000000  0.5062970000000 1.0
C      1  0.5153200000000  0.4850800000000  0.5062970000000 1.0
C      1  0.4868480000000  0.4337410000000  0.5089220000000 1.0
C      1  0.4868480000000  0.5662590000000  0.5089220000000 1.0
C      1  0.4973710000000  0.5489680000000  0.5313020000000 1.0
C      1  0.4973710000000  0.4510320000000  0.5313020000000 1.0
C      1  0.4763610000000  0.4612170000000  0.5501330000000 1.0
C      1  0.4763610000000  0.5387830000000  0.5501330000000 1.0
C      1  0.4226680000000  0.4723930000000  0.5221680000000 1.0
C      1  0.4226680000000  0.5276070000000  0.5221690000000 1.0
C      1  0.4427460000000  0.4746010000000  0.4778130000000 1.0
C      1  0.4427460000000  0.5253990000000  0.4778130000000 1.0
C      1  0.4995280000000  0.5931580000000  0.5141800000000 1.0
C      1  0.4995280000000  0.4068420000000  0.5141800000000 1.0
C      1  0.4893000000000  0.4834180000000  0.5661610000000 1.0
C      1  0.4893000000000  0.5165820000000  0.5661610000000 1.0
C      1  0.4494290000000  0.4457250000000  0.4775520000000 1.0
C      1  0.4494290000000  0.5542750000000  0.4775520000000 1.0
C      1  0.5429900000000  0.5632740000000  0.5166990000000 1.0
C      1  0.5429900000000  0.4367260000000  0.5166990000000 1.0
C      1  0.5551710000000  0.4851160000000  0.5195390000000 1.0
C      1  0.5551710000000  0.5148840000000  0.5195390000000 1.0
C      1  0.4717400000000  0.5152250000000  0.4854630000000 1.0
C      1  0.4717400000000  0.4847750000000  0.4854630000000 1.0
C      1  0.4498790000000  0.4612020000000  0.5296190000000 1.0
C      1  0.4498790000000  0.5387990000000  0.5296190000000 1.0
C      1  0.5225140000000  0.4264610000000  0.4750220000000 1.0
C      1  0.5225140000000  0.5735390000000  0.4750220000000 1.0
C      1  0.5697640000000  0.4725390000000  0.4967740000000 1.0
C      1  0.5697640000000  0.5274610000000  0.4967740000000 1.0
C      1  0.4752340000000  0.5503330000000  0.4597330000000 1.0
C      1  0.4752340000000  0.4496670000000  0.4597330000000 1.0
C      1  0.4979120000000  0.4426520000000  0.4811660000000 1.0
C      1  0.4979120000000  0.5573480000000  0.4811660000000 1.0
C      1  0.5276290000000  0.5332330000000  0.5295210000000 1.0
C      1  0.5276290000000  0.4667670000000  0.5295210000000 1.0
C      1  0.4835540000000  0.4816410000000  0.4452880000000 1.0
C      1  0.4835530000000  0.5183590000000  0.4452880000000 1.0
C      1  0.5010110000000  0.4733420000000  0.4828980000000 1.0
C      1  0.5010110000000  0.5266580000000  0.4828980000000 1.0
C      1  0.4571450000000  0.5611910000000  0.5070700000000 1.0
C      1  0.4571450000000  0.4388090000000  0.5070700000000 1.0
C      1  0.4212510000000  0.4853090000000  0.4957290000000 1.0
C      1  0.4212510000000  0.5146910000000  0.4957290000000 1.0
C      1  0.4668120000000  0.5154980000000  0.5165640000000 1.0
C      1  0.4668120000000  0.4845020000000  0.5165640000000 1.0
C      1  0.5429810000000  0.5295880000000  0.4558370000000 1.0
C      1  0.5429810000000  0.4704120000000  0.4558370000000 1.0
C      1  0.5201950000000  0.4839960000000  0.5558940000000 1.0
C      1  0.5201950000000  0.5160040000000  0.5558940000000 1.0
C      1  0.5463410000000  0.4422510000000  0.4678260000000 1.0
C      1  0.5463410000000  0.5577490000000  0.4678260000000 1.0
C      1  0.5647250000000  0.4856780000000  0.4704360000000 1.0
C      1  0.5647250000000  0.5143220000000  0.4704360000000 1.0
END
