TITL C-3985244-725-718 -0.000429200178882146 125000 -357.584532085021 0 0 60 (C1) n - 1
REM
REM in /home/nfs/bkarasulu/CARBON/AIRSS/Generating-Clusters/TERSOFF/Higher-Symm/Only-C60
REM
REM
REM
REM
REM
REM ./C.cell (28575a23ae977d3b5fae324c64b13b57)
REM
REM compiler GCC version 9.2.1 20190827 (Red Hat 9.2.1-1)
REM options -cpp -mtune=generic -march=x86-64 -g -O0 -fpre-include=/usr/include/finclude/math-vector-fortran.h
REM seed -526323774 801145608 1197997955 -1617291971 417790910 5610126 -1590152459 -1599604729 1290193239 764820363 392047878 -1201071384 1599517200 1710399497 1574958611 82281595 2019970344 -1959740851 925670794 -300326600 -308516664 -1772404762 -442575802 2068009442 -62635325 -1929911973 289493573 -143544438 -1091403479 -1109722032 -600561565 -939898617 616165133
REM
CELL 1.54180   50.00000   50.00000   50.00000   90.00000   90.00000   90.00000
LATT -1
SFAC C  
C      1  0.5770980000000  0.5091640000000  0.5135410000000 1.0
C      1  0.5113600000000  0.5101880000000  0.5703680000000 1.0
C      1  0.5103590000000  0.5872780000000  0.5065140000000 1.0
C      1  0.4227680000000  0.5095470000000  0.4875030000000 1.0
C      1  0.4166200000000  0.4893440000000  0.5094870000000 1.0
C      1  0.5833070000000  0.4893160000000  0.4900740000000 1.0
C      1  0.4925370000000  0.5154090000000  0.4193580000000 1.0
C      1  0.4880070000000  0.4923100000000  0.5732060000000 1.0
C      1  0.5141350000000  0.4949420000000  0.4181020000000 1.0
C      1  0.4857130000000  0.5856250000000  0.4886500000000 1.0
C      1  0.4928240000000  0.4215550000000  0.5107690000000 1.0
C      1  0.5115730000000  0.4273610000000  0.4894140000000 1.0
C      1  0.5435370000000  0.4712450000000  0.4580240000000 1.0
C      1  0.4822610000000  0.4470000000000  0.5494700000000 1.0
C      1  0.4533350000000  0.5503030000000  0.4875310000000 1.0
C      1  0.4461530000000  0.4838100000000  0.5471200000000 1.0
C      1  0.4560850000000  0.5129520000000  0.4494670000000 1.0
C      1  0.5602100000000  0.5011100000000  0.5603200000000 1.0
C      1  0.5140180000000  0.4581030000000  0.4486790000000 1.0
C      1  0.5222890000000  0.5509790000000  0.5386540000000 1.0
C      1  0.4699470000000  0.5413760000000  0.4609480000000 1.0
C      1  0.5415290000000  0.5501650000000  0.5138130000000 1.0
C      1  0.5540380000000  0.4524640000000  0.4828270000000 1.0
C      1  0.4552490000000  0.4562350000000  0.5307840000000 1.0
C      1  0.4918450000000  0.5672600000000  0.4653630000000 1.0
C      1  0.5761380000000  0.4620910000000  0.4991820000000 1.0
C      1  0.4659900000000  0.5024280000000  0.5580710000000 1.0
C      1  0.5034060000000  0.5738670000000  0.5330100000000 1.0
C      1  0.4982740000000  0.4419930000000  0.4675320000000 1.0
C      1  0.5036690000000  0.4316340000000  0.5356720000000 1.0
C      1  0.4341960000000  0.4657300000000  0.5043570000000 1.0
C      1  0.4349780000000  0.5328080000000  0.5008760000000 1.0
C      1  0.5548390000000  0.5268400000000  0.5021370000000 1.0
C      1  0.5326720000000  0.5006530000000  0.4403670000000 1.0
C      1  0.5347220000000  0.4921580000000  0.5680590000000 1.0
C      1  0.4664040000000  0.5018250000000  0.4241800000000 1.0
C      1  0.5362000000000  0.4471280000000  0.5348850000000 1.0
C      1  0.4389770000000  0.5274980000000  0.5297430000000 1.0
C      1  0.5277960000000  0.5307510000000  0.4564630000000 1.0
C      1  0.4688210000000  0.4477420000000  0.4763350000000 1.0
C      1  0.4749000000000  0.5636920000000  0.5314140000000 1.0
C      1  0.5205110000000  0.5592880000000  0.4675500000000 1.0
C      1  0.5506410000000  0.5199280000000  0.4739950000000 1.0
C      1  0.5667180000000  0.4628250000000  0.5279910000000 1.0
C      1  0.4460710000000  0.4677830000000  0.4763380000000 1.0
C      1  0.4687280000000  0.5334430000000  0.5435540000000 1.0
C      1  0.4724620000000  0.4727570000000  0.4224880000000 1.0
C      1  0.5258120000000  0.4642270000000  0.5620250000000 1.0
C      1  0.5350240000000  0.4395620000000  0.5005250000000 1.0
C      1  0.4257380000000  0.5008380000000  0.5351160000000 1.0
C      1  0.4975240000000  0.5320110000000  0.4432510000000 1.0
C      1  0.4678460000000  0.4365110000000  0.5049810000000 1.0
C      1  0.4648670000000  0.5713580000000  0.5039190000000 1.0
C      1  0.5317170000000  0.5700050000000  0.4936820000000 1.0
C      1  0.5643330000000  0.4952170000000  0.4673780000000 1.0
C      1  0.5720830000000  0.4912880000000  0.5367240000000 1.0
C      1  0.4394520000000  0.4966160000000  0.4669590000000 1.0
C      1  0.5035140000000  0.5298260000000  0.5493470000000 1.0
C      1  0.5018260000000  0.4682210000000  0.4237480000000 1.0
C      1  0.4963550000000  0.4644180000000  0.5681610000000 1.0
END
