TITL C-3985254-1270-114 8.19790151727425e-07 125000 -365.400939053256 0 0 60 (D5h) n - 1
REM
REM in /home/nfs/bkarasulu/CARBON/AIRSS/Generating-Clusters/TERSOFF/Higher-Symm/Only-C60
REM
REM
REM
REM
REM
REM ./C.cell (28575a23ae977d3b5fae324c64b13b57)
REM
REM compiler GCC version 9.2.1 20190827 (Red Hat 9.2.1-1)
REM options -cpp -mtune=generic -march=x86-64 -g -O0 -fpre-include=/usr/include/finclude/math-vector-fortran.h
REM seed -386737275 1562859926 -1283460809 -220350297 -679407395 1743716806 -1589486042 -1149750274 -2007580554 -856831723 534616172 542020410 -1726696871 923866591 869488638 1899414485 -673769390 -520643256 -1153623566 -822720506 -1514578250 489093518 432111275 133033760 1652823985 199720241 -1673382355 -49162224 490414080 375017855 -376599721 -1725235929 222699341
REM
CELL 1.54180   50.00000   50.00000   50.00000   90.00000   90.00000   90.00000
LATT -1
SFAC C  
C      1  0.5144160000000  0.5021880000000  0.4101940000000 1.0
C      1  0.5144150000000  0.4152670000000  0.4701690000000 1.0
C      1  0.5144150000000  0.4454460000000  0.5713700000000 1.0
C      1  0.5144150000000  0.5510200000000  0.5739400000000 1.0
C      1  0.5144190000000  0.5860870000000  0.4743270000000 1.0
C      1  0.4855840000000  0.5021860000000  0.4101960000000 1.0
C      1  0.4855840000000  0.4152680000000  0.4701690000000 1.0
C      1  0.4855840000000  0.4454470000000  0.5713690000000 1.0
C      1  0.4855730000000  0.5510230000000  0.5739490000000 1.0
C      1  0.4855860000000  0.5860820000000  0.4743310000000 1.0
C      1  0.4531220000000  0.4666870000000  0.5435740000000 1.0
C      1  0.4531470000000  0.5311500000000  0.5451440000000 1.0
C      1  0.4531170000000  0.5525710000000  0.4843200000000 1.0
C      1  0.4531110000000  0.5013350000000  0.4451590000000 1.0
C      1  0.4531120000000  0.4482490000000  0.4817810000000 1.0
C      1  0.5468820000000  0.4666860000000  0.5435800000000 1.0
C      1  0.5468800000000  0.5311480000000  0.5451420000000 1.0
C      1  0.5468640000000  0.5525660000000  0.4843260000000 1.0
C      1  0.5468810000000  0.5013340000000  0.4451660000000 1.0
C      1  0.5468840000000  0.4482630000000  0.4817860000000 1.0
C      1  0.5293470000000  0.5227360000000  0.4288640000000 1.0
C      1  0.5293480000000  0.4393680000000  0.4563920000000 1.0
C      1  0.5293470000000  0.4397950000000  0.5441890000000 1.0
C      1  0.5293450000000  0.5234210000000  0.5709140000000 1.0
C      1  0.5293420000000  0.5746790000000  0.4996420000000 1.0
C      1  0.4706540000000  0.5227350000000  0.4288650000000 1.0
C      1  0.4706520000000  0.4393720000000  0.4563970000000 1.0
C      1  0.4706520000000  0.4397930000000  0.5441940000000 1.0
C      1  0.4706610000000  0.5234130000000  0.5709090000000 1.0
C      1  0.4706560000000  0.5746750000000  0.4996440000000 1.0
C      1  0.4706520000000  0.4807540000000  0.4278420000000 1.0
C      1  0.4706520000000  0.4254280000000  0.4960070000000 1.0
C      1  0.4706560000000  0.4731600000000  0.5696930000000 1.0
C      1  0.4706620000000  0.5579790000000  0.5470590000000 1.0
C      1  0.4706520000000  0.5626800000000  0.4594010000000 1.0
C      1  0.5293490000000  0.4807540000000  0.4278380000000 1.0
C      1  0.5293470000000  0.4254210000000  0.4960030000000 1.0
C      1  0.5293450000000  0.4731600000000  0.5696890000000 1.0
C      1  0.5293440000000  0.5579840000000  0.5470600000000 1.0
C      1  0.5293450000000  0.5626790000000  0.4593990000000 1.0
C      1  0.5495150000000  0.5146160000000  0.5211870000000 1.0
C      1  0.5495220000000  0.5246760000000  0.4926420000000 1.0
C      1  0.5495160000000  0.5006240000000  0.4742620000000 1.0
C      1  0.5495120000000  0.4757120000000  0.4914520000000 1.0
C      1  0.5495090000000  0.4843610000000  0.5204530000000 1.0
C      1  0.4504710000000  0.5146230000000  0.5211930000000 1.0
C      1  0.4504920000000  0.5246670000000  0.4926380000000 1.0
C      1  0.4504890000000  0.5006250000000  0.4742610000000 1.0
C      1  0.4504890000000  0.4757130000000  0.4914480000000 1.0
C      1  0.4504860000000  0.4843600000000  0.5204500000000 1.0
C      1  0.5149460000000  0.4982280000000  0.5730820000000 1.0
C      1  0.5149480000000  0.5689550000000  0.5242880000000 1.0
C      1  0.5149480000000  0.5443990000000  0.4419170000000 1.0
C      1  0.5149460000000  0.4584870000000  0.4398300000000 1.0
C      1  0.5149450000000  0.4299490000000  0.5208980000000 1.0
C      1  0.4850520000000  0.4982180000000  0.5730950000000 1.0
C      1  0.4850520000000  0.5689700000000  0.5242690000000 1.0
C      1  0.4850560000000  0.5444000000000  0.4419240000000 1.0
C      1  0.4850550000000  0.4584840000000  0.4398310000000 1.0
C      1  0.4850540000000  0.4299440000000  0.5208870000000 1.0
END
