TITL C-3985247-764-799 -0.00135153787471464 125000 -350.714043501009 0 0 60 (Cs) n - 1
REM
REM in /home/nfs/bkarasulu/CARBON/AIRSS/Generating-Clusters/TERSOFF/Higher-Symm/Only-C60
REM
REM
REM
REM
REM
REM ./C.cell (28575a23ae977d3b5fae324c64b13b57)
REM
REM compiler GCC version 9.2.1 20190827 (Red Hat 9.2.1-1)
REM options -cpp -mtune=generic -march=x86-64 -g -O0 -fpre-include=/usr/include/finclude/math-vector-fortran.h
REM seed 386470270 -2137266346 -1023206662 -1216151569 -1726675982 -2030811513 703871277 2042853912 -93876644 -631903345 1640991060 -970779009 -1357235051 228470402 776721708 268792583 -1950019543 559087375 1188346035 807244710 1950464885 504782535 1325522179 -912611979 -1780142005 701334390 195665375 -358735778 156428834 1542946462 -777868849 -890581320 -80754046
REM
CELL 1.54180   50.00000   50.00000   50.00000   90.00000   90.00000   90.00000
LATT -1
SFAC C  
C      1  0.5379540000000  0.5499710000000  0.5117810000000 1.0
C      1  0.4571360000000  0.5498660000000  0.5137630000000 1.0
C      1  0.4358430000000  0.4709640000000  0.5139280000000 1.0
C      1  0.5108760000000  0.4299580000000  0.5076570000000 1.0
C      1  0.5552780000000  0.4818730000000  0.5114310000000 1.0
C      1  0.5379520000000  0.4500320000000  0.5117800000000 1.0
C      1  0.4571250000000  0.4501360000000  0.5137570000000 1.0
C      1  0.4358420000000  0.5290350000000  0.5139210000000 1.0
C      1  0.5108760000000  0.5700440000000  0.5076530000000 1.0
C      1  0.5552780000000  0.5181290000000  0.5114310000000 1.0
C      1  0.4338170000000  0.5286690000000  0.4636850000000 1.0
C      1  0.4527310000000  0.4472780000000  0.4628760000000 1.0
C      1  0.5383770000000  0.4361460000000  0.4586690000000 1.0
C      1  0.5704660000000  0.5151880000000  0.4605490000000 1.0
C      1  0.5078160000000  0.5682570000000  0.4585880000000 1.0
C      1  0.4338180000000  0.4713300000000  0.4636860000000 1.0
C      1  0.4527340000000  0.5527240000000  0.4628790000000 1.0
C      1  0.5383740000000  0.5638530000000  0.4586690000000 1.0
C      1  0.5704670000000  0.4848130000000  0.4605490000000 1.0
C      1  0.5078200000000  0.4317430000000  0.4585910000000 1.0
C      1  0.4499590000000  0.5163190000000  0.5626950000000 1.0
C      1  0.4734510000000  0.4668320000000  0.5601410000000 1.0
C      1  0.5248320000000  0.4664180000000  0.5634470000000 1.0
C      1  0.5479400000000  0.5160330000000  0.5652290000000 1.0
C      1  0.4985640000000  0.5262580000000  0.5737010000000 1.0
C      1  0.4499590000000  0.4836800000000  0.5626960000000 1.0
C      1  0.4734560000000  0.5331670000000  0.5601390000000 1.0
C      1  0.5248340000000  0.5335820000000  0.5634490000000 1.0
C      1  0.5479400000000  0.4839670000000  0.5652280000000 1.0
C      1  0.4985630000000  0.4737410000000  0.5737010000000 1.0
C      1  0.5530800000000  0.5572030000000  0.4831120000000 1.0
C      1  0.4667030000000  0.5606350000000  0.4871460000000 1.0
C      1  0.4297240000000  0.4852670000000  0.4888320000000 1.0
C      1  0.4943800000000  0.4303930000000  0.4843000000000 1.0
C      1  0.5674360000000  0.4693200000000  0.4847860000000 1.0
C      1  0.5530790000000  0.4427990000000  0.4831120000000 1.0
C      1  0.4667120000000  0.4393580000000  0.4871580000000 1.0
C      1  0.4297240000000  0.5147330000000  0.4888380000000 1.0
C      1  0.4943850000000  0.5696070000000  0.4843130000000 1.0
C      1  0.5674360000000  0.5306810000000  0.4847860000000 1.0
C      1  0.5317730000000  0.4583510000000  0.4367000000000 1.0
C      1  0.5490280000000  0.5169290000000  0.4366830000000 1.0
C      1  0.4984910000000  0.5476090000000  0.4357010000000 1.0
C      1  0.4488880000000  0.5149930000000  0.4391120000000 1.0
C      1  0.4688340000000  0.4585210000000  0.4376980000000 1.0
C      1  0.5317740000000  0.5416480000000  0.4366980000000 1.0
C      1  0.5490270000000  0.4830700000000  0.4366830000000 1.0
C      1  0.4984910000000  0.4523900000000  0.4357010000000 1.0
C      1  0.4488890000000  0.4850060000000  0.4391130000000 1.0
C      1  0.4688320000000  0.5414790000000  0.4376960000000 1.0
C      1  0.5686600000000  0.5160940000000  0.5409140000000 1.0
C      1  0.4988580000000  0.5690130000000  0.5356390000000 1.0
C      1  0.4292900000000  0.5156110000000  0.5390090000000 1.0
C      1  0.4741890000000  0.4464630000000  0.5383460000000 1.0
C      1  0.5256240000000  0.4451660000000  0.5438740000000 1.0
C      1  0.5686600000000  0.4839050000000  0.5409130000000 1.0
C      1  0.4988550000000  0.4309870000000  0.5356400000000 1.0
C      1  0.4292890000000  0.4843900000000  0.5390070000000 1.0
C      1  0.4741860000000  0.5535320000000  0.5383430000000 1.0
C      1  0.5256260000000  0.5548370000000  0.5438750000000 1.0
END
