TITL C-3985259-1859-111 -0.00140332180655546 125000 -333.456856766776 0 0 60 (C1) n - 1
REM
REM in /home/nfs/bkarasulu/CARBON/AIRSS/Generating-Clusters/TERSOFF/Higher-Symm/Only-C60
REM
REM
REM
REM
REM
REM ./C.cell (28575a23ae977d3b5fae324c64b13b57)
REM
REM compiler GCC version 9.2.1 20190827 (Red Hat 9.2.1-1)
REM options -cpp -mtune=generic -march=x86-64 -g -O0 -fpre-include=/usr/include/finclude/math-vector-fortran.h
REM seed 631285227 1603528355 740208842 -1670544850 -1681399643 -1081076331 2046260906 1405764714 -323627621 337542750 -1743331547 -1363532358 -777032717 -1809672989 45206972 -595616214 1793978910 1577865659 -1679373998 750790570 -612210387 -838924308 -1726143647 -815807214 2005548220 -803395334 -27935298 -1415773127 -1819045709 1132810860 2055446980 -1013852495 1610039094
REM
CELL 1.54180   50.00000   50.00000   50.00000   90.00000   90.00000   90.00000
LATT -1
SFAC C  
C      1  0.4880330000000  0.4387330000000  0.4596740000000 1.0
C      1  0.4925210000000  0.5382740000000  0.4733020000000 1.0
C      1  0.5019300000000  0.4901500000000  0.4762520000000 1.0
C      1  0.4452570000000  0.4616950000000  0.4658460000000 1.0
C      1  0.5221000000000  0.5644000000000  0.5426990000000 1.0
C      1  0.5532850000000  0.4684000000000  0.4782180000000 1.0
C      1  0.4441690000000  0.5423380000000  0.4877110000000 1.0
C      1  0.4649250000000  0.5324440000000  0.4680190000000 1.0
C      1  0.4175800000000  0.5028990000000  0.4776120000000 1.0
C      1  0.5273580000000  0.5219670000000  0.4436890000000 1.0
C      1  0.4176110000000  0.5314620000000  0.4814280000000 1.0
C      1  0.5163450000000  0.4528470000000  0.4635910000000 1.0
C      1  0.5520450000000  0.4861660000000  0.5021600000000 1.0
C      1  0.5024520000000  0.4359390000000  0.5457180000000 1.0
C      1  0.5749520000000  0.5061490000000  0.4956280000000 1.0
C      1  0.5319190000000  0.5128680000000  0.4990230000000 1.0
C      1  0.5067620000000  0.5430360000000  0.4444110000000 1.0
C      1  0.4443110000000  0.4897160000000  0.4768270000000 1.0
C      1  0.5019740000000  0.4693040000000  0.5203950000000 1.0
C      1  0.5374420000000  0.5365170000000  0.5524010000000 1.0
C      1  0.4469510000000  0.4975240000000  0.5461640000000 1.0
C      1  0.4898100000000  0.5461780000000  0.4207920000000 1.0
C      1  0.4811650000000  0.4864450000000  0.4400400000000 1.0
C      1  0.4805980000000  0.5405700000000  0.5265950000000 1.0
C      1  0.5405730000000  0.4412980000000  0.4811160000000 1.0
C      1  0.4987600000000  0.4646890000000  0.4907480000000 1.0
C      1  0.5376100000000  0.4760520000000  0.5493560000000 1.0
C      1  0.5516460000000  0.5314960000000  0.4587800000000 1.0
C      1  0.4687780000000  0.4585410000000  0.4468550000000 1.0
C      1  0.5026240000000  0.5142990000000  0.4908960000000 1.0
C      1  0.4906370000000  0.4828120000000  0.5655760000000 1.0
C      1  0.4978840000000  0.5662760000000  0.4861290000000 1.0
C      1  0.5096160000000  0.5345490000000  0.5694360000000 1.0
C      1  0.5557810000000  0.5459980000000  0.5257010000000 1.0
C      1  0.5384250000000  0.5604390000000  0.5041890000000 1.0
C      1  0.4699530000000  0.5049240000000  0.5625350000000 1.0
C      1  0.5515940000000  0.4837040000000  0.4534070000000 1.0
C      1  0.4789310000000  0.4481090000000  0.5266440000000 1.0
C      1  0.4848280000000  0.5114970000000  0.5145850000000 1.0
C      1  0.5157310000000  0.5706680000000  0.4601750000000 1.0
C      1  0.5411430000000  0.4397070000000  0.5126910000000 1.0
C      1  0.5015230000000  0.4954500000000  0.5353090000000 1.0
C      1  0.4594280000000  0.4920360000000  0.5064460000000 1.0
C      1  0.4508030000000  0.5404880000000  0.5169850000000 1.0
C      1  0.5164830000000  0.4878460000000  0.4478090000000 1.0
C      1  0.4516890000000  0.4705440000000  0.5285850000000 1.0
C      1  0.5128780000000  0.4609020000000  0.5605120000000 1.0
C      1  0.5694030000000  0.5083970000000  0.4634950000000 1.0
C      1  0.4834520000000  0.5307860000000  0.5565540000000 1.0
C      1  0.4347730000000  0.5208580000000  0.5326090000000 1.0
C      1  0.4610080000000  0.5050560000000  0.4572160000000 1.0
C      1  0.4453460000000  0.4423140000000  0.4881160000000 1.0
C      1  0.4756100000000  0.4368650000000  0.4923910000000 1.0
C      1  0.5051100000000  0.5637590000000  0.5162420000000 1.0
C      1  0.5430090000000  0.5363550000000  0.4868730000000 1.0
C      1  0.5297350000000  0.5059070000000  0.5433530000000 1.0
C      1  0.5494350000000  0.4661880000000  0.5243470000000 1.0
C      1  0.5229230000000  0.4233760000000  0.5285350000000 1.0
C      1  0.4330220000000  0.4525530000000  0.5128600000000 1.0
C      1  0.5783590000000  0.5292440000000  0.5147490000000 1.0
END
