TITL C-3985254-1270-770 4.77243270070028e-06 125000 -324.19805783729 0 0 60 (T23) n - 1
REM
REM in /home/nfs/bkarasulu/CARBON/AIRSS/Generating-Clusters/TERSOFF/Higher-Symm/Only-C60
REM
REM
REM
REM
REM
REM ./C.cell (28575a23ae977d3b5fae324c64b13b57)
REM
REM compiler GCC version 9.2.1 20190827 (Red Hat 9.2.1-1)
REM options -cpp -mtune=generic -march=x86-64 -g -O0 -fpre-include=/usr/include/finclude/math-vector-fortran.h
REM seed 1044656145 1855213791 -672411062 1691555262 1348604535 -59763689 -1569690851 -429760383 247587628 743295047 1866288211 -1410442655 -986385894 818984019 938373162 -1492737015 409459971 76955179 -1556155884 -1371611602 -1452724404 -469782734 -1414568817 1757096995 1594778227 1580232121 414200268 265524868 239511701 -1145810098 -1692874996 -1729196989 306617446
REM
CELL 1.54180   50.00000   50.00000   50.00000   90.00000   90.00000   90.00000
LATT -1
SFAC C  
C      1  0.5279760000000  0.5209700000000  0.4994720000000 1.0
C      1  0.4994720000000  0.5279760000000  0.5209700000000 1.0
C      1  0.5209700000000  0.4994720000000  0.5279760000000 1.0
C      1  0.4720240000000  0.5209700000000  0.5005280000000 1.0
C      1  0.5279760000000  0.4790300000000  0.5005280000000 1.0
C      1  0.4720240000000  0.4790300000000  0.4994720000000 1.0
C      1  0.5005280000000  0.5279760000000  0.4790300000000 1.0
C      1  0.4994720000000  0.4720240000000  0.4790300000000 1.0
C      1  0.5005280000000  0.4720240000000  0.5209700000000 1.0
C      1  0.4790300000000  0.4994720000000  0.4720240000000 1.0
C      1  0.5209700000000  0.5005280000000  0.4720240000000 1.0
C      1  0.4790300000000  0.5005280000000  0.5279760000000 1.0
C      1  0.4704410000000  0.5653570000000  0.4918280000000 1.0
C      1  0.4918280000000  0.4704410000000  0.5653570000000 1.0
C      1  0.5653570000000  0.4918280000000  0.4704410000000 1.0
C      1  0.5295590000000  0.5653570000000  0.5081720000000 1.0
C      1  0.4704410000000  0.4346430000000  0.5081720000000 1.0
C      1  0.5295590000000  0.4346430000000  0.4918280000000 1.0
C      1  0.5081720000000  0.4704410000000  0.4346430000000 1.0
C      1  0.4918280000000  0.5295590000000  0.4346430000000 1.0
C      1  0.5081720000000  0.5295590000000  0.5653570000000 1.0
C      1  0.4346430000000  0.4918280000000  0.5295590000000 1.0
C      1  0.5653570000000  0.5081720000000  0.5295590000000 1.0
C      1  0.4346430000000  0.5081720000000  0.4704410000000 1.0
C      1  0.5149530000000  0.4429230000000  0.4433340000000 1.0
C      1  0.4433340000000  0.5149530000000  0.4429230000000 1.0
C      1  0.4429230000000  0.4433340000000  0.5149530000000 1.0
C      1  0.4850470000000  0.4429230000000  0.5566660000000 1.0
C      1  0.5149530000000  0.5570770000000  0.5566660000000 1.0
C      1  0.4850470000000  0.5570770000000  0.4433340000000 1.0
C      1  0.5566660000000  0.5149530000000  0.5570770000000 1.0
C      1  0.4433340000000  0.4850470000000  0.5570770000000 1.0
C      1  0.5566660000000  0.4850470000000  0.4429230000000 1.0
C      1  0.5570770000000  0.4433340000000  0.4850470000000 1.0
C      1  0.4429230000000  0.5566660000000  0.4850470000000 1.0
C      1  0.5570770000000  0.5566660000000  0.5149530000000 1.0
C      1  0.5678620000000  0.5297380000000  0.5091940000000 1.0
C      1  0.5091940000000  0.5678620000000  0.5297380000000 1.0
C      1  0.5297380000000  0.5091940000000  0.5678620000000 1.0
C      1  0.4321380000000  0.5297380000000  0.4908060000000 1.0
C      1  0.5678620000000  0.4702620000000  0.4908060000000 1.0
C      1  0.4321380000000  0.4702620000000  0.5091940000000 1.0
C      1  0.4908060000000  0.5678620000000  0.4702620000000 1.0
C      1  0.5091940000000  0.4321380000000  0.4702620000000 1.0
C      1  0.4908060000000  0.4321380000000  0.5297380000000 1.0
C      1  0.4702620000000  0.5091940000000  0.4321380000000 1.0
C      1  0.5297380000000  0.4908060000000  0.4321380000000 1.0
C      1  0.4702620000000  0.4908060000000  0.5678620000000 1.0
C      1  0.4816570000000  0.4823130000000  0.4424140000000 1.0
C      1  0.4424140000000  0.4816570000000  0.4823130000000 1.0
C      1  0.4823130000000  0.4424140000000  0.4816570000000 1.0
C      1  0.5183430000000  0.4823130000000  0.5575860000000 1.0
C      1  0.4816570000000  0.5176870000000  0.5575860000000 1.0
C      1  0.5183430000000  0.5176870000000  0.4424140000000 1.0
C      1  0.5575860000000  0.4816570000000  0.5176870000000 1.0
C      1  0.4424140000000  0.5183430000000  0.5176870000000 1.0
C      1  0.5575860000000  0.5183430000000  0.4823130000000 1.0
C      1  0.5176870000000  0.4424140000000  0.5183430000000 1.0
C      1  0.4823130000000  0.5575860000000  0.5183430000000 1.0
C      1  0.5176870000000  0.5575860000000  0.4816570000000 1.0
END
