TITL C-3985259-1859-1147 -3.35473317362421e-07 125000 -327.047692996203 0 0 60 (Td) n - 1
REM
REM in /home/nfs/bkarasulu/CARBON/AIRSS/Generating-Clusters/TERSOFF/Higher-Symm/Only-C60
REM
REM
REM
REM
REM
REM ./C.cell (28575a23ae977d3b5fae324c64b13b57)
REM
REM compiler GCC version 9.2.1 20190827 (Red Hat 9.2.1-1)
REM options -cpp -mtune=generic -march=x86-64 -g -O0 -fpre-include=/usr/include/finclude/math-vector-fortran.h
REM seed -1816130942 1480668675 -1857663975 86764653 1030322273 1615348775 -277868786 -2102521142 53559660 2003222900 188328722 447882460 1414027961 2109899414 502805402 593683670 -1463681959 20007197 1675324382 931264584 797077055 119533936 1551061914 644874350 -1310596690 -1819741811 -1782340082 117106074 340738583 -6906567 -185838232 1729841 808663202
REM
CELL 1.54180   50.00000   50.00000   50.00000   90.00000   90.00000   90.00000
LATT -1
SFAC C  
C      1  0.5356050000000  0.4287830000000  0.4865170000000 1.0
C      1  0.4865170000000  0.5356050000000  0.4287830000000 1.0
C      1  0.4287830000000  0.4865170000000  0.5356050000000 1.0
C      1  0.5356050000000  0.5712170000000  0.5134830000000 1.0
C      1  0.4643950000000  0.5712170000000  0.4865170000000 1.0
C      1  0.4643950000000  0.4287830000000  0.5134830000000 1.0
C      1  0.4865170000000  0.4643950000000  0.5712170000000 1.0
C      1  0.5134830000000  0.4643950000000  0.4287830000000 1.0
C      1  0.5134830000000  0.5356050000000  0.5712170000000 1.0
C      1  0.4287830000000  0.5134830000000  0.4643950000000 1.0
C      1  0.5712170000000  0.5134830000000  0.5356050000000 1.0
C      1  0.5712170000000  0.4865170000000  0.4643950000000 1.0
C      1  0.5356050000000  0.4865170000000  0.4287830000000 1.0
C      1  0.4865170000000  0.4287830000000  0.5356050000000 1.0
C      1  0.4287830000000  0.5356050000000  0.4865170000000 1.0
C      1  0.5356050000000  0.5134830000000  0.5712170000000 1.0
C      1  0.4643950000000  0.4865170000000  0.5712170000000 1.0
C      1  0.4643950000000  0.5134830000000  0.4287830000000 1.0
C      1  0.4865170000000  0.5712170000000  0.4643950000000 1.0
C      1  0.5134830000000  0.4287830000000  0.4643950000000 1.0
C      1  0.5134830000000  0.5712170000000  0.5356050000000 1.0
C      1  0.4287830000000  0.4643950000000  0.5134830000000 1.0
C      1  0.5712170000000  0.5356050000000  0.5134830000000 1.0
C      1  0.5712170000000  0.4643950000000  0.4865170000000 1.0
C      1  0.5008110000000  0.4552190000000  0.5233810000000 1.0
C      1  0.5233810000000  0.5008110000000  0.4552190000000 1.0
C      1  0.4552190000000  0.5233810000000  0.5008110000000 1.0
C      1  0.5008110000000  0.5447810000000  0.4766190000000 1.0
C      1  0.4991890000000  0.5447810000000  0.5233810000000 1.0
C      1  0.4991890000000  0.4552190000000  0.4766190000000 1.0
C      1  0.5233810000000  0.4991890000000  0.5447810000000 1.0
C      1  0.4766190000000  0.4991890000000  0.4552190000000 1.0
C      1  0.4766190000000  0.5008110000000  0.5447810000000 1.0
C      1  0.4552190000000  0.4766190000000  0.4991890000000 1.0
C      1  0.5447810000000  0.4766190000000  0.5008110000000 1.0
C      1  0.5447810000000  0.5233810000000  0.4991890000000 1.0
C      1  0.5008110000000  0.5233810000000  0.4552190000000 1.0
C      1  0.5233810000000  0.4552190000000  0.5008110000000 1.0
C      1  0.4552190000000  0.5008110000000  0.5233810000000 1.0
C      1  0.5008110000000  0.4766190000000  0.5447810000000 1.0
C      1  0.4991890000000  0.5233810000000  0.5447810000000 1.0
C      1  0.4991890000000  0.4766190000000  0.4552190000000 1.0
C      1  0.5233810000000  0.5447810000000  0.4991890000000 1.0
C      1  0.4766190000000  0.4552190000000  0.4991890000000 1.0
C      1  0.4766190000000  0.5447810000000  0.5008110000000 1.0
C      1  0.4552190000000  0.4991890000000  0.4766190000000 1.0
C      1  0.5447810000000  0.5008110000000  0.4766190000000 1.0
C      1  0.5447810000000  0.4991890000000  0.5233810000000 1.0
C      1  0.4807600000000  0.4361760000000  0.5638240000000 1.0
C      1  0.5638240000000  0.4807600000000  0.4361760000000 1.0
C      1  0.4361760000000  0.5638240000000  0.4807600000000 1.0
C      1  0.4807600000000  0.5638240000000  0.4361760000000 1.0
C      1  0.5192400000000  0.4361760000000  0.4361760000000 1.0
C      1  0.5638240000000  0.5192400000000  0.5638240000000 1.0
C      1  0.4361760000000  0.5192400000000  0.4361760000000 1.0
C      1  0.4361760000000  0.4807600000000  0.5638240000000 1.0
C      1  0.4361760000000  0.4361760000000  0.5192400000000 1.0
C      1  0.5638240000000  0.4361760000000  0.4807600000000 1.0
C      1  0.5638240000000  0.5638240000000  0.5192400000000 1.0
C      1  0.5192400000000  0.5638240000000  0.5638240000000 1.0
END
