TITL C-3985246-2097-138 1.00323713074485e-07 125000 -346.088984653347 0 0 60 (C3) n - 1
REM
REM in /home/nfs/bkarasulu/CARBON/AIRSS/Generating-Clusters/TERSOFF/Higher-Symm/Only-C60
REM
REM
REM
REM
REM
REM ./C.cell (28575a23ae977d3b5fae324c64b13b57)
REM
REM compiler GCC version 9.2.1 20190827 (Red Hat 9.2.1-1)
REM options -cpp -mtune=generic -march=x86-64 -g -O0 -fpre-include=/usr/include/finclude/math-vector-fortran.h
REM seed -956065334 451254447 855414574 -2130097695 1018330945 -1509792369 791304158 -1378516140 -1597813222 -126321818 -1975459904 -589537832 -1477182572 1839061668 -1078213580 1249695438 2059578896 1603336357 1849906459 1722965718 -1939849050 -2110858512 1540374481 -1362929964 -3146312 -932642680 -2084259485 1965674562 -987794979 1282425904 1473165641 -1431851657 1143969150
REM
CELL 1.54180   50.00000   50.00000   50.00000   90.00000   90.00000   90.00000
LATT -1
SFAC C  
C      1  0.4863770000000  0.5180090000000  0.4213780000000 1.0
C      1  0.4863620000000  0.4229090000000  0.5237120000000 1.0
C      1  0.4863580000000  0.5590820000000  0.5549040000000 1.0
C      1  0.4863770000000  0.4819910000000  0.4213780000000 1.0
C      1  0.4863620000000  0.5770910000000  0.5237120000000 1.0
C      1  0.4863580000000  0.4409180000000  0.5549040000000 1.0
C      1  0.4687820000000  0.4816910000000  0.4683150000000 1.0
C      1  0.4687730000000  0.4817180000000  0.5316920000000 1.0
C      1  0.4687770000000  0.5365910000000  0.4999800000000 1.0
C      1  0.4687820000000  0.5183090000000  0.4683150000000 1.0
C      1  0.4687730000000  0.5182820000000  0.5316920000000 1.0
C      1  0.4687770000000  0.4634090000000  0.4999800000000 1.0
C      1  0.5176880000000  0.4844380000000  0.4265290000000 1.0
C      1  0.5176700000000  0.4441510000000  0.5502160000000 1.0
C      1  0.5176740000000  0.5714110000000  0.5232620000000 1.0
C      1  0.5176880000000  0.5155620000000  0.4265290000000 1.0
C      1  0.5176700000000  0.5558490000000  0.5502160000000 1.0
C      1  0.5176740000000  0.4285890000000  0.5232620000000 1.0
C      1  0.5222730000000  0.5245680000000  0.4545340000000 1.0
C      1  0.5222660000000  0.4483380000000  0.5014610000000 1.0
C      1  0.5222600000000  0.5270930000000  0.5440150000000 1.0
C      1  0.5222730000000  0.4754320000000  0.4545340000000 1.0
C      1  0.5222660000000  0.5516620000000  0.5014610000000 1.0
C      1  0.5222600000000  0.4729070000000  0.5440150000000 1.0
C      1  0.4362000000000  0.5149930000000  0.5259500000000 1.0
C      1  0.4362080000000  0.5149840000000  0.4740270000000 1.0
C      1  0.4362040000000  0.4700220000000  0.4999960000000 1.0
C      1  0.4362000000000  0.4850070000000  0.5259500000000 1.0
C      1  0.4362080000000  0.4850160000000  0.4740270000000 1.0
C      1  0.4362040000000  0.5299780000000  0.4999960000000 1.0
C      1  0.5717320000000  0.4703590000000  0.5339810000000 1.0
C      1  0.5717350000000  0.5442400000000  0.5086940000000 1.0
C      1  0.5717430000000  0.4854000000000  0.4573550000000 1.0
C      1  0.5717320000000  0.5296410000000  0.5339810000000 1.0
C      1  0.5717350000000  0.4557600000000  0.5086940000000 1.0
C      1  0.5717430000000  0.5146000000000  0.4573550000000 1.0
C      1  0.4738380000000  0.4366020000000  0.4458250000000 1.0
C      1  0.4738190000000  0.4847850000000  0.5819860000000 1.0
C      1  0.4738340000000  0.5786130000000  0.4721780000000 1.0
C      1  0.4738380000000  0.5633980000000  0.4458250000000 1.0
C      1  0.4738190000000  0.5152150000000  0.5819860000000 1.0
C      1  0.4738340000000  0.4213870000000  0.4721780000000 1.0
C      1  0.4722870000000  0.5324280000000  0.5575420000000 1.0
C      1  0.4723040000000  0.5336220000000  0.4431400000000 1.0
C      1  0.4722960000000  0.4339500000000  0.4993060000000 1.0
C      1  0.4722870000000  0.4675720000000  0.5575420000000 1.0
C      1  0.4723040000000  0.4663780000000  0.4431400000000 1.0
C      1  0.4722960000000  0.5660500000000  0.4993060000000 1.0
C      1  0.5019200000000  0.4851740000000  0.5258960000000 1.0
C      1  0.5019230000000  0.5298390000000  0.4998920000000 1.0
C      1  0.5019270000000  0.4849870000000  0.4742120000000 1.0
C      1  0.5019200000000  0.5148260000000  0.5258960000000 1.0
C      1  0.5019230000000  0.4701610000000  0.4998920000000 1.0
C      1  0.5019270000000  0.5150130000000  0.4742120000000 1.0
C      1  0.5489240000000  0.4539830000000  0.4905020000000 1.0
C      1  0.5489170000000  0.5147770000000  0.5446120000000 1.0
C      1  0.5489280000000  0.5312400000000  0.4649070000000 1.0
C      1  0.5489240000000  0.5460170000000  0.4905020000000 1.0
C      1  0.5489170000000  0.4852230000000  0.5446120000000 1.0
C      1  0.5489280000000  0.4687600000000  0.4649070000000 1.0
END
