TITL C-3985259-1859-559 -0.00143120536843468 125000 -363.129928089106 0 0 60 (C1) n - 1
REM
REM in /home/nfs/bkarasulu/CARBON/AIRSS/Generating-Clusters/TERSOFF/Higher-Symm/Only-C60
REM
REM
REM
REM
REM
REM ./C.cell (28575a23ae977d3b5fae324c64b13b57)
REM
REM compiler GCC version 9.2.1 20190827 (Red Hat 9.2.1-1)
REM options -cpp -mtune=generic -march=x86-64 -g -O0 -fpre-include=/usr/include/finclude/math-vector-fortran.h
REM seed -1458606780 -1867693728 -2060737821 540266125 949522941 2084982117 -1513520085 786382907 1516851045 -497250583 261407197 12835867 1221591404 -177143115 587212249 -1194957218 1492830413 644338934 -1497923431 1540249218 -844155848 1598080396 -407311403 1668005302 -1130159645 232837728 -592932605 -580576740 2054746159 -62135681 -2071055988 2138288747 514756565
REM
CELL 1.54180   50.00000   50.00000   50.00000   90.00000   90.00000   90.00000
LATT -1
SFAC C  
C      1  0.5007930000000  0.4487950000000  0.4529990000000 1.0
C      1  0.4806760000000  0.4324360000000  0.4661910000000 1.0
C      1  0.4578080000000  0.4432740000000  0.4804820000000 1.0
C      1  0.4517600000000  0.4373050000000  0.5096570000000 1.0
C      1  0.4720260000000  0.4287520000000  0.5287280000000 1.0
C      1  0.4871910000000  0.4473040000000  0.5452300000000 1.0
C      1  0.5163100000000  0.4466810000000  0.5452600000000 1.0
C      1  0.5297560000000  0.4258370000000  0.5300230000000 1.0
C      1  0.5461200000000  0.4322340000000  0.5069470000000 1.0
C      1  0.5364200000000  0.4260430000000  0.4802750000000 1.0
C      1  0.5287450000000  0.4470250000000  0.4615410000000 1.0
C      1  0.4332330000000  0.5296920000000  0.5158000000000 1.0
C      1  0.4435540000000  0.5207670000000  0.5457220000000 1.0
C      1  0.4720190000000  0.5222300000000  0.5531760000000 1.0
C      1  0.5304810000000  0.5232570000000  0.5486830000000 1.0
C      1  0.5563280000000  0.5227210000000  0.5341760000000 1.0
C      1  0.5579040000000  0.5380410000000  0.5085740000000 1.0
C      1  0.5640370000000  0.5225440000000  0.4838630000000 1.0
C      1  0.5439560000000  0.5228790000000  0.4622320000000 1.0
C      1  0.4980520000000  0.5212610000000  0.4256170000000 1.0
C      1  0.4680540000000  0.5285500000000  0.4316890000000 1.0
C      1  0.4464930000000  0.5264990000000  0.4874710000000 1.0
C      1  0.5934910000000  0.4988930000000  0.5142090000000 1.0
C      1  0.5806190000000  0.4983910000000  0.4877650000000 1.0
C      1  0.5344770000000  0.4968630000000  0.4510690000000 1.0
C      1  0.5091640000000  0.4959460000000  0.4358550000000 1.0
C      1  0.4503820000000  0.5072140000000  0.4395070000000 1.0
C      1  0.4403340000000  0.5053620000000  0.4687520000000 1.0
C      1  0.4196050000000  0.4978950000000  0.5198820000000 1.0
C      1  0.4269680000000  0.4955270000000  0.5525270000000 1.0
C      1  0.4874670000000  0.4970540000000  0.5555730000000 1.0
C      1  0.5168160000000  0.4974790000000  0.5538330000000 1.0
C      1  0.5731800000000  0.4984900000000  0.5354900000000 1.0
C      1  0.4695990000000  0.5673510000000  0.5340160000000 1.0
C      1  0.4855280000000  0.5475570000000  0.5484640000000 1.0
C      1  0.5146600000000  0.5483970000000  0.5466010000000 1.0
C      1  0.5265950000000  0.5690530000000  0.5299950000000 1.0
C      1  0.5417150000000  0.5623250000000  0.5062420000000 1.0
C      1  0.5307650000000  0.5679450000000  0.4798860000000 1.0
C      1  0.5273900000000  0.5473950000000  0.4595490000000 1.0
C      1  0.5042370000000  0.5473180000000  0.4417710000000 1.0
C      1  0.4734000000000  0.5533060000000  0.4518250000000 1.0
C      1  0.4667320000000  0.5505770000000  0.4817060000000 1.0
C      1  0.4517100000000  0.5601360000000  0.5120030000000 1.0
C      1  0.4465490000000  0.4730020000000  0.4755460000000 1.0
C      1  0.4376110000000  0.4685280000000  0.5102250000000 1.0
C      1  0.4454430000000  0.4733490000000  0.5420380000000 1.0
C      1  0.4730560000000  0.4719030000000  0.5510410000000 1.0
C      1  0.5313700000000  0.4720810000000  0.5481970000000 1.0
C      1  0.5575570000000  0.4734460000000  0.5343460000000 1.0
C      1  0.5605380000000  0.4576640000000  0.5090760000000 1.0
C      1  0.5655590000000  0.4732350000000  0.4840240000000 1.0
C      1  0.5451280000000  0.4716820000000  0.4625810000000 1.0
C      1  0.4907600000000  0.4733710000000  0.4409220000000 1.0
C      1  0.4621850000000  0.4787940000000  0.4447370000000 1.0
C      1  0.4983930000000  0.4492010000000  0.5005310000000 1.0
C      1  0.4959740000000  0.5002240000000  0.5038710000000 1.0
C      1  0.4941760000000  0.5501640000000  0.4945710000000 1.0
C      1  0.5103560000000  0.4755630000000  0.5000670000000 1.0
C      1  0.5078630000000  0.5263830000000  0.5028790000000 1.0
END
