TITL C-3985250-725-893 -1.838112854719e-06 125000 -320.658173640009 0 0 60 (C5) n - 1
REM
REM in /home/nfs/bkarasulu/CARBON/AIRSS/Generating-Clusters/TERSOFF/Higher-Symm/Only-C60
REM
REM
REM
REM
REM
REM ./C.cell (28575a23ae977d3b5fae324c64b13b57)
REM
REM compiler GCC version 9.2.1 20190827 (Red Hat 9.2.1-1)
REM options -cpp -mtune=generic -march=x86-64 -g -O0 -fpre-include=/usr/include/finclude/math-vector-fortran.h
REM seed -602326604 -1847599930 -300771992 -744994495 1444743782 2045776235 1791810839 2107401150 -1097981956 -100505318 -1535634647 -1166783371 1284891014 -1117519973 -716855734 -1722669906 1003359075 -1601925451 1934249760 -43475020 -269666564 1788524904 604431733 1465986584 117483302 -1378525248 -755982194 1144654752 153207790 731149154 156690705 -796937083 1848908983
REM
CELL 1.54180   50.00000   50.00000   50.00000   90.00000   90.00000   90.00000
LATT -1
SFAC C  
C      1  0.5299990000000  0.5310780000000  0.5456570000000 1.0
C      1  0.5300040000000  0.4661820000000  0.5436630000000 1.0
C      1  0.5300040000000  0.4480250000000  0.4813270000000 1.0
C      1  0.5299990000000  0.5016990000000  0.4447950000000 1.0
C      1  0.5299950000000  0.5530290000000  0.4845540000000 1.0
C      1  0.4871880000000  0.5289360000000  0.5750060000000 1.0
C      1  0.4871940000000  0.4376060000000  0.5506990000000 1.0
C      1  0.4871930000000  0.4325010000000  0.4563280000000 1.0
C      1  0.4871850000000  0.5206760000000  0.4223110000000 1.0
C      1  0.4871820000000  0.5802760000000  0.4956580000000 1.0
C      1  0.4855230000000  0.5284270000000  0.4634870000000 1.0
C      1  0.4855230000000  0.5435100000000  0.5157540000000 1.0
C      1  0.4855280000000  0.4984620000000  0.5462500000000 1.0
C      1  0.4855300000000  0.4555380000000  0.5128300000000 1.0
C      1  0.4855280000000  0.4740580000000  0.4616800000000 1.0
C      1  0.5364880000000  0.4563040000000  0.5125670000000 1.0
C      1  0.5364850000000  0.4745460000000  0.4623220000000 1.0
C      1  0.5364810000000  0.5279690000000  0.4641460000000 1.0
C      1  0.5364810000000  0.5427440000000  0.5155170000000 1.0
C      1  0.5364850000000  0.4984520000000  0.5454440000000 1.0
C      1  0.4578870000000  0.5097940000000  0.4709550000000 1.0
C      1  0.4578860000000  0.5306480000000  0.5003430000000 1.0
C      1  0.4578890000000  0.5091430000000  0.5292580000000 1.0
C      1  0.4578910000000  0.4749980000000  0.5177410000000 1.0
C      1  0.4578900000000  0.4754000000000  0.4817070000000 1.0
C      1  0.5094590000000  0.5736330000000  0.4767060000000 1.0
C      1  0.5094640000000  0.5449080000000  0.5628300000000 1.0
C      1  0.5094710000000  0.4541230000000  0.5621250000000 1.0
C      1  0.5094710000000  0.4267390000000  0.4755650000000 1.0
C      1  0.5094640000000  0.5006010000000  0.4227730000000 1.0
C      1  0.5092190000000  0.4985500000000  0.5268190000000 1.0
C      1  0.5092200000000  0.4740460000000  0.5069080000000 1.0
C      1  0.5092190000000  0.4854100000000  0.4774500000000 1.0
C      1  0.5092160000000  0.5169380000000  0.4791550000000 1.0
C      1  0.5092160000000  0.5250590000000  0.5096670000000 1.0
C      1  0.5602800000000  0.4856980000000  0.4788210000000 1.0
C      1  0.5602770000000  0.5157250000000  0.4798470000000 1.0
C      1  0.5602770000000  0.5240280000000  0.5087220000000 1.0
C      1  0.5602800000000  0.4991320000000  0.5255420000000 1.0
C      1  0.5602810000000  0.4754430000000  0.5070620000000 1.0
C      1  0.4948290000000  0.4239820000000  0.5244770000000 1.0
C      1  0.4948250000000  0.4532300000000  0.4352670000000 1.0
C      1  0.4948170000000  0.5471120000000  0.4355150000000 1.0
C      1  0.4948170000000  0.5758860000000  0.5248800000000 1.0
C      1  0.4948240000000  0.4997880000000  0.5798610000000 1.0
C      1  0.4605500000000  0.5110420000000  0.4346600000000 1.0
C      1  0.4605470000000  0.5655530000000  0.4903150000000 1.0
C      1  0.4605520000000  0.5294670000000  0.5593560000000 1.0
C      1  0.4605570000000  0.4526540000000  0.5463700000000 1.0
C      1  0.4605570000000  0.4412670000000  0.4693040000000 1.0
C      1  0.5033690000000  0.4713850000000  0.5847020000000 1.0
C      1  0.5033720000000  0.4106010000000  0.4989600000000 1.0
C      1  0.5033650000000  0.4733630000000  0.4146550000000 1.0
C      1  0.5033570000000  0.5729370000000  0.4482940000000 1.0
C      1  0.5033600000000  0.5717150000000  0.5533890000000 1.0
C      1  0.4652130000000  0.4786400000000  0.5589320000000 1.0
C      1  0.4652150000000  0.4373500000000  0.4978990000000 1.0
C      1  0.4652100000000  0.4826360000000  0.4397710000000 1.0
C      1  0.4652050000000  0.5519150000000  0.4648780000000 1.0
C      1  0.4652070000000  0.5494450000000  0.5385230000000 1.0
END
