TITL C-3985250-725-334 0.00393118732443596 125000 -308.168076783801 0 0 60 (C1) n - 1
REM
REM in /home/nfs/bkarasulu/CARBON/AIRSS/Generating-Clusters/TERSOFF/Higher-Symm/Only-C60
REM
REM
REM
REM
REM
REM ./C.cell (28575a23ae977d3b5fae324c64b13b57)
REM
REM compiler GCC version 9.2.1 20190827 (Red Hat 9.2.1-1)
REM options -cpp -mtune=generic -march=x86-64 -g -O0 -fpre-include=/usr/include/finclude/math-vector-fortran.h
REM seed 950990946 -753835138 -745688862 -304599006 -200056670 -999319691 -1082324748 2047711766 -916015754 1846269075 -715449243 1680273677 -372463259 -1787304310 1662398076 650623104 1138568172 1115740607 2068804625 641604788 100167023 1267450209 -1433212787 -757783774 341031968 -144613719 -427857149 -2085087656 -588309083 -778701946 2079385372 1287475105 -1173527613
REM
CELL 1.54180   50.00000   50.00000   50.00000   90.00000   90.00000   90.00000
LATT -1
SFAC C  
C      1  0.4504810000000  0.4446260000000  0.5316230000000 1.0
C      1  0.5081070000000  0.5709920000000  0.4840490000000 1.0
C      1  0.5456540000000  0.4833290000000  0.4466200000000 1.0
C      1  0.5019330000000  0.4629370000000  0.5489260000000 1.0
C      1  0.4868570000000  0.5110190000000  0.5333280000000 1.0
C      1  0.4600220000000  0.4692500000000  0.5118700000000 1.0
C      1  0.4701510000000  0.5624790000000  0.5209920000000 1.0
C      1  0.5106200000000  0.5515810000000  0.5285400000000 1.0
C      1  0.4259740000000  0.4972890000000  0.4860330000000 1.0
C      1  0.5381790000000  0.4456650000000  0.4834970000000 1.0
C      1  0.4936610000000  0.4474990000000  0.4825640000000 1.0
C      1  0.4609420000000  0.4849420000000  0.5654370000000 1.0
C      1  0.5409010000000  0.5203130000000  0.5430330000000 1.0
C      1  0.5525670000000  0.4712970000000  0.5414300000000 1.0
C      1  0.4774870000000  0.4812350000000  0.5382570000000 1.0
C      1  0.4889550000000  0.5369230000000  0.5140470000000 1.0
C      1  0.5361920000000  0.5366270000000  0.4571900000000 1.0
C      1  0.5188730000000  0.5736310000000  0.5116190000000 1.0
C      1  0.5190090000000  0.5394270000000  0.5552870000000 1.0
C      1  0.4373050000000  0.4909110000000  0.5127550000000 1.0
C      1  0.4626150000000  0.4503950000000  0.4535190000000 1.0
C      1  0.4783370000000  0.5578490000000  0.4792530000000 1.0
C      1  0.5688110000000  0.5313480000000  0.4562520000000 1.0
C      1  0.5374180000000  0.5263850000000  0.4868370000000 1.0
C      1  0.4663490000000  0.5028250000000  0.4393260000000 1.0
C      1  0.5522050000000  0.4892610000000  0.4743310000000 1.0
C      1  0.5198860000000  0.4709640000000  0.4447820000000 1.0
C      1  0.4658740000000  0.4646570000000  0.4810970000000 1.0
C      1  0.5272680000000  0.4600620000000  0.5320390000000 1.0
C      1  0.4682340000000  0.5150760000000  0.5748160000000 1.0
C      1  0.4528680000000  0.5363720000000  0.4930610000000 1.0
C      1  0.4954360000000  0.5183100000000  0.4837840000000 1.0
C      1  0.5013630000000  0.4741900000000  0.4208090000000 1.0
C      1  0.4969290000000  0.4327690000000  0.5079790000000 1.0
C      1  0.4976080000000  0.5163370000000  0.5639550000000 1.0
C      1  0.4799240000000  0.5437060000000  0.4523560000000 1.0
C      1  0.5435100000000  0.4944340000000  0.5584350000000 1.0
C      1  0.4438840000000  0.5172730000000  0.4717750000000 1.0
C      1  0.5723300000000  0.4728530000000  0.5183170000000 1.0
C      1  0.4866220000000  0.4464840000000  0.4365730000000 1.0
C      1  0.5035260000000  0.4792490000000  0.4709500000000 1.0
C      1  0.4835940000000  0.4400200000000  0.5333090000000 1.0
C      1  0.4716340000000  0.4950980000000  0.4699490000000 1.0
C      1  0.5158670000000  0.4402960000000  0.4569490000000 1.0
C      1  0.5634480000000  0.5317540000000  0.5293220000000 1.0
C      1  0.5057490000000  0.5243590000000  0.4495260000000 1.0
C      1  0.5141400000000  0.4893920000000  0.5664220000000 1.0
C      1  0.5276610000000  0.5649970000000  0.4629010000000 1.0
C      1  0.5177070000000  0.5079330000000  0.5236460000000 1.0
C      1  0.5620990000000  0.5331400000000  0.5009470000000 1.0
C      1  0.5645810000000  0.4665710000000  0.4895240000000 1.0
C      1  0.4530600000000  0.5303710000000  0.4429940000000 1.0
C      1  0.5251810000000  0.4651050000000  0.5039810000000 1.0
C      1  0.4302810000000  0.4875230000000  0.5598390000000 1.0
C      1  0.5847020000000  0.5320180000000  0.4822180000000 1.0
C      1  0.4528840000000  0.5177690000000  0.5232260000000 1.0
C      1  0.5231420000000  0.4979530000000  0.4933080000000 1.0
C      1  0.4925520000000  0.5026180000000  0.4257320000000 1.0
C      1  0.4412480000000  0.5198580000000  0.5532220000000 1.0
C      1  0.4256050000000  0.4704540000000  0.5356410000000 1.0
END
