TITL C-3985251-913-846 -6.84392781345248e-07 125000 -339.5923102175 0 0 60 (C3) n - 1
REM
REM in /home/nfs/bkarasulu/CARBON/AIRSS/Generating-Clusters/TERSOFF/Higher-Symm/Only-C60
REM
REM
REM
REM
REM
REM ./C.cell (28575a23ae977d3b5fae324c64b13b57)
REM
REM compiler GCC version 9.2.1 20190827 (Red Hat 9.2.1-1)
REM options -cpp -mtune=generic -march=x86-64 -g -O0 -fpre-include=/usr/include/finclude/math-vector-fortran.h
REM seed 291186638 -1467300118 1198512509 -268402963 161568693 388532299 -1361205146 -1780231355 930363742 1058917139 695446569 -215956059 -1101677725 -1607463826 1484366162 -1030166544 -2098926625 1648146522 1997470860 1590793120 1777793207 1465737557 -722324480 -848688998 342102522 480884917 -644840573 1651447290 -1747919402 -579929270 -219820494 -2067477758 878411825
REM
CELL 1.54180   50.00000   50.00000   50.00000   90.00000   90.00000   90.00000
LATT -1
SFAC C  
C      1  0.4495900000000  0.5355730000000  0.5105570000000 1.0
C      1  0.4496010000000  0.4730620000000  0.5255400000000 1.0
C      1  0.4495930000000  0.4913420000000  0.4639130000000 1.0
C      1  0.5306340000000  0.4976960000000  0.5259740000000 1.0
C      1  0.5306340000000  0.4786630000000  0.4850100000000 1.0
C      1  0.5306270000000  0.5236550000000  0.4890090000000 1.0
C      1  0.4266180000000  0.4970130000000  0.4805020000000 1.0
C      1  0.4266160000000  0.5183670000000  0.5071800000000 1.0
C      1  0.4266220000000  0.4845860000000  0.5123350000000 1.0
C      1  0.4975520000000  0.5593910000000  0.4627660000000 1.0
C      1  0.4975690000000  0.5025500000000  0.5700520000000 1.0
C      1  0.4975710000000  0.4380580000000  0.4671830000000 1.0
C      1  0.4777320000000  0.4639850000000  0.5079580000000 1.0
C      1  0.4777220000000  0.5111120000000  0.4648370000000 1.0
C      1  0.4777240000000  0.5248920000000  0.5272100000000 1.0
C      1  0.5377500000000  0.5364720000000  0.4467700000000 1.0
C      1  0.5377590000000  0.5278680000000  0.5581910000000 1.0
C      1  0.5377690000000  0.4356770000000  0.4950300000000 1.0
C      1  0.5133650000000  0.5459190000000  0.5537830000000 1.0
C      1  0.5133800000000  0.4304650000000  0.5128720000000 1.0
C      1  0.5133600000000  0.5236220000000  0.4333420000000 1.0
C      1  0.4572330000000  0.4246320000000  0.4905310000000 1.0
C      1  0.4572100000000  0.5458780000000  0.4394750000000 1.0
C      1  0.4572220000000  0.5294710000000  0.5700040000000 1.0
C      1  0.5429760000000  0.4787580000000  0.5630860000000 1.0
C      1  0.5429710000000  0.4559940000000  0.4500510000000 1.0
C      1  0.5429570000000  0.5652670000000  0.4868540000000 1.0
C      1  0.4933520000000  0.5447530000000  0.5090440000000 1.0
C      1  0.4933650000000  0.4697900000000  0.5342370000000 1.0
C      1  0.4933570000000  0.4854540000000  0.4567200000000 1.0
C      1  0.5154640000000  0.5546750000000  0.5253260000000 1.0
C      1  0.5154800000000  0.4507320000000  0.5346840000000 1.0
C      1  0.5154670000000  0.4945990000000  0.4399870000000 1.0
C      1  0.5400890000000  0.4680980000000  0.5345640000000 1.0
C      1  0.5400800000000  0.4860250000000  0.4550800000000 1.0
C      1  0.5400750000000  0.5458960000000  0.5103470000000 1.0
C      1  0.5499520000000  0.5138330000000  0.4663140000000 1.0
C      1  0.5499550000000  0.5222650000000  0.5288100000000 1.0
C      1  0.5499620000000  0.4639250000000  0.5048650000000 1.0
C      1  0.4413400000000  0.5053090000000  0.5656980000000 1.0
C      1  0.4413430000000  0.4404400000000  0.4717630000000 1.0
C      1  0.4413250000000  0.5542240000000  0.4625520000000 1.0
C      1  0.4856300000000  0.4342580000000  0.4959960000000 1.0
C      1  0.4856110000000  0.5363360000000  0.4450720000000 1.0
C      1  0.4856200000000  0.5293990000000  0.5589360000000 1.0
C      1  0.5761720000000  0.5115690000000  0.5171170000000 1.0
C      1  0.5761750000000  0.4794040000000  0.5014420000000 1.0
C      1  0.5761690000000  0.5090620000000  0.4814240000000 1.0
C      1  0.4825030000000  0.4583610000000  0.4506570000000 1.0
C      1  0.4824890000000  0.5635490000000  0.4886150000000 1.0
C      1  0.4825080000000  0.4780830000000  0.5607320000000 1.0
C      1  0.5000600000000  0.5215360000000  0.4888740000000 1.0
C      1  0.5000660000000  0.4988670000000  0.5242140000000 1.0
C      1  0.5000660000000  0.4795960000000  0.4869120000000 1.0
C      1  0.4538390000000  0.4622160000000  0.4562810000000 1.0
C      1  0.4538270000000  0.5567460000000  0.4891490000000 1.0
C      1  0.4538440000000  0.4810160000000  0.5545800000000 1.0
C      1  0.5281600000000  0.4371220000000  0.4667780000000 1.0
C      1  0.5281410000000  0.5602150000000  0.4621500000000 1.0
C      1  0.5281580000000  0.5026760000000  0.5710660000000 1.0
END
