TITL C-3985252-168-49 0.000906986643845151 125000 -348.960751017806 0 0 60 (C1) n - 1
REM
REM in /home/nfs/bkarasulu/CARBON/AIRSS/Generating-Clusters/TERSOFF/Higher-Symm/Only-C60
REM
REM
REM
REM
REM
REM ./C.cell (28575a23ae977d3b5fae324c64b13b57)
REM
REM compiler GCC version 9.2.1 20190827 (Red Hat 9.2.1-1)
REM options -cpp -mtune=generic -march=x86-64 -g -O0 -fpre-include=/usr/include/finclude/math-vector-fortran.h
REM seed 663137426 2013605609 1319404342 1129394582 -1564517788 1994051717 857382765 175552546 -911589936 -1900589885 -1226597615 -2010756569 -292124319 362935414 -383916146 -1075813070 775685441 -115276394 2056812023 55644778 307140654 1066463947 1039997688 -2041062719 1694346491 1291839866 -1004565268 -438826048 1344467115 584855034 -1197138721 -1816041609 -1865184643
REM
CELL 1.54180   50.00000   50.00000   50.00000   90.00000   90.00000   90.00000
LATT -1
SFAC C  
C      1  0.4919230000000  0.5105970000000  0.5637270000000 1.0
C      1  0.4952670000000  0.5500850000000  0.5301170000000 1.0
C      1  0.5035890000000  0.5512780000000  0.4767130000000 1.0
C      1  0.4983810000000  0.5186640000000  0.4368010000000 1.0
C      1  0.5065690000000  0.4707410000000  0.4571110000000 1.0
C      1  0.5052720000000  0.4445000000000  0.5031000000000 1.0
C      1  0.4962760000000  0.4606470000000  0.5521480000000 1.0
C      1  0.4457690000000  0.5579070000000  0.4731670000000 1.0
C      1  0.4462070000000  0.5184160000000  0.4430580000000 1.0
C      1  0.4531640000000  0.4820690000000  0.4756980000000 1.0
C      1  0.4493900000000  0.4388740000000  0.4987260000000 1.0
C      1  0.4416790000000  0.4573290000000  0.5443850000000 1.0
C      1  0.4369170000000  0.5072980000000  0.5525740000000 1.0
C      1  0.4399900000000  0.5481170000000  0.5223740000000 1.0
C      1  0.5817910000000  0.4741500000000  0.5207330000000 1.0
C      1  0.5775270000000  0.5042880000000  0.5301500000000 1.0
C      1  0.5763550000000  0.5268100000000  0.5107490000000 1.0
C      1  0.5916290000000  0.5247240000000  0.4865400000000 1.0
C      1  0.5800420000000  0.5094420000000  0.4652510000000 1.0
C      1  0.5739620000000  0.4805800000000  0.4713770000000 1.0
C      1  0.5884000000000  0.4684080000000  0.4932300000000 1.0
C      1  0.4594430000000  0.4935270000000  0.4501780000000 1.0
C      1  0.4623290000000  0.4550880000000  0.4789350000000 1.0
C      1  0.4582330000000  0.4419090000000  0.5258200000000 1.0
C      1  0.4510380000000  0.4820610000000  0.5566760000000 1.0
C      1  0.4504440000000  0.5317930000000  0.5442100000000 1.0
C      1  0.4563830000000  0.5565520000000  0.4997460000000 1.0
C      1  0.4581920000000  0.5434930000000  0.4516120000000 1.0
C      1  0.5190150000000  0.5639370000000  0.5382580000000 1.0
C      1  0.5170930000000  0.5792710000000  0.4680660000000 1.0
C      1  0.5212480000000  0.5215530000000  0.4203560000000 1.0
C      1  0.5197620000000  0.4519450000000  0.4342700000000 1.0
C      1  0.5185420000000  0.4152630000000  0.4976910000000 1.0
C      1  0.5209080000000  0.4529020000000  0.5649490000000 1.0
C      1  0.5173120000000  0.5135630000000  0.5768540000000 1.0
C      1  0.4874580000000  0.4463300000000  0.5282370000000 1.0
C      1  0.4799840000000  0.4837600000000  0.5612820000000 1.0
C      1  0.4795010000000  0.5331450000000  0.5488910000000 1.0
C      1  0.4854130000000  0.5535240000000  0.5024690000000 1.0
C      1  0.4878470000000  0.5410820000000  0.4522890000000 1.0
C      1  0.4883380000000  0.4923750000000  0.4440440000000 1.0
C      1  0.4914370000000  0.4538040000000  0.4778860000000 1.0
C      1  0.5415850000000  0.5021740000000  0.5670300000000 1.0
C      1  0.5430680000000  0.5608560000000  0.5236020000000 1.0
C      1  0.5443360000000  0.5666870000000  0.4668130000000 1.0
C      1  0.5464260000000  0.5183800000000  0.4321230000000 1.0
C      1  0.5458580000000  0.4604950000000  0.4463660000000 1.0
C      1  0.5439670000000  0.4312510000000  0.4938050000000 1.0
C      1  0.5456540000000  0.4510100000000  0.5507040000000 1.0
C      1  0.5475320000000  0.5366950000000  0.5076050000000 1.0
C      1  0.5379120000000  0.5381600000000  0.4786250000000 1.0
C      1  0.5491640000000  0.5138980000000  0.4611610000000 1.0
C      1  0.5394350000000  0.4803000000000  0.4710750000000 1.0
C      1  0.5371560000000  0.4611200000000  0.5012870000000 1.0
C      1  0.5516520000000  0.4684790000000  0.5278760000000 1.0
C      1  0.5474250000000  0.4981270000000  0.5387750000000 1.0
C      1  0.5066050000000  0.5031210000000  0.5057710000000 1.0
C      1  0.4786600000000  0.5065450000000  0.5150590000000 1.0
C      1  0.4540390000000  0.4998470000000  0.4993760000000 1.0
C      1  0.5309710000000  0.5141070000000  0.5195020000000 1.0
END
