TITL C-3985252-168-467 3.87220783073378e-06 125000 -293.697739184738 0 0 60 (C3) n - 1
REM
REM in /home/nfs/bkarasulu/CARBON/AIRSS/Generating-Clusters/TERSOFF/Higher-Symm/Only-C60
REM
REM
REM
REM
REM
REM ./C.cell (28575a23ae977d3b5fae324c64b13b57)
REM
REM compiler GCC version 9.2.1 20190827 (Red Hat 9.2.1-1)
REM options -cpp -mtune=generic -march=x86-64 -g -O0 -fpre-include=/usr/include/finclude/math-vector-fortran.h
REM seed 731901463 1433913643 -1252470647 -1126399539 -881576716 1393771399 341663100 -1248000356 261361925 -829074336 1805273605 1085433979 -436409653 804859781 -1582728538 -951515570 1873987008 -915624831 -918124368 831163075 -931947119 -1946806491 -546181751 -823884346 -218378596 1510477226 -1565797179 -1688193458 -509900393 -1881245345 -489713012 1630740341 205139606
REM
CELL 1.54180   50.00000   50.00000   50.00000   90.00000   90.00000   90.00000
LATT -1
SFAC C  
C      1  0.5494530000000  0.4970640000000  0.5370890000000 1.0
C      1  0.5494530000000  0.5335880000000  0.4839980000000 1.0
C      1  0.5494530000000  0.4693480000000  0.4789130000000 1.0
C      1  0.4863650000000  0.5241470000000  0.5454840000000 1.0
C      1  0.4863650000000  0.5273160000000  0.4563460000000 1.0
C      1  0.4863650000000  0.4485360000000  0.4981700000000 1.0
C      1  0.5187820000000  0.4724510000000  0.4863890000000 1.0
C      1  0.5187820000000  0.5019870000000  0.5306630000000 1.0
C      1  0.5187820000000  0.5255620000000  0.4829480000000 1.0
C      1  0.4726530000000  0.4792120000000  0.5027970000000 1.0
C      1  0.4726530000000  0.5128170000000  0.5166040000000 1.0
C      1  0.4726530000000  0.5079710000000  0.4805980000000 1.0
C      1  0.4747010000000  0.4286850000000  0.5331690000000 1.0
C      1  0.4747020000000  0.5643830000000  0.5451760000000 1.0
C      1  0.4747010000000  0.5069320000000  0.4216550000000 1.0
C      1  0.5156520000000  0.4596750000000  0.5624260000000 1.0
C      1  0.5156520000000  0.5742250000000  0.5037090000000 1.0
C      1  0.5156520000000  0.4661000000000  0.4338640000000 1.0
C      1  0.4470730000000  0.5441440000000  0.4885310000000 1.0
C      1  0.4470730000000  0.4679950000000  0.4675050000000 1.0
C      1  0.4470740000000  0.4878610000000  0.5439640000000 1.0
C      1  0.5155220000000  0.5217460000000  0.4364870000000 1.0
C      1  0.5155220000000  0.4341240000000  0.5129240000000 1.0
C      1  0.5155220000000  0.5441310000000  0.5505890000000 1.0
C      1  0.4625890000000  0.5386810000000  0.5599170000000 1.0
C      1  0.4625890000000  0.5325490000000  0.4365430000000 1.0
C      1  0.4625890000000  0.4287700000000  0.5035410000000 1.0
C      1  0.5420190000000  0.4749360000000  0.4464050000000 1.0
C      1  0.5420190000000  0.4661180000000  0.5485040000000 1.0
C      1  0.5420190000000  0.5589460000000  0.5050910000000 1.0
C      1  0.4686820000000  0.4726380000000  0.5586940000000 1.0
C      1  0.4686820000000  0.5645110000000  0.4943490000000 1.0
C      1  0.4686820000000  0.4628500000000  0.4469570000000 1.0
C      1  0.5466580000000  0.5252430000000  0.5517480000000 1.0
C      1  0.5466580000000  0.5321930000000  0.4522650000000 1.0
C      1  0.5466580000000  0.4425640000000  0.4959870000000 1.0
C      1  0.4907080000000  0.4546660000000  0.5398510000000 1.0
C      1  0.4907080000000  0.5571790000000  0.5193350000000 1.0
C      1  0.4907080000000  0.4881550000000  0.4408140000000 1.0
C      1  0.4425260000000  0.4986520000000  0.4707690000000 1.0
C      1  0.4425260000000  0.4753590000000  0.5157830000000 1.0
C      1  0.4425260000000  0.5259890000000  0.5134480000000 1.0
C      1  0.5112650000000  0.4755240000000  0.5184600000000 1.0
C      1  0.5112650000000  0.5282250000000  0.5119670000000 1.0
C      1  0.5112650000000  0.4962510000000  0.4695730000000 1.0
C      1  0.5458530000000  0.5023610000000  0.4358060000000 1.0
C      1  0.5458530000000  0.4432250000000  0.5300520000000 1.0
C      1  0.5458530000000  0.5544130000000  0.5341420000000 1.0
C      1  0.4425870000000  0.5193360000000  0.5451440000000 1.0
C      1  0.4425870000000  0.5294280000000  0.4606830000000 1.0
C      1  0.4425870000000  0.4512360000000  0.4941730000000 1.0
C      1  0.4956210000000  0.5714270000000  0.4801480000000 1.0
C      1  0.4956210000000  0.4470940000000  0.4480690000000 1.0
C      1  0.4956210000000  0.4814790000000  0.5717840000000 1.0
C      1  0.5048920000000  0.5480460000000  0.4673520000000 1.0
C      1  0.5048920000000  0.4477030000000  0.4747150000000 1.0
C      1  0.5048920000000  0.5042510000000  0.5579340000000 1.0
C      1  0.5663980000000  0.4814940000000  0.5090240000000 1.0
C      1  0.5663980000000  0.5170690000000  0.5115150000000 1.0
C      1  0.5663980000000  0.5014380000000  0.4794610000000 1.0
END
