TITL C-3985255-5397-149 -0.000235982392729581 125000 -317.457823979101 0 0 60 (S4) n - 1
REM
REM in /home/nfs/bkarasulu/CARBON/AIRSS/Generating-Clusters/TERSOFF/Higher-Symm/Only-C60
REM
REM
REM
REM
REM
REM ./C.cell (28575a23ae977d3b5fae324c64b13b57)
REM
REM compiler GCC version 9.2.1 20190827 (Red Hat 9.2.1-1)
REM options -cpp -mtune=generic -march=x86-64 -g -O0 -fpre-include=/usr/include/finclude/math-vector-fortran.h
REM seed -1411536773 1308740587 22591866 -355878847 -1766934159 -92117237 -1724684584 1937408868 -1886340520 -1179745054 875092167 1724150226 -1432968541 1512536301 448271942 1877272189 305434865 129938197 -1908684575 -2104990693 887646693 -2137734130 1114350689 1354133162 -165613194 -985711594 -415748978 -1760565857 -769093796 -1689386024 -519668497 -1355578304 -87449748
REM
CELL 1.54180   50.00000   50.00000   50.00000   90.00000   90.00000   90.00000
LATT -1
SFAC C  
C      1  0.5474170000000  0.5381050000000  0.4442980000000 1.0
C      1  0.5381050000000  0.4525830000000  0.5557020000000 1.0
C      1  0.4525840000000  0.4618950000000  0.4442980000000 1.0
C      1  0.4618950000000  0.5474160000000  0.5557020000000 1.0
C      1  0.5530930000000  0.4634410000000  0.4880610000000 1.0
C      1  0.4634420000000  0.4469070000000  0.5119400000000 1.0
C      1  0.4469070000000  0.5365610000000  0.4880630000000 1.0
C      1  0.5365620000000  0.5530930000000  0.5119370000000 1.0
C      1  0.5078050000000  0.4852370000000  0.5263430000000 1.0
C      1  0.4852370000000  0.4921950000000  0.4736560000000 1.0
C      1  0.4921940000000  0.5147630000000  0.5263420000000 1.0
C      1  0.5147620000000  0.5078060000000  0.4736580000000 1.0
C      1  0.4828720000000  0.5689570000000  0.5170310000000 1.0
C      1  0.5689560000000  0.5171280000000  0.4829680000000 1.0
C      1  0.5171280000000  0.4310440000000  0.5170320000000 1.0
C      1  0.4310430000000  0.4828710000000  0.4829690000000 1.0
C      1  0.4699950000000  0.4213970000000  0.5280200000000 1.0
C      1  0.4213970000000  0.5300040000000  0.4719800000000 1.0
C      1  0.5300050000000  0.5786030000000  0.5280200000000 1.0
C      1  0.5786030000000  0.4699950000000  0.4719800000000 1.0
C      1  0.4558440000000  0.4394710000000  0.4841760000000 1.0
C      1  0.4394710000000  0.5441550000000  0.5158240000000 1.0
C      1  0.5441550000000  0.5605290000000  0.4841770000000 1.0
C      1  0.5605290000000  0.4558450000000  0.5158240000000 1.0
C      1  0.4823480000000  0.4657910000000  0.4514410000000 1.0
C      1  0.4657910000000  0.5176520000000  0.5485590000000 1.0
C      1  0.5176510000000  0.5342090000000  0.4514410000000 1.0
C      1  0.5342090000000  0.4823480000000  0.5485590000000 1.0
C      1  0.5106060000000  0.4587180000000  0.4427950000000 1.0
C      1  0.4587180000000  0.4893930000000  0.5572050000000 1.0
C      1  0.4893960000000  0.5412850000000  0.4427940000000 1.0
C      1  0.5412850000000  0.5106050000000  0.5572060000000 1.0
C      1  0.5429410000000  0.4370520000000  0.5302380000000 1.0
C      1  0.4370520000000  0.4570590000000  0.4697630000000 1.0
C      1  0.4570590000000  0.5629470000000  0.5302380000000 1.0
C      1  0.5629480000000  0.5429410000000  0.4697620000000 1.0
C      1  0.5655530000000  0.4951160000000  0.4634690000000 1.0
C      1  0.4951150000000  0.4344470000000  0.5365300000000 1.0
C      1  0.4344460000000  0.5048850000000  0.4634690000000 1.0
C      1  0.5048820000000  0.5655540000000  0.5365320000000 1.0
C      1  0.5563700000000  0.5092290000000  0.5116240000000 1.0
C      1  0.5092290000000  0.4436300000000  0.4883760000000 1.0
C      1  0.4436300000000  0.4907710000000  0.5116240000000 1.0
C      1  0.4907710000000  0.5563700000000  0.4883760000000 1.0
C      1  0.4541650000000  0.4696240000000  0.5330520000000 1.0
C      1  0.4696240000000  0.5458350000000  0.4669470000000 1.0
C      1  0.5458350000000  0.5303760000000  0.5330530000000 1.0
C      1  0.5303750000000  0.4541650000000  0.4669480000000 1.0
C      1  0.4879660000000  0.4635990000000  0.5416040000000 1.0
C      1  0.4635990000000  0.5120310000000  0.4583960000000 1.0
C      1  0.5120320000000  0.5364010000000  0.5416040000000 1.0
C      1  0.5364010000000  0.4879660000000  0.4583960000000 1.0
C      1  0.5319200000000  0.4905270000000  0.5000010000000 1.0
C      1  0.4905270000000  0.4680800000000  0.4999990000000 1.0
C      1  0.4680810000000  0.5094720000000  0.5000010000000 1.0
C      1  0.5094720000000  0.5319190000000  0.4999980000000 1.0
C      1  0.4396520000000  0.5175280000000  0.5298000000000 1.0
C      1  0.5175280000000  0.5603480000000  0.4702000000000 1.0
C      1  0.5603480000000  0.4824720000000  0.5298000000000 1.0
C      1  0.4824720000000  0.4396520000000  0.4702000000000 1.0
END
