TITL C-3985259-1859-538 -0.00202507067024148 125000 -335.193883444366 0 0 60 (Cs) n - 1
REM
REM in /home/nfs/bkarasulu/CARBON/AIRSS/Generating-Clusters/TERSOFF/Higher-Symm/Only-C60
REM
REM
REM
REM
REM
REM ./C.cell (28575a23ae977d3b5fae324c64b13b57)
REM
REM compiler GCC version 9.2.1 20190827 (Red Hat 9.2.1-1)
REM options -cpp -mtune=generic -march=x86-64 -g -O0 -fpre-include=/usr/include/finclude/math-vector-fortran.h
REM seed -641450747 -1072791309 -950079280 -1985351595 1044108313 1113556248 2115314692 1921709381 1549671737 1993600430 781335037 -1702915018 -1876328301 -1947986272 265185820 1678067319 -1027494403 1583130423 -1281001708 1045455184 -442888189 641855289 -2143066747 1338450383 1449236840 -315818236 -1603744743 -1891449033 1700191320 -2113695955 -1616660600 -1738612417 1927713665
REM
CELL 1.54180   50.00000   50.00000   50.00000   90.00000   90.00000   90.00000
LATT -1
SFAC C  
C      1  0.5585000000000  0.5127440000000  0.4854550000000 1.0
C      1  0.5585380000000  0.5127410000000  0.5145300000000 1.0
C      1  0.4735290000000  0.5569660000000  0.4717550000000 1.0
C      1  0.4735120000000  0.5569840000000  0.5282460000000 1.0
C      1  0.4983080000000  0.4540580000000  0.4847480000000 1.0
C      1  0.4983290000000  0.4540620000000  0.5152850000000 1.0
C      1  0.4476350000000  0.5078930000000  0.4681190000000 1.0
C      1  0.4475410000000  0.5079260000000  0.5318850000000 1.0
C      1  0.4947060000000  0.5754590000000  0.5152450000000 1.0
C      1  0.4947060000000  0.5754300000000  0.4847490000000 1.0
C      1  0.5303700000000  0.5210270000000  0.5334250000000 1.0
C      1  0.5303070000000  0.5210170000000  0.4666060000000 1.0
C      1  0.4458640000000  0.5583890000000  0.5163040000000 1.0
C      1  0.4458920000000  0.5583630000000  0.4836580000000 1.0
C      1  0.4736570000000  0.4569560000000  0.4464840000000 1.0
C      1  0.4736530000000  0.4569750000000  0.5534210000000 1.0
C      1  0.5205290000000  0.4489130000000  0.5358980000000 1.0
C      1  0.5204730000000  0.4489690000000  0.4640930000000 1.0
C      1  0.5685150000000  0.4618170000000  0.4842030000000 1.0
C      1  0.5685310000000  0.4618140000000  0.5157760000000 1.0
C      1  0.5004760000000  0.5111690000000  0.5256110000000 1.0
C      1  0.5004780000000  0.5110520000000  0.4744570000000 1.0
C      1  0.4822840000000  0.5405810000000  0.5548160000000 1.0
C      1  0.4823290000000  0.5405680000000  0.4452860000000 1.0
C      1  0.4518710000000  0.4583050000000  0.5322590000000 1.0
C      1  0.4519340000000  0.4583280000000  0.4677280000000 1.0
C      1  0.5195020000000  0.5688690000000  0.4693600000000 1.0
C      1  0.5194930000000  0.5688610000000  0.5306380000000 1.0
C      1  0.5404420000000  0.4947850000000  0.5478750000000 1.0
C      1  0.5404040000000  0.4947960000000  0.4521090000000 1.0
C      1  0.4336120000000  0.5295430000000  0.5166880000000 1.0
C      1  0.4336540000000  0.5295210000000  0.4832700000000 1.0
C      1  0.4800610000000  0.4241280000000  0.4818940000000 1.0
C      1  0.4800660000000  0.4241190000000  0.5181340000000 1.0
C      1  0.5702800000000  0.5583620000000  0.4844480000000 1.0
C      1  0.5702890000000  0.5583730000000  0.5155510000000 1.0
C      1  0.5395090000000  0.5500800000000  0.5168570000000 1.0
C      1  0.5394960000000  0.5500700000000  0.4831580000000 1.0
C      1  0.4933260000000  0.4311050000000  0.5498890000000 1.0
C      1  0.4933400000000  0.4311150000000  0.4501300000000 1.0
C      1  0.5444540000000  0.4415330000000  0.4819480000000 1.0
C      1  0.5444810000000  0.4415140000000  0.5180290000000 1.0
C      1  0.4841960000000  0.5319970000000  0.4862860000000 1.0
C      1  0.4842440000000  0.5320670000000  0.5137500000000 1.0
C      1  0.5129600000000  0.5450680000000  0.4488080000000 1.0
C      1  0.5129490000000  0.5450640000000  0.5511580000000 1.0
C      1  0.4696800000000  0.5124630000000  0.4459660000000 1.0
C      1  0.4696580000000  0.5124680000000  0.5539920000000 1.0
C      1  0.5189580000000  0.4754890000000  0.4483780000000 1.0
C      1  0.5189600000000  0.4754940000000  0.5515180000000 1.0
C      1  0.4496180000000  0.4335690000000  0.4841960000000 1.0
C      1  0.4496210000000  0.4335550000000  0.5157780000000 1.0
C      1  0.4875130000000  0.4840910000000  0.4839610000000 1.0
C      1  0.4875410000000  0.4841140000000  0.5163980000000 1.0
C      1  0.4882520000000  0.4839460000000  0.4407060000000 1.0
C      1  0.4882520000000  0.4839510000000  0.5590840000000 1.0
C      1  0.4548100000000  0.4836660000000  0.5167840000000 1.0
C      1  0.4548570000000  0.4836550000000  0.4832380000000 1.0
C      1  0.5665160000000  0.4870330000000  0.4694480000000 1.0
C      1  0.5665360000000  0.4870300000000  0.5305320000000 1.0
END
