TITL C-3985250-725-140 -0.012193463157283 125000 -284.431945509792 0 0 60 (C3) n - 1
REM
REM in /home/nfs/bkarasulu/CARBON/AIRSS/Generating-Clusters/TERSOFF/Higher-Symm/Only-C60
REM
REM
REM
REM
REM
REM ./C.cell (28575a23ae977d3b5fae324c64b13b57)
REM
REM compiler GCC version 9.2.1 20190827 (Red Hat 9.2.1-1)
REM options -cpp -mtune=generic -march=x86-64 -g -O0 -fpre-include=/usr/include/finclude/math-vector-fortran.h
REM seed -1170783400 -2141684026 1018663122 793758382 -1111375546 -1074703435 -517700901 176197497 -57183429 985563229 2018376714 -1291873838 -624441984 750650273 -1347494743 -404498401 568348430 -516470026 -786185549 353224573 1144940618 1874724788 -1097464918 -8563184 1619662586 1703784677 893697874 1209427952 -217162052 -403759493 958036894 -2097356895 -1567104310
REM
CELL 1.54180   50.00000   50.00000   50.00000   90.00000   90.00000   90.00000
LATT -1
SFAC C  
C      1  0.4734270000000  0.4727310000000  0.5522690000000 1.0
C      1  0.4897730000000  0.5367600000000  0.5522300000000 1.0
C      1  0.5369680000000  0.4905080000000  0.5522540000000 1.0
C      1  0.5367910000000  0.4280970000000  0.4999480000000 1.0
C      1  0.4193340000000  0.5041250000000  0.4999350000000 1.0
C      1  0.5438940000000  0.5678310000000  0.4999470000000 1.0
C      1  0.5370230000000  0.4935190000000  0.4400910000000 1.0
C      1  0.4759480000000  0.4712300000000  0.4401070000000 1.0
C      1  0.4870040000000  0.5351940000000  0.4401580000000 1.0
C      1  0.4436010000000  0.4744460000000  0.5353950000000 1.0
C      1  0.5060280000000  0.5616730000000  0.5353420000000 1.0
C      1  0.5504100000000  0.4639140000000  0.5353580000000 1.0
C      1  0.4270430000000  0.4775800000000  0.5078290000000 1.0
C      1  0.5170720000000  0.5743990000000  0.5078450000000 1.0
C      1  0.5558770000000  0.4480320000000  0.5078650000000 1.0
C      1  0.5726710000000  0.4907540000000  0.4920550000000 1.0
C      1  0.4556180000000  0.4417220000000  0.4920280000000 1.0
C      1  0.4717250000000  0.5676180000000  0.4919720000000 1.0
C      1  0.5361080000000  0.4607850000000  0.4559730000000 1.0
C      1  0.4480660000000  0.4883360000000  0.4560730000000 1.0
C      1  0.5158770000000  0.5508590000000  0.4560190000000 1.0
C      1  0.5665430000000  0.4916300000000  0.5225530000000 1.0
C      1  0.4595170000000  0.4466140000000  0.5225450000000 1.0
C      1  0.4740150000000  0.5617300000000  0.5224900000000 1.0
C      1  0.4424130000000  0.5128510000000  0.4831330000000 1.0
C      1  0.5398820000000  0.5434990000000  0.4831060000000 1.0
C      1  0.5176610000000  0.4436810000000  0.4831630000000 1.0
C      1  0.4922610000000  0.5168760000000  0.4629490000000 1.0
C      1  0.5184560000000  0.4981070000000  0.4629530000000 1.0
C      1  0.4891860000000  0.4850160000000  0.4629440000000 1.0
C      1  0.4928870000000  0.4819440000000  0.5303770000000 1.0
C      1  0.4879300000000  0.5152320000000  0.5303650000000 1.0
C      1  0.5191920000000  0.5028420000000  0.5304270000000 1.0
C      1  0.5314430000000  0.5389510000000  0.5475830000000 1.0
C      1  0.5179170000000  0.4532510000000  0.5475440000000 1.0
C      1  0.4506080000000  0.5076120000000  0.5476180000000 1.0
C      1  0.5108190000000  0.4815140000000  0.5691630000000 1.0
C      1  0.4785140000000  0.4997140000000  0.5693390000000 1.0
C      1  0.5104410000000  0.5188020000000  0.5692390000000 1.0
C      1  0.5649880000000  0.5217460000000  0.4932780000000 1.0
C      1  0.4863510000000  0.4328810000000  0.4932730000000 1.0
C      1  0.4487100000000  0.5453520000000  0.4932720000000 1.0
C      1  0.4555730000000  0.5213810000000  0.4429920000000 1.0
C      1  0.5407720000000  0.5278310000000  0.4431610000000 1.0
C      1  0.5036620000000  0.4508610000000  0.4431430000000 1.0
C      1  0.5596740000000  0.4650530000000  0.4829730000000 1.0
C      1  0.4398970000000  0.4658260000000  0.4829350000000 1.0
C      1  0.5004550000000  0.5691970000000  0.4829560000000 1.0
C      1  0.4932750000000  0.4400220000000  0.5280700000000 1.0
C      1  0.4514070000000  0.5357780000000  0.5281360000000 1.0
C      1  0.5553760000000  0.5241420000000  0.5281390000000 1.0
C      1  0.4704690000000  0.5084260000000  0.5020100000000 1.0
C      1  0.5220290000000  0.5213760000000  0.5020540000000 1.0
C      1  0.5074630000000  0.4701860000000  0.5020500000000 1.0
C      1  0.5652440000000  0.5350860000000  0.4606270000000 1.0
C      1  0.4977670000000  0.4259330000000  0.4606500000000 1.0
C      1  0.4368600000000  0.5389530000000  0.4606560000000 1.0
C      1  0.4802400000000  0.4806120000000  0.4905140000000 1.0
C      1  0.4931180000000  0.5267940000000  0.4904310000000 1.0
C      1  0.5267270000000  0.4925860000000  0.4904930000000 1.0
END
