TITL C-3985254-1270-1044 -0.000987250550864561 125000 -324.42319987793 0 0 60 (C1) n - 1
REM
REM in /home/nfs/bkarasulu/CARBON/AIRSS/Generating-Clusters/TERSOFF/Higher-Symm/Only-C60
REM
REM
REM
REM
REM
REM ./C.cell (28575a23ae977d3b5fae324c64b13b57)
REM
REM compiler GCC version 9.2.1 20190827 (Red Hat 9.2.1-1)
REM options -cpp -mtune=generic -march=x86-64 -g -O0 -fpre-include=/usr/include/finclude/math-vector-fortran.h
REM seed 1521128579 1939211769 1687241203 -568651946 -459277043 1656494087 2075560266 -1853689583 -90864553 1375046179 1627940242 1932656323 -1969955620 379485279 -1603726494 2108175553 1405385418 1232089200 -896830278 -151707640 -18392934 -417857857 -1061059720 -1286410345 -1941762204 462175879 909523610 -1570606205 -358783709 -1758594199 1354884470 1880791354 -1020168781
REM
CELL 1.54180   50.00000   50.00000   50.00000   90.00000   90.00000   90.00000
LATT -1
SFAC C  
C      1  0.4534220000000  0.5608770000000  0.5353560000000 1.0
C      1  0.5336290000000  0.4587450000000  0.5579990000000 1.0
C      1  0.5605750000000  0.5324360000000  0.4544900000000 1.0
C      1  0.5499070000000  0.4380060000000  0.5336250000000 1.0
C      1  0.5467860000000  0.5633580000000  0.4668610000000 1.0
C      1  0.4541670000000  0.4377230000000  0.4678170000000 1.0
C      1  0.4617320000000  0.5429990000000  0.5655780000000 1.0
C      1  0.4685320000000  0.4520200000000  0.4385240000000 1.0
C      1  0.5328320000000  0.5469250000000  0.4381230000000 1.0
C      1  0.4393570000000  0.4668730000000  0.4525670000000 1.0
C      1  0.4341180000000  0.5327720000000  0.5467900000000 1.0
C      1  0.5657590000000  0.4669490000000  0.5476800000000 1.0
C      1  0.4552610000000  0.5623880000000  0.4686220000000 1.0
C      1  0.5335170000000  0.4534400000000  0.4385110000000 1.0
C      1  0.5644680000000  0.5312950000000  0.5505560000000 1.0
C      1  0.5459150000000  0.4364050000000  0.4677380000000 1.0
C      1  0.5509430000000  0.5613900000000  0.5351130000000 1.0
C      1  0.4526140000000  0.4395590000000  0.5361170000000 1.0
C      1  0.4680270000000  0.5473520000000  0.4388090000000 1.0
C      1  0.4625420000000  0.4572850000000  0.5658550000000 1.0
C      1  0.5331120000000  0.5418160000000  0.5592080000000 1.0
C      1  0.4349840000000  0.4686520000000  0.5483650000000 1.0
C      1  0.4384830000000  0.5343090000000  0.4540240000000 1.0
C      1  0.5618540000000  0.4660000000000  0.4560920000000 1.0
C      1  0.4759850000000  0.5715680000000  0.4880680000000 1.0
C      1  0.4859000000000  0.4746550000000  0.5708610000000 1.0
C      1  0.5716350000000  0.4851060000000  0.4766910000000 1.0
C      1  0.5255920000000  0.4267780000000  0.4871640000000 1.0
C      1  0.5276850000000  0.5681820000000  0.5169970000000 1.0
C      1  0.4752420000000  0.4339730000000  0.5175960000000 1.0
C      1  0.5092310000000  0.5259870000000  0.5530670000000 1.0
C      1  0.5154590000000  0.4745610000000  0.4279460000000 1.0
C      1  0.4853310000000  0.5252030000000  0.4296160000000 1.0
C      1  0.4277790000000  0.5151170000000  0.4741930000000 1.0
C      1  0.4284380000000  0.4854750000000  0.5251750000000 1.0
C      1  0.5722480000000  0.5146490000000  0.5276670000000 1.0
C      1  0.4765100000000  0.5655100000000  0.5174430000000 1.0
C      1  0.4857380000000  0.4744080000000  0.4294540000000 1.0
C      1  0.5763010000000  0.4853750000000  0.5275210000000 1.0
C      1  0.5262130000000  0.4309390000000  0.5166820000000 1.0
C      1  0.5271350000000  0.5731860000000  0.4871980000000 1.0
C      1  0.4744880000000  0.4282420000000  0.4877570000000 1.0
C      1  0.5149870000000  0.5255860000000  0.4275480000000 1.0
C      1  0.5097990000000  0.4750790000000  0.5528020000000 1.0
C      1  0.4851990000000  0.5259060000000  0.5707400000000 1.0
C      1  0.4254430000000  0.5147880000000  0.5251320000000 1.0
C      1  0.4310680000000  0.4851200000000  0.4745430000000 1.0
C      1  0.5666400000000  0.5146140000000  0.4772480000000 1.0
C      1  0.4810550000000  0.5002830000000  0.5842400000000 1.0
C      1  0.5269730000000  0.5001140000000  0.4204750000000 1.0
C      1  0.4188220000000  0.5263060000000  0.4994360000000 1.0
C      1  0.5008520000000  0.4298020000000  0.5302780000000 1.0
C      1  0.4729050000000  0.4997350000000  0.4245150000000 1.0
C      1  0.5133800000000  0.5006220000000  0.5392630000000 1.0
C      1  0.5825440000000  0.4743810000000  0.5013810000000 1.0
C      1  0.5722530000000  0.5276880000000  0.5021660000000 1.0
C      1  0.4257800000000  0.4724550000000  0.4998100000000 1.0
C      1  0.5020460000000  0.5689360000000  0.5305180000000 1.0
C      1  0.4997240000000  0.4185490000000  0.4769590000000 1.0
C      1  0.5010820000000  0.5815510000000  0.4774290000000 1.0
END
