TITL C-3985252-168-417 3.58477952293107e-07 125000 -286.248217524446 0 0 60 (S10) n - 1
REM
REM in /home/nfs/bkarasulu/CARBON/AIRSS/Generating-Clusters/TERSOFF/Higher-Symm/Only-C60
REM
REM
REM
REM
REM
REM ./C.cell (28575a23ae977d3b5fae324c64b13b57)
REM
REM compiler GCC version 9.2.1 20190827 (Red Hat 9.2.1-1)
REM options -cpp -mtune=generic -march=x86-64 -g -O0 -fpre-include=/usr/include/finclude/math-vector-fortran.h
REM seed 745794061 -1719770053 1720095911 -689360603 -416557644 3803299 -181294795 1893856058 -1272000419 -393073759 -376107913 133429885 -1132283432 485723816 159830051 -433027734 -1404853508 625663113 -1513815284 -989081604 -1485572730 469668533 1481329983 235873131 248171541 1616618165 1569572386 -1826832324 -1465478832 1477368626 -954990647 -534865496 1998741064
REM
CELL 1.54180   50.00000   50.00000   50.00000   90.00000   90.00000   90.00000
LATT -1
SFAC C  
C      1  0.5300500000000  0.5592210000000  0.5099150000000 1.0
C      1  0.5591210000000  0.5302480000000  0.4900890000000 1.0
C      1  0.5656090000000  0.4897210000000  0.5099150000000 1.0
C      1  0.5470370000000  0.4531200000000  0.4900880000000 1.0
C      1  0.5104980000000  0.4344260000000  0.5099120000000 1.0
C      1  0.4699500000000  0.4407790000000  0.4900850000000 1.0
C      1  0.4408790000000  0.4697520000000  0.5099110000000 1.0
C      1  0.4343910000000  0.5102790000000  0.4900850000000 1.0
C      1  0.4529630000000  0.5468800000000  0.5099120000000 1.0
C      1  0.4895020000000  0.5655740000000  0.4900880000000 1.0
C      1  0.4516200000000  0.4489340000000  0.5269480000000 1.0
C      1  0.4308450000000  0.4871240000000  0.4730470000000 1.0
C      1  0.4364830000000  0.5302310000000  0.5269490000000 1.0
C      1  0.4663840000000  0.5617920000000  0.4730490000000 1.0
C      1  0.5091230000000  0.5697500000000  0.5269520000000 1.0
C      1  0.5483800000000  0.5510660000000  0.4730520000000 1.0
C      1  0.5691550000000  0.5128760000000  0.5269530000000 1.0
C      1  0.5635170000000  0.4697690000000  0.4730510000000 1.0
C      1  0.5336160000000  0.4382080000000  0.5269510000000 1.0
C      1  0.4908770000000  0.4302500000000  0.4730480000000 1.0
C      1  0.5178390000000  0.4516030000000  0.4467640000000 1.0
C      1  0.4859820000000  0.4503610000000  0.5532350000000 1.0
C      1  0.4594850000000  0.4680810000000  0.4467620000000 1.0
C      1  0.4484580000000  0.4979910000000  0.5532350000000 1.0
C      1  0.4571240000000  0.5286710000000  0.4467630000000 1.0
C      1  0.4821610000000  0.5483970000000  0.5532360000000 1.0
C      1  0.5140180000000  0.5496390000000  0.4467650000000 1.0
C      1  0.5405150000000  0.5319190000000  0.5532380000000 1.0
C      1  0.5515420000000  0.5020090000000  0.4467650000000 1.0
C      1  0.5428760000000  0.4713300000000  0.5532370000000 1.0
C      1  0.4919100000000  0.5244010000000  0.5194360000000 1.0
C      1  0.5077990000000  0.5244960000000  0.4805640000000 1.0
C      1  0.5207070000000  0.5152330000000  0.5194370000000 1.0
C      1  0.5257080000000  0.5001530000000  0.4805640000000 1.0
C      1  0.5208870000000  0.4850130000000  0.5194370000000 1.0
C      1  0.5080900000000  0.4755980000000  0.4805640000000 1.0
C      1  0.4922010000000  0.4755040000000  0.5194360000000 1.0
C      1  0.4792930000000  0.4847670000000  0.4805630000000 1.0
C      1  0.4742920000000  0.4998470000000  0.5194350000000 1.0
C      1  0.4791130000000  0.5149870000000  0.4805630000000 1.0
C      1  0.4920540000000  0.4703150000000  0.4316120000000 1.0
C      1  0.4761180000000  0.4806550000000  0.5683870000000 1.0
C      1  0.4693130000000  0.4983870000000  0.4316120000000 1.0
C      1  0.4742210000000  0.5167320000000  0.5683870000000 1.0
C      1  0.4889840000000  0.5286890000000  0.4316120000000 1.0
C      1  0.5079460000000  0.5296850000000  0.5683880000000 1.0
C      1  0.5238820000000  0.5193450000000  0.4316130000000 1.0
C      1  0.5306870000000  0.5016130000000  0.5683880000000 1.0
C      1  0.5257790000000  0.4832680000000  0.4316130000000 1.0
C      1  0.5110160000000  0.4713110000000  0.5683880000000 1.0
C      1  0.5463520000000  0.5342020000000  0.5220270000000 1.0
C      1  0.5576040000000  0.5004260000000  0.4779760000000 1.0
C      1  0.5468520000000  0.4664850000000  0.5220270000000 1.0
C      1  0.5182060000000  0.4453470000000  0.4779740000000 1.0
C      1  0.4826030000000  0.4450840000000  0.5220240000000 1.0
C      1  0.4536480000000  0.4657980000000  0.4779730000000 1.0
C      1  0.4423960000000  0.4995740000000  0.5220240000000 1.0
C      1  0.4531480000000  0.5335150000000  0.4779730000000 1.0
C      1  0.4817940000000  0.5546530000000  0.5220260000000 1.0
C      1  0.5173970000000  0.5549160000000  0.4779760000000 1.0
END
