TITL C-3985251-913-24 -8.07575468228734e-05 125000 -325.246699160381 0 0 60 (C1) n - 1
REM
REM in /home/nfs/bkarasulu/CARBON/AIRSS/Generating-Clusters/TERSOFF/Higher-Symm/Only-C60
REM
REM
REM
REM
REM
REM ./C.cell (28575a23ae977d3b5fae324c64b13b57)
REM
REM compiler GCC version 9.2.1 20190827 (Red Hat 9.2.1-1)
REM options -cpp -mtune=generic -march=x86-64 -g -O0 -fpre-include=/usr/include/finclude/math-vector-fortran.h
REM seed 456968148 -1191934063 -2145650922 -2145829473 -871605941 -821447781 1410610592 248327019 2013295910 474159681 2123624290 1229796523 1980599618 1757229447 979038754 1457286542 940202424 1233388267 1885721155 -90131094 766426722 -1969517013 557271414 -1000314215 230139276 -357885578 -364492606 512773106 -2000823711 1984876111 -1031141877 1035699748 284017585
REM
CELL 1.54180   50.00000   50.00000   50.00000   90.00000   90.00000   90.00000
LATT -1
SFAC C  
C      1  0.4762470000000  0.4891460000000  0.4203790000000 1.0
C      1  0.4433720000000  0.4675420000000  0.5233080000000 1.0
C      1  0.4706010000000  0.4772550000000  0.5679360000000 1.0
C      1  0.5344920000000  0.4637920000000  0.5417350000000 1.0
C      1  0.5475790000000  0.5122040000000  0.5606370000000 1.0
C      1  0.5010860000000  0.4838830000000  0.5255840000000 1.0
C      1  0.4356410000000  0.4870100000000  0.4648550000000 1.0
C      1  0.5152830000000  0.5716800000000  0.5020240000000 1.0
C      1  0.5331310000000  0.4961300000000  0.4393960000000 1.0
C      1  0.4821350000000  0.4772090000000  0.4651470000000 1.0
C      1  0.4697790000000  0.4314560000000  0.5143960000000 1.0
C      1  0.5202560000000  0.4934940000000  0.5041330000000 1.0
C      1  0.4387460000000  0.5364840000000  0.4833080000000 1.0
C      1  0.5574720000000  0.4948820000000  0.4572450000000 1.0
C      1  0.5001740000000  0.4718290000000  0.5753890000000 1.0
C      1  0.4605350000000  0.4951430000000  0.4494830000000 1.0
C      1  0.5383470000000  0.5579210000000  0.5442660000000 1.0
C      1  0.5671320000000  0.4677950000000  0.4632060000000 1.0
C      1  0.4314980000000  0.5072400000000  0.4885230000000 1.0
C      1  0.4654840000000  0.5511040000000  0.5237800000000 1.0
C      1  0.4706930000000  0.4988400000000  0.5009900000000 1.0
C      1  0.5110000000000  0.4492380000000  0.5564960000000 1.0
C      1  0.5553800000000  0.4979660000000  0.5081260000000 1.0
C      1  0.4949630000000  0.5118610000000  0.5467540000000 1.0
C      1  0.5123960000000  0.5627640000000  0.5305630000000 1.0
C      1  0.4794910000000  0.5240170000000  0.4829080000000 1.0
C      1  0.4909760000000  0.5436330000000  0.5358910000000 1.0
C      1  0.5416520000000  0.5641700000000  0.4902000000000 1.0
C      1  0.4770260000000  0.4689410000000  0.4936600000000 1.0
C      1  0.4909340000000  0.4496760000000  0.5317900000000 1.0
C      1  0.5127610000000  0.4843230000000  0.4759900000000 1.0
C      1  0.5257030000000  0.4548360000000  0.4704300000000 1.0
C      1  0.4693520000000  0.5234010000000  0.4537720000000 1.0
C      1  0.4918630000000  0.5664020000000  0.4819420000000 1.0
C      1  0.5236320000000  0.4935190000000  0.5594440000000 1.0
C      1  0.5694430000000  0.4725880000000  0.5060910000000 1.0
C      1  0.4920400000000  0.4637690000000  0.4266980000000 1.0
C      1  0.5427020000000  0.5380860000000  0.4757270000000 1.0
C      1  0.4657050000000  0.5505100000000  0.4940610000000 1.0
C      1  0.4502400000000  0.4498610000000  0.4986410000000 1.0
C      1  0.5208920000000  0.5244530000000  0.5088620000000 1.0
C      1  0.5322350000000  0.4540380000000  0.5119010000000 1.0
C      1  0.4878450000000  0.5186260000000  0.4279880000000 1.0
C      1  0.4453200000000  0.4573300000000  0.4686830000000 1.0
C      1  0.5415810000000  0.5404040000000  0.5682900000000 1.0
C      1  0.4634190000000  0.4596450000000  0.5448630000000 1.0
C      1  0.5568440000000  0.4512990000000  0.4881360000000 1.0
C      1  0.4427710000000  0.4970550000000  0.5170430000000 1.0
C      1  0.4422750000000  0.5413610000000  0.5374980000000 1.0
C      1  0.4727070000000  0.4492710000000  0.4489460000000 1.0
C      1  0.5585170000000  0.5134390000000  0.4802330000000 1.0
C      1  0.5086390000000  0.5508020000000  0.4548160000000 1.0
C      1  0.5112580000000  0.5293370000000  0.4793840000000 1.0
C      1  0.5618260000000  0.5147620000000  0.5328690000000 1.0
C      1  0.4676800000000  0.5049370000000  0.5590510000000 1.0
C      1  0.5038800000000  0.4508620000000  0.4995780000000 1.0
C      1  0.4439650000000  0.5130940000000  0.5422860000000 1.0
C      1  0.5167080000000  0.5225610000000  0.4340190000000 1.0
C      1  0.5198430000000  0.4677360000000  0.4381640000000 1.0
C      1  0.5448530000000  0.5373860000000  0.5224840000000 1.0
END
