TITL C-3985254-1270-213 0.000251727328948348 125000 -321.382082219063 0 0 60 (C3) n - 1
REM
REM in /home/nfs/bkarasulu/CARBON/AIRSS/Generating-Clusters/TERSOFF/Higher-Symm/Only-C60
REM
REM
REM
REM
REM
REM ./C.cell (28575a23ae977d3b5fae324c64b13b57)
REM
REM compiler GCC version 9.2.1 20190827 (Red Hat 9.2.1-1)
REM options -cpp -mtune=generic -march=x86-64 -g -O0 -fpre-include=/usr/include/finclude/math-vector-fortran.h
REM seed 937025273 1106425307 -1469400682 -1257005726 -318824055 7672982 1144104195 944924207 3248173 370689477 -748370942 239875894 -170412282 -67209081 1014828400 -647562904 1082433209 -232121384 -1587512764 690351030 -493543878 -674789040 1328230878 -808018674 758737506 90126660 -466801761 -715173167 -515840300 153856984 -1488458797 1740675735 -840073696
REM
CELL 1.54180   50.00000   50.00000   50.00000   90.00000   90.00000   90.00000
LATT -1
SFAC C  
C      1  0.5009590000000  0.5597740000000  0.4571860000000 1.0
C      1  0.5512750000000  0.4692880000000  0.4571960000000 1.0
C      1  0.4477590000000  0.4709480000000  0.4571910000000 1.0
C      1  0.4712330000000  0.4863490000000  0.4367650000000 1.0
C      1  0.5025560000000  0.5317420000000  0.4367590000000 1.0
C      1  0.5262040000000  0.4819180000000  0.4367690000000 1.0
C      1  0.5288960000000  0.5668900000000  0.4721000000000 1.0
C      1  0.5434710000000  0.4415360000000  0.4721090000000 1.0
C      1  0.4276260000000  0.4915840000000  0.4721030000000 1.0
C      1  0.5055300000000  0.5194520000000  0.4677650000000 1.0
C      1  0.5140690000000  0.4854910000000  0.4677740000000 1.0
C      1  0.4803900000000  0.4950760000000  0.4677680000000 1.0
C      1  0.5543280000000  0.5506200000000  0.5253940000000 1.0
C      1  0.5166780000000  0.4276380000000  0.5253970000000 1.0
C      1  0.4289990000000  0.5217350000000  0.5253920000000 1.0
C      1  0.5205050000000  0.4956790000000  0.5114480000000 1.0
C      1  0.4860000000000  0.4844080000000  0.5114240000000 1.0
C      1  0.4935010000000  0.5199200000000  0.5114270000000 1.0
C      1  0.5155700000000  0.5663180000000  0.5235830000000 1.0
C      1  0.5496560000000  0.4533550000000  0.5235880000000 1.0
C      1  0.4347840000000  0.4803160000000  0.5235810000000 1.0
C      1  0.4469470000000  0.5446800000000  0.5214890000000 1.0
C      1  0.5652260000000  0.5235990000000  0.5214940000000 1.0
C      1  0.4878310000000  0.4317100000000  0.5214920000000 1.0
C      1  0.4583270000000  0.4972160000000  0.5080290000000 1.0
C      1  0.5184330000000  0.5374750000000  0.5080280000000 1.0
C      1  0.5232460000000  0.4653010000000  0.5080410000000 1.0
C      1  0.5301510000000  0.5000410000000  0.5554360000000 1.0
C      1  0.4849660000000  0.4738660000000  0.5554340000000 1.0
C      1  0.4848910000000  0.5260840000000  0.5554300000000 1.0
C      1  0.4705020000000  0.5501670000000  0.5438260000000 1.0
C      1  0.5582030000000  0.5004590000000  0.5438350000000 1.0
C      1  0.4713020000000  0.4493630000000  0.5438300000000 1.0
C      1  0.5467140000000  0.5197220000000  0.4595790000000 1.0
C      1  0.4937150000000  0.4496830000000  0.4595800000000 1.0
C      1  0.4595600000000  0.5306070000000  0.4595710000000 1.0
C      1  0.5152530000000  0.5259840000000  0.5562260000000 1.0
C      1  0.5148810000000  0.4737950000000  0.5562300000000 1.0
C      1  0.4698710000000  0.5002120000000  0.5562250000000 1.0
C      1  0.4528730000000  0.5071670000000  0.4796540000000 1.0
C      1  0.5297580000000  0.5372340000000  0.4796520000000 1.0
C      1  0.5173560000000  0.4556160000000  0.4796620000000 1.0
C      1  0.4744870000000  0.5521990000000  0.4729050000000 1.0
C      1  0.5579530000000  0.4960000000000  0.4729140000000 1.0
C      1  0.4675500000000  0.4518060000000  0.4729100000000 1.0
C      1  0.4863820000000  0.5682290000000  0.5230320000000 1.0
C      1  0.5659030000000  0.4776770000000  0.5230380000000 1.0
C      1  0.4477210000000  0.4540860000000  0.5230360000000 1.0
C      1  0.4732500000000  0.5194110000000  0.4343630000000 1.0
C      1  0.5301810000000  0.5134620000000  0.4343650000000 1.0
C      1  0.4965650000000  0.4671350000000  0.4343710000000 1.0
C      1  0.4725440000000  0.4549070000000  0.5022330000000 1.0
C      1  0.4746810000000  0.5463220000000  0.5022280000000 1.0
C      1  0.5527760000000  0.4987670000000  0.5022380000000 1.0
C      1  0.5392220000000  0.5733810000000  0.5016490000000 1.0
C      1  0.5439460000000  0.4293440000000  0.5016500000000 1.0
C      1  0.4168340000000  0.4972660000000  0.5016480000000 1.0
C      1  0.5296610000000  0.5508350000000  0.5473190000000 1.0
C      1  0.5292000000000  0.4488910000000  0.5473240000000 1.0
C      1  0.4411440000000  0.5002630000000  0.5473180000000 1.0
END
