TITL C-3985253-1688-638 0.000546766953072292 125000 -316.403894987791 0 0 60 (C1) n - 1
REM
REM in /home/nfs/bkarasulu/CARBON/AIRSS/Generating-Clusters/TERSOFF/Higher-Symm/Only-C60
REM
REM
REM
REM
REM
REM ./C.cell (28575a23ae977d3b5fae324c64b13b57)
REM
REM compiler GCC version 9.2.1 20190827 (Red Hat 9.2.1-1)
REM options -cpp -mtune=generic -march=x86-64 -g -O0 -fpre-include=/usr/include/finclude/math-vector-fortran.h
REM seed -820029526 -472814206 1498414526 1090890453 1936641020 -488067743 -994992392 -2121138946 -1085445998 -1402370156 1572524289 -1545314369 1898095195 1381947675 248442131 914337033 1834801972 -1804352595 1423250112 -229968151 215664294 -54137697 -348692754 -46607073 1118896247 -857359438 -212100105 -886853372 -2097120894 189028167 -534951280 339094612 -206628611
REM
CELL 1.54180   50.00000   50.00000   50.00000   90.00000   90.00000   90.00000
LATT -1
SFAC C  
C      1  0.4956410000000  0.5583800000000  0.4684270000000 1.0
C      1  0.4612500000000  0.4348230000000  0.5057050000000 1.0
C      1  0.5078050000000  0.5345170000000  0.4445040000000 1.0
C      1  0.4563610000000  0.5030920000000  0.5085680000000 1.0
C      1  0.5435970000000  0.4972370000000  0.5149170000000 1.0
C      1  0.4797610000000  0.4948130000000  0.4720960000000 1.0
C      1  0.4549470000000  0.5447220000000  0.5360060000000 1.0
C      1  0.5540410000000  0.5378490000000  0.5138900000000 1.0
C      1  0.5702290000000  0.5193240000000  0.4913160000000 1.0
C      1  0.4912090000000  0.5101770000000  0.5026270000000 1.0
C      1  0.5141970000000  0.4535430000000  0.4497130000000 1.0
C      1  0.4808900000000  0.5030160000000  0.5467090000000 1.0
C      1  0.5005830000000  0.4351460000000  0.4687340000000 1.0
C      1  0.5448160000000  0.4452150000000  0.4853100000000 1.0
C      1  0.4825550000000  0.5538730000000  0.5379280000000 1.0
C      1  0.4858330000000  0.4901350000000  0.5743920000000 1.0
C      1  0.4336660000000  0.5008340000000  0.4654000000000 1.0
C      1  0.4469530000000  0.4682520000000  0.5080440000000 1.0
C      1  0.4433850000000  0.5460700000000  0.4870240000000 1.0
C      1  0.4729950000000  0.4845780000000  0.4319370000000 1.0
C      1  0.5245250000000  0.5143100000000  0.4908690000000 1.0
C      1  0.5005650000000  0.4823270000000  0.4470720000000 1.0
C      1  0.4412970000000  0.5576380000000  0.5135290000000 1.0
C      1  0.5205160000000  0.4860100000000  0.4755350000000 1.0
C      1  0.4887370000000  0.5819080000000  0.5325710000000 1.0
C      1  0.4521380000000  0.5127600000000  0.5390550000000 1.0
C      1  0.5552880000000  0.4964570000000  0.5453750000000 1.0
C      1  0.4711240000000  0.4639700000000  0.5583850000000 1.0
C      1  0.5295890000000  0.4702950000000  0.5223030000000 1.0
C      1  0.4632000000000  0.5555540000000  0.4665120000000 1.0
C      1  0.5364420000000  0.4795560000000  0.5626920000000 1.0
C      1  0.4892500000000  0.4357010000000  0.5171780000000 1.0
C      1  0.5511200000000  0.5272080000000  0.5433490000000 1.0
C      1  0.4395440000000  0.5173580000000  0.4888430000000 1.0
C      1  0.4717060000000  0.4703550000000  0.4862220000000 1.0
C      1  0.5340090000000  0.5386200000000  0.4656160000000 1.0
C      1  0.5295560000000  0.4285210000000  0.5273010000000 1.0
C      1  0.5732620000000  0.4887000000000  0.5017340000000 1.0
C      1  0.4452170000000  0.4507080000000  0.4600590000000 1.0
C      1  0.5173270000000  0.4291870000000  0.4958880000000 1.0
C      1  0.5588960000000  0.5209970000000  0.4632930000000 1.0
C      1  0.4484150000000  0.4771620000000  0.5406010000000 1.0
C      1  0.5029950000000  0.5341330000000  0.5294450000000 1.0
C      1  0.4311180000000  0.4722950000000  0.4757990000000 1.0
C      1  0.5428020000000  0.4646370000000  0.4606970000000 1.0
C      1  0.5036050000000  0.5892640000000  0.5089620000000 1.0
C      1  0.5579390000000  0.4586500000000  0.5075750000000 1.0
C      1  0.5226350000000  0.5433130000000  0.5068230000000 1.0
C      1  0.5196460000000  0.5049330000000  0.4380590000000 1.0
C      1  0.4716840000000  0.5332230000000  0.4449760000000 1.0
C      1  0.4939870000000  0.4555940000000  0.5388630000000 1.0
C      1  0.5215150000000  0.5247020000000  0.5522730000000 1.0
C      1  0.5248880000000  0.4523370000000  0.5491730000000 1.0
C      1  0.4712010000000  0.4402710000000  0.4737800000000 1.0
C      1  0.4589500000000  0.5060320000000  0.4487720000000 1.0
C      1  0.5388160000000  0.5675330000000  0.4744740000000 1.0
C      1  0.4979900000000  0.4869980000000  0.5248000000000 1.0
C      1  0.5133560000000  0.5681460000000  0.4913140000000 1.0
C      1  0.5155530000000  0.4997430000000  0.5701860000000 1.0
C      1  0.5488810000000  0.4972960000000  0.4468010000000 1.0
END
