TITL C-3985244-725-609 9.82737903627615e-07 125000 -335.847004863428 0 0 60 (C1) n - 1
REM
REM in /home/nfs/bkarasulu/CARBON/AIRSS/Generating-Clusters/TERSOFF/Higher-Symm/Only-C60
REM
REM
REM
REM
REM
REM ./C.cell (28575a23ae977d3b5fae324c64b13b57)
REM
REM compiler GCC version 9.2.1 20190827 (Red Hat 9.2.1-1)
REM options -cpp -mtune=generic -march=x86-64 -g -O0 -fpre-include=/usr/include/finclude/math-vector-fortran.h
REM seed -1207425774 1536013400 -823405786 -727758676 -846100635 472712810 1353196686 -2090573448 1807975671 -1024515633 -1252242783 -1738956398 -53803448 603266359 -1125918429 528284191 1419908762 1721072059 1596505234 -1227345988 1296571869 1587140070 1773939418 620288408 -1356415305 -2015197021 -1504414815 -235129169 -460185173 -206194691 -175714497 -618818557 891143615
REM
CELL 1.54180   50.00000   50.00000   50.00000   90.00000   90.00000   90.00000
LATT -1
SFAC C  
C      1  0.5013140000000  0.5302700000000  0.5716480000000 1.0
C      1  0.4456350000000  0.5316810000000  0.5445720000000 1.0
C      1  0.4311460000000  0.5311930000000  0.4838880000000 1.0
C      1  0.4701540000000  0.5307100000000  0.4347950000000 1.0
C      1  0.5328560000000  0.5313910000000  0.4356270000000 1.0
C      1  0.5706820000000  0.5316830000000  0.4852320000000 1.0
C      1  0.5563040000000  0.5298090000000  0.5454030000000 1.0
C      1  0.4804660000000  0.4821410000000  0.5507650000000 1.0
C      1  0.4497010000000  0.4839700000000  0.5160320000000 1.0
C      1  0.4575350000000  0.4842800000000  0.4707070000000 1.0
C      1  0.4973190000000  0.4842210000000  0.4477140000000 1.0
C      1  0.5403570000000  0.4838810000000  0.4634490000000 1.0
C      1  0.5554540000000  0.4820970000000  0.5071330000000 1.0
C      1  0.5265130000000  0.4810520000000  0.5442030000000 1.0
C      1  0.5460440000000  0.4843860000000  0.5662280000000 1.0
C      1  0.4758440000000  0.4873210000000  0.5792590000000 1.0
C      1  0.4244160000000  0.4877960000000  0.5307270000000 1.0
C      1  0.4302340000000  0.4864230000000  0.4597440000000 1.0
C      1  0.4894350000000  0.4862370000000  0.4194250000000 1.0
C      1  0.5578280000000  0.4875990000000  0.4401410000000 1.0
C      1  0.5842260000000  0.4877110000000  0.5060810000000 1.0
C      1  0.4989840000000  0.4581180000000  0.4634380000000 1.0
C      1  0.5308680000000  0.4569540000000  0.4736140000000 1.0
C      1  0.5439480000000  0.4539950000000  0.5039750000000 1.0
C      1  0.5185040000000  0.4548330000000  0.5297520000000 1.0
C      1  0.4834600000000  0.4540880000000  0.5390910000000 1.0
C      1  0.4635770000000  0.4572600000000  0.5128510000000 1.0
C      1  0.4703400000000  0.4582790000000  0.4802050000000 1.0
C      1  0.5258160000000  0.5304120000000  0.5519090000000 1.0
C      1  0.4764170000000  0.5323910000000  0.5521590000000 1.0
C      1  0.4436330000000  0.5345210000000  0.5131420000000 1.0
C      1  0.4539450000000  0.5351440000000  0.4621020000000 1.0
C      1  0.5013510000000  0.5350160000000  0.4397280000000 1.0
C      1  0.5471540000000  0.5341520000000  0.4638860000000 1.0
C      1  0.5569670000000  0.5320450000000  0.5135940000000 1.0
C      1  0.4321630000000  0.5068170000000  0.5548830000000 1.0
C      1  0.4157580000000  0.5055160000000  0.4806250000000 1.0
C      1  0.4636030000000  0.5046250000000  0.4212440000000 1.0
C      1  0.5399260000000  0.5057830000000  0.4214080000000 1.0
C      1  0.5872310000000  0.5068690000000  0.4811670000000 1.0
C      1  0.5687130000000  0.5039120000000  0.5548410000000 1.0
C      1  0.5006350000000  0.5047650000000  0.5878010000000 1.0
C      1  0.5283060000000  0.4916940000000  0.5903100000000 1.0
C      1  0.4464370000000  0.4956980000000  0.5794510000000 1.0
C      1  0.4057270000000  0.4946170000000  0.5073220000000 1.0
C      1  0.4368070000000  0.4929720000000  0.4303510000000 1.0
C      1  0.5162330000000  0.4936880000000  0.4061800000000 1.0
C      1  0.5846120000000  0.4955910000000  0.4528120000000 1.0
C      1  0.5900260000000  0.4939740000000  0.5354580000000 1.0
C      1  0.4635500000000  0.5102250000000  0.5085240000000 1.0
C      1  0.4704380000000  0.5117070000000  0.4757910000000 1.0
C      1  0.5005590000000  0.5115540000000  0.4610980000000 1.0
C      1  0.5302300000000  0.5099130000000  0.4753720000000 1.0
C      1  0.5376250000000  0.5077550000000  0.5071560000000 1.0
C      1  0.5174940000000  0.5070510000000  0.5330260000000 1.0
C      1  0.4850040000000  0.5079600000000  0.5338840000000 1.0
C      1  0.4998100000000  0.4923970000000  0.4980300000000 1.0
C      1  0.4918830000000  0.5474150000000  0.4811600000000 1.0
C      1  0.5037750000000  0.4656260000000  0.5043950000000 1.0
C      1  0.5010300000000  0.5270660000000  0.5001190000000 1.0
END
