TITL C-3985250-725-51 -1.82933567628824e-05 125000 -256.808852335206 0 0 60 (T23) n - 1
REM
REM in /home/nfs/bkarasulu/CARBON/AIRSS/Generating-Clusters/TERSOFF/Higher-Symm/Only-C60
REM
REM
REM
REM
REM
REM ./C.cell (28575a23ae977d3b5fae324c64b13b57)
REM
REM compiler GCC version 9.2.1 20190827 (Red Hat 9.2.1-1)
REM options -cpp -mtune=generic -march=x86-64 -g -O0 -fpre-include=/usr/include/finclude/math-vector-fortran.h
REM seed -1164441228 92481572 -735702063 -638445721 875525808 -1978095057 1128336812 1839112095 -836425573 -1592523581 -260291044 -475025874 2063729952 799956075 -342057902 1442585165 1807048633 1384449450 -939276833 -218287755 534612403 -1331785369 484560515 1822200443 -814863822 -1030025668 1984256836 1998868213 253336716 -173271945 958508992 1664999840 -959244720
REM
CELL 1.54180   50.00000   50.00000   50.00000   90.00000   90.00000   90.00000
LATT -1
SFAC C  
C      1  0.4650470000000  0.5556510000000  0.4729740000000 1.0
C      1  0.5556500000000  0.4729740000000  0.4650470000000 1.0
C      1  0.4729740000000  0.4650470000000  0.5556510000000 1.0
C      1  0.5349530000000  0.5556500000000  0.5270260000000 1.0
C      1  0.5349520000000  0.4443500000000  0.4729740000000 1.0
C      1  0.4650470000000  0.4443490000000  0.5270260000000 1.0
C      1  0.4443490000000  0.4729740000000  0.5349530000000 1.0
C      1  0.4443490000000  0.5270260000000  0.4650470000000 1.0
C      1  0.5556510000000  0.5270250000000  0.5349530000000 1.0
C      1  0.5270250000000  0.4650470000000  0.4443490000000 1.0
C      1  0.5270260000000  0.5349520000000  0.5556510000000 1.0
C      1  0.4729740000000  0.5349540000000  0.4443490000000 1.0
C      1  0.5483070000000  0.5559260000000  0.4847490000000 1.0
C      1  0.5559260000000  0.4847480000000  0.5483060000000 1.0
C      1  0.4847480000000  0.5483060000000  0.5559260000000 1.0
C      1  0.4516940000000  0.5559260000000  0.5152520000000 1.0
C      1  0.4516950000000  0.4440740000000  0.4847470000000 1.0
C      1  0.5483070000000  0.4440730000000  0.5152510000000 1.0
C      1  0.4440730000000  0.4847480000000  0.4516930000000 1.0
C      1  0.4440740000000  0.5152520000000  0.5483060000000 1.0
C      1  0.5559260000000  0.5152520000000  0.4516930000000 1.0
C      1  0.5152520000000  0.5483070000000  0.4440730000000 1.0
C      1  0.5152530000000  0.4516940000000  0.5559270000000 1.0
C      1  0.4847490000000  0.4516940000000  0.4440750000000 1.0
C      1  0.4998400000000  0.5209160000000  0.5269020000000 1.0
C      1  0.5209150000000  0.5269020000000  0.4998410000000 1.0
C      1  0.5269010000000  0.4998400000000  0.5209160000000 1.0
C      1  0.5001590000000  0.5209150000000  0.4730980000000 1.0
C      1  0.5001590000000  0.4790850000000  0.5269020000000 1.0
C      1  0.4998400000000  0.4790840000000  0.4730990000000 1.0
C      1  0.4790840000000  0.5269020000000  0.5001600000000 1.0
C      1  0.4790840000000  0.4730980000000  0.4998410000000 1.0
C      1  0.5209150000000  0.4730980000000  0.5001600000000 1.0
C      1  0.4730980000000  0.4998400000000  0.4790850000000 1.0
C      1  0.4730980000000  0.5001600000000  0.5209160000000 1.0
C      1  0.5269010000000  0.5001590000000  0.4790850000000 1.0
C      1  0.4413610000000  0.4980370000000  0.4818320000000 1.0
C      1  0.4980360000000  0.4818330000000  0.4413610000000 1.0
C      1  0.4818330000000  0.4413610000000  0.4980380000000 1.0
C      1  0.5586390000000  0.4980370000000  0.5181670000000 1.0
C      1  0.5586380000000  0.5019630000000  0.4818310000000 1.0
C      1  0.4413610000000  0.5019630000000  0.5181670000000 1.0
C      1  0.5019630000000  0.4818320000000  0.5586390000000 1.0
C      1  0.5019630000000  0.5181690000000  0.4413610000000 1.0
C      1  0.4980360000000  0.5181670000000  0.5586390000000 1.0
C      1  0.5181680000000  0.4413610000000  0.5019640000000 1.0
C      1  0.5181690000000  0.5586380000000  0.4980360000000 1.0
C      1  0.4818330000000  0.5586390000000  0.5019630000000 1.0
C      1  0.5328640000000  0.5116340000000  0.4336390000000 1.0
C      1  0.5116350000000  0.4336390000000  0.5328650000000 1.0
C      1  0.4336400000000  0.5328640000000  0.5116320000000 1.0
C      1  0.4671350000000  0.5116330000000  0.5663600000000 1.0
C      1  0.4671350000000  0.4883660000000  0.4336390000000 1.0
C      1  0.5328640000000  0.4883680000000  0.5663600000000 1.0
C      1  0.4883690000000  0.4336400000000  0.4671370000000 1.0
C      1  0.4883680000000  0.5663600000000  0.5328640000000 1.0
C      1  0.5116350000000  0.5663620000000  0.4671360000000 1.0
C      1  0.5663610000000  0.5328640000000  0.4883660000000 1.0
C      1  0.5663610000000  0.4671360000000  0.5116330000000 1.0
C      1  0.4336400000000  0.4671350000000  0.4883660000000 1.0
END
