TITL C-3985253-1688-425 0.000672450214530171 125000 -338.321940168985 0 0 60 (C1) n - 1
REM
REM in /home/nfs/bkarasulu/CARBON/AIRSS/Generating-Clusters/TERSOFF/Higher-Symm/Only-C60
REM
REM
REM
REM
REM
REM ./C.cell (28575a23ae977d3b5fae324c64b13b57)
REM
REM compiler GCC version 9.2.1 20190827 (Red Hat 9.2.1-1)
REM options -cpp -mtune=generic -march=x86-64 -g -O0 -fpre-include=/usr/include/finclude/math-vector-fortran.h
REM seed 274708674 2025752733 -1624194697 -675285276 -17330554 -1997115000 1685066402 -1543757414 184570420 -281603249 1304541385 -1346107276 -853549225 -109708347 -1299960265 808763559 1558206263 -1722119395 -737340824 890360112 621166210 -987554663 -238786798 -1859592625 910390638 1237909522 -834056108 531261238 367468463 -1724037195 36134160 1492401207 1164782137
REM
CELL 1.54180   50.00000   50.00000   50.00000   90.00000   90.00000   90.00000
LATT -1
SFAC C  
C      1  0.5393090000000  0.5594650000000  0.5257390000000 1.0
C      1  0.5392740000000  0.5428750000000  0.4514190000000 1.0
C      1  0.5392910000000  0.4670640000000  0.4441660000000 1.0
C      1  0.5393200000000  0.4366940000000  0.5140760000000 1.0
C      1  0.5393360000000  0.4938690000000  0.5645390000000 1.0
C      1  0.4734230000000  0.5015460000000  0.4444990000000 1.0
C      1  0.4733970000000  0.4476280000000  0.4813130000000 1.0
C      1  0.4732560000000  0.4659020000000  0.5442470000000 1.0
C      1  0.4732000000000  0.5316340000000  0.5461270000000 1.0
C      1  0.4733050000000  0.5534390000000  0.4842170000000 1.0
C      1  0.4691010000000  0.4560640000000  0.4532740000000 1.0
C      1  0.4691190000000  0.4419860000000  0.5272940000000 1.0
C      1  0.4691190000000  0.5080650000000  0.5635800000000 1.0
C      1  0.4690970000000  0.5629880000000  0.5119180000000 1.0
C      1  0.4690870000000  0.5308090000000  0.4437550000000 1.0
C      1  0.5403270000000  0.4533150000000  0.4895420000000 1.0
C      1  0.5403780000000  0.4756260000000  0.5411800000000 1.0
C      1  0.5403570000000  0.5316100000000  0.5358690000000 1.0
C      1  0.5402960000000  0.5438520000000  0.4810390000000 1.0
C      1  0.5402810000000  0.4955240000000  0.4524140000000 1.0
C      1  0.5228580000000  0.4465450000000  0.5397970000000 1.0
C      1  0.5228260000000  0.5213420000000  0.5630700000000 1.0
C      1  0.5228150000000  0.5665980000000  0.4991480000000 1.0
C      1  0.5228350000000  0.5197970000000  0.4363440000000 1.0
C      1  0.5228630000000  0.4455880000000  0.4614510000000 1.0
C      1  0.4976790000000  0.4615130000000  0.4434700000000 1.0
C      1  0.4976950000000  0.4344190000000  0.5190770000000 1.0
C      1  0.4976970000000  0.4979180000000  0.5681610000000 1.0
C      1  0.4976780000000  0.5642390000000  0.5230060000000 1.0
C      1  0.4976720000000  0.5418090000000  0.4459230000000 1.0
C      1  0.5625870000000  0.4749310000000  0.4933200000000 1.0
C      1  0.5626020000000  0.4859030000000  0.5217630000000 1.0
C      1  0.5625970000000  0.5163380000000  0.5201140000000 1.0
C      1  0.5625790000000  0.5241770000000  0.4906680000000 1.0
C      1  0.5625740000000  0.4985970000000  0.4741050000000 1.0
C      1  0.4520710000000  0.5401410000000  0.4671130000000 1.0
C      1  0.4521180000000  0.4812000000000  0.4516650000000 1.0
C      1  0.4521200000000  0.4482650000000  0.5029210000000 1.0
C      1  0.4520850000000  0.4868530000000  0.5501120000000 1.0
C      1  0.4520540000000  0.5436700000000  0.5279720000000 1.0
C      1  0.4866320000000  0.4831640000000  0.5225620000000 1.0
C      1  0.4865800000000  0.5162000000000  0.5230930000000 1.0
C      1  0.4866350000000  0.5268350000000  0.4918530000000 1.0
C      1  0.4867210000000  0.5004830000000  0.4721180000000 1.0
C      1  0.4867190000000  0.4735330000000  0.4910140000000 1.0
C      1  0.4362380000000  0.4936690000000  0.5253790000000 1.0
C      1  0.4362140000000  0.5222390000000  0.5138540000000 1.0
C      1  0.4361750000000  0.5201080000000  0.4831100000000 1.0
C      1  0.4361760000000  0.4901990000000  0.4756430000000 1.0
C      1  0.4362090000000  0.4738660000000  0.5017780000000 1.0
C      1  0.5192880000000  0.4979730000000  0.4744500000000 1.0
C      1  0.5193020000000  0.4749930000000  0.4940580000000 1.0
C      1  0.5192540000000  0.4865310000000  0.5219920000000 1.0
C      1  0.5192080000000  0.5166780000000  0.5196360000000 1.0
C      1  0.5192290000000  0.5237360000000  0.4902370000000 1.0
C      1  0.5006060000000  0.4917060000000  0.4322050000000 1.0
C      1  0.5006430000000  0.4329870000000  0.4868940000000 1.0
C      1  0.5006610000000  0.4668520000000  0.5596690000000 1.0
C      1  0.5006360000000  0.5465580000000  0.5499280000000 1.0
C      1  0.5005990000000  0.5618910000000  0.4711170000000 1.0
END
