TITL C-3985254-1270-1691 1.99646353995981e-07 125000 -296.584034876387 0 0 60 (C4v) n - 1
REM
REM in /home/nfs/bkarasulu/CARBON/AIRSS/Generating-Clusters/TERSOFF/Higher-Symm/Only-C60
REM
REM
REM
REM
REM
REM ./C.cell (28575a23ae977d3b5fae324c64b13b57)
REM
REM compiler GCC version 9.2.1 20190827 (Red Hat 9.2.1-1)
REM options -cpp -mtune=generic -march=x86-64 -g -O0 -fpre-include=/usr/include/finclude/math-vector-fortran.h
REM seed 98399594 -1415713870 1964121310 1778793060 678449861 757871948 1572299013 520734037 -269084479 1136723382 -1552148119 -238983319 1839093876 645964178 -440163039 -700542638 1400420350 -629836435 97381808 -1685981316 415469127 1267097 2007795588 1373320036 -227294669 -1411458122 -394734770 -858740477 1951599475 -1380366138 -2111236527 826136732 680364263
REM
CELL 1.54180   50.00000   50.00000   50.00000   90.00000   90.00000   90.00000
LATT -1
SFAC C  
C      1  0.5131720000000  0.5142060000000  0.4076380000000 1.0
C      1  0.5131720000000  0.4076380000000  0.4857940000000 1.0
C      1  0.5131720000000  0.4857940000000  0.5923620000000 1.0
C      1  0.5131720000000  0.5923620000000  0.5142060000000 1.0
C      1  0.5131720000000  0.4857940000000  0.4076380000000 1.0
C      1  0.5131720000000  0.5923620000000  0.4857940000000 1.0
C      1  0.5131720000000  0.5142060000000  0.5923620000000 1.0
C      1  0.5131720000000  0.4076380000000  0.5142060000000 1.0
C      1  0.4598960000000  0.5182020000000  0.4315680000000 1.0
C      1  0.4598960000000  0.4315680000000  0.4817980000000 1.0
C      1  0.4598960000000  0.4817980000000  0.5684320000000 1.0
C      1  0.4598960000000  0.5684320000000  0.5182020000000 1.0
C      1  0.4598960000000  0.4817980000000  0.4315680000000 1.0
C      1  0.4598960000000  0.5684320000000  0.4817980000000 1.0
C      1  0.4598960000000  0.5182020000000  0.5684320000000 1.0
C      1  0.4598960000000  0.4315680000000  0.5182020000000 1.0
C      1  0.5389000000000  0.5153750000000  0.4490920000000 1.0
C      1  0.5389000000000  0.4490920000000  0.4846250000000 1.0
C      1  0.5389000000000  0.4846250000000  0.5509080000000 1.0
C      1  0.5389000000000  0.5509080000000  0.5153750000000 1.0
C      1  0.5389000000000  0.4846250000000  0.4490920000000 1.0
C      1  0.5389000000000  0.5509080000000  0.4846250000000 1.0
C      1  0.5389000000000  0.5153750000000  0.5509080000000 1.0
C      1  0.5389000000000  0.4490920000000  0.5153750000000 1.0
C      1  0.5127510000000  0.4336450000000  0.4713360000000 1.0
C      1  0.5127510000000  0.4713360000000  0.5663550000000 1.0
C      1  0.5127510000000  0.5663550000000  0.5286640000000 1.0
C      1  0.5127510000000  0.5286640000000  0.4336450000000 1.0
C      1  0.5127510000000  0.5663550000000  0.4713360000000 1.0
C      1  0.5127510000000  0.5286640000000  0.5663550000000 1.0
C      1  0.5127510000000  0.4336450000000  0.5286640000000 1.0
C      1  0.5127510000000  0.4713360000000  0.4336450000000 1.0
C      1  0.4831060000000  0.4569240000000  0.4348980000000 1.0
C      1  0.4831060000000  0.4348980000000  0.5430760000000 1.0
C      1  0.4831060000000  0.5430760000000  0.5651020000000 1.0
C      1  0.4831060000000  0.5651020000000  0.4569240000000 1.0
C      1  0.4831060000000  0.5430760000000  0.4348980000000 1.0
C      1  0.4831060000000  0.5651020000000  0.5430760000000 1.0
C      1  0.4831060000000  0.4569240000000  0.5651020000000 1.0
C      1  0.4831060000000  0.4348980000000  0.4569240000000 1.0
C      1  0.4990550000000  0.5378080000000  0.4844740000000 1.0
C      1  0.4990550000000  0.4844740000000  0.4621920000000 1.0
C      1  0.4990550000000  0.4621920000000  0.5155260000000 1.0
C      1  0.4990550000000  0.5155260000000  0.5378080000000 1.0
C      1  0.4990550000000  0.4621920000000  0.4844740000000 1.0
C      1  0.4990550000000  0.5155260000000  0.4621920000000 1.0
C      1  0.4990550000000  0.5378080000000  0.5155260000000 1.0
C      1  0.4990550000000  0.4844740000000  0.5378080000000 1.0
C      1  0.4657270000000  0.4627050000000  0.5155520000000 1.0
C      1  0.4657270000000  0.5155520000000  0.5372950000000 1.0
C      1  0.4657270000000  0.5372950000000  0.4844480000000 1.0
C      1  0.4657270000000  0.4844480000000  0.4627050000000 1.0
C      1  0.4657270000000  0.5372950000000  0.5155520000000 1.0
C      1  0.4657270000000  0.4844480000000  0.5372950000000 1.0
C      1  0.4657270000000  0.4627050000000  0.4844480000000 1.0
C      1  0.4657270000000  0.5155520000000  0.4627050000000 1.0
C      1  0.5438650000000  0.5183810000000  0.4816190000000 1.0
C      1  0.5438650000000  0.4816190000000  0.5183810000000 1.0
C      1  0.5438650000000  0.5183810000000  0.5183810000000 1.0
C      1  0.5438650000000  0.4816190000000  0.4816190000000 1.0
END
