TITL C-3985248-2097-150 -1.22591111072939e-07 125000 -330.575501245497 0 0 60 (C4v) n - 1
REM
REM in /home/nfs/bkarasulu/CARBON/AIRSS/Generating-Clusters/TERSOFF/Higher-Symm/Only-C60
REM
REM
REM
REM
REM
REM ./C.cell (28575a23ae977d3b5fae324c64b13b57)
REM
REM compiler GCC version 9.2.1 20190827 (Red Hat 9.2.1-1)
REM options -cpp -mtune=generic -march=x86-64 -g -O0 -fpre-include=/usr/include/finclude/math-vector-fortran.h
REM seed 1041107659 -799654690 -1577596154 215783268 -1964474943 1596605438 -1851169998 461157621 -1590881617 -1158020586 921175133 -499593082 1954720319 185019371 563994477 404569598 746471483 -750825909 -1714708834 -129215194 944750046 962989114 -1853478560 -1002153963 -145983043 -1398669703 -1447422537 1373941166 995473406 1442340054 -18973146 1228133761 -632872382
REM
CELL 1.54180   50.00000   50.00000   50.00000   90.00000   90.00000   90.00000
LATT -1
SFAC C  
C      1  0.4843980000000  0.5859110000000  0.4899540000000 1.0
C      1  0.5859110000000  0.5156020000000  0.4899540000000 1.0
C      1  0.5156020000000  0.4140890000000  0.4899540000000 1.0
C      1  0.4140890000000  0.4843980000000  0.4899540000000 1.0
C      1  0.5156020000000  0.5859110000000  0.4899540000000 1.0
C      1  0.4140890000000  0.5156020000000  0.4899540000000 1.0
C      1  0.4843980000000  0.4140890000000  0.4899540000000 1.0
C      1  0.5859110000000  0.4843980000000  0.4899540000000 1.0
C      1  0.4845140000000  0.5373360000000  0.5511750000000 1.0
C      1  0.5373360000000  0.5154860000000  0.5511750000000 1.0
C      1  0.5154860000000  0.4626640000000  0.5511750000000 1.0
C      1  0.4626640000000  0.4845140000000  0.5511750000000 1.0
C      1  0.5154860000000  0.5373360000000  0.5511750000000 1.0
C      1  0.4626640000000  0.5154860000000  0.5511750000000 1.0
C      1  0.4845140000000  0.4626640000000  0.5511750000000 1.0
C      1  0.5373360000000  0.4845140000000  0.5511750000000 1.0
C      1  0.4614200000000  0.5164020000000  0.4995420000000 1.0
C      1  0.5164020000000  0.5385800000000  0.4995420000000 1.0
C      1  0.5385800000000  0.4835980000000  0.4995420000000 1.0
C      1  0.4835980000000  0.4614200000000  0.4995420000000 1.0
C      1  0.5385800000000  0.5164020000000  0.4995420000000 1.0
C      1  0.4835980000000  0.5385800000000  0.4995420000000 1.0
C      1  0.4614200000000  0.4835980000000  0.4995420000000 1.0
C      1  0.5164020000000  0.4614200000000  0.4995420000000 1.0
C      1  0.5159870000000  0.5832340000000  0.5227510000000 1.0
C      1  0.5832340000000  0.4840130000000  0.5227510000000 1.0
C      1  0.4840130000000  0.4167660000000  0.5227510000000 1.0
C      1  0.4167660000000  0.5159870000000  0.5227510000000 1.0
C      1  0.4840130000000  0.5832340000000  0.5227510000000 1.0
C      1  0.4167660000000  0.4840130000000  0.5227510000000 1.0
C      1  0.5159870000000  0.4167660000000  0.5227510000000 1.0
C      1  0.5832340000000  0.5159870000000  0.5227510000000 1.0
C      1  0.5534420000000  0.5216440000000  0.5260030000000 1.0
C      1  0.5216440000000  0.4465580000000  0.5260030000000 1.0
C      1  0.4465580000000  0.4783560000000  0.5260030000000 1.0
C      1  0.4783560000000  0.5534420000000  0.5260030000000 1.0
C      1  0.4465580000000  0.5216440000000  0.5260030000000 1.0
C      1  0.4783560000000  0.4465580000000  0.5260030000000 1.0
C      1  0.5534420000000  0.4783560000000  0.5260030000000 1.0
C      1  0.5216440000000  0.5534420000000  0.5260030000000 1.0
C      1  0.4395390000000  0.5269930000000  0.4771520000000 1.0
C      1  0.5269930000000  0.5604610000000  0.4771520000000 1.0
C      1  0.5604610000000  0.4730070000000  0.4771520000000 1.0
C      1  0.4730070000000  0.4395390000000  0.4771520000000 1.0
C      1  0.5604610000000  0.5269930000000  0.4771520000000 1.0
C      1  0.4730070000000  0.5604610000000  0.4771520000000 1.0
C      1  0.4395390000000  0.4730070000000  0.4771520000000 1.0
C      1  0.5269930000000  0.4395390000000  0.4771520000000 1.0
C      1  0.4625500000000  0.5150000000000  0.4575810000000 1.0
C      1  0.5150000000000  0.5374500000000  0.4575810000000 1.0
C      1  0.5374500000000  0.4850000000000  0.4575810000000 1.0
C      1  0.4850000000000  0.4625500000000  0.4575810000000 1.0
C      1  0.5374500000000  0.5150000000000  0.4575810000000 1.0
C      1  0.4850000000000  0.5374500000000  0.4575810000000 1.0
C      1  0.4625500000000  0.4850000000000  0.4575810000000 1.0
C      1  0.5150000000000  0.4625500000000  0.4575810000000 1.0
C      1  0.4434850000000  0.5565150000000  0.4755170000000 1.0
C      1  0.5565150000000  0.5565150000000  0.4755170000000 1.0
C      1  0.5565150000000  0.4434850000000  0.4755170000000 1.0
C      1  0.4434850000000  0.4434850000000  0.4755170000000 1.0
END
