TITL C-3985244-725-102 -8.55203638329483e-05 125000 -304.611737268745 0 0 60 (D2) n - 1
REM
REM in /home/nfs/bkarasulu/CARBON/AIRSS/Generating-Clusters/TERSOFF/Higher-Symm/Only-C60
REM
REM
REM
REM
REM
REM ./C.cell (28575a23ae977d3b5fae324c64b13b57)
REM
REM compiler GCC version 9.2.1 20190827 (Red Hat 9.2.1-1)
REM options -cpp -mtune=generic -march=x86-64 -g -O0 -fpre-include=/usr/include/finclude/math-vector-fortran.h
REM seed -63208028 902724803 -471725514 -1717299696 -1808746389 -988749735 826385180 102937351 15263726 1988080550 482310689 -375250903 -1956771608 226639378 -1308582969 -122653459 -1242340296 37323139 619732475 1848134292 208223178 1151263662 -745221166 1491039713 58269570 -515527814 1616787908 760036464 690488022 1734587571 -794679460 -103093338 278563464
REM
CELL 1.54180   50.00000   50.00000   50.00000   90.00000   90.00000   90.00000
LATT -1
SFAC C  
C      1  0.5531880000000  0.5412720000000  0.5071240000000 1.0
C      1  0.4468280000000  0.5412590000000  0.4928660000000 1.0
C      1  0.4468410000000  0.4587440000000  0.5071350000000 1.0
C      1  0.5531760000000  0.4587410000000  0.4928840000000 1.0
C      1  0.4947920000000  0.5394940000000  0.4675210000000 1.0
C      1  0.5052070000000  0.5395070000000  0.5324740000000 1.0
C      1  0.5052300000000  0.4605600000000  0.4675320000000 1.0
C      1  0.4947740000000  0.4605550000000  0.5324930000000 1.0
C      1  0.5281660000000  0.4622910000000  0.4481710000000 1.0
C      1  0.4718320000000  0.4622930000000  0.5518510000000 1.0
C      1  0.4718300000000  0.5377240000000  0.4481580000000 1.0
C      1  0.5281670000000  0.5377420000000  0.5518230000000 1.0
C      1  0.4322270000000  0.4778480000000  0.4871110000000 1.0
C      1  0.5677890000000  0.4778480000000  0.5129160000000 1.0
C      1  0.5677620000000  0.5220920000000  0.4871460000000 1.0
C      1  0.4322360000000  0.5221040000000  0.5128580000000 1.0
C      1  0.4758850000000  0.4862500000000  0.5721000000000 1.0
C      1  0.5241030000000  0.4862560000000  0.4279080000000 1.0
C      1  0.5241110000000  0.5137040000000  0.5719800000000 1.0
C      1  0.4758840000000  0.5137200000000  0.4279790000000 1.0
C      1  0.4576860000000  0.5038860000000  0.5526010000000 1.0
C      1  0.5423080000000  0.5038890000000  0.4473910000000 1.0
C      1  0.5421390000000  0.4960450000000  0.5523770000000 1.0
C      1  0.4577920000000  0.4960750000000  0.4475550000000 1.0
C      1  0.5085130000000  0.4808120000000  0.5720690000000 1.0
C      1  0.4914790000000  0.4808440000000  0.4279680000000 1.0
C      1  0.4915070000000  0.5190980000000  0.5719580000000 1.0
C      1  0.5084910000000  0.5191190000000  0.4280230000000 1.0
C      1  0.4726550000000  0.5319700000000  0.5071890000000 1.0
C      1  0.5273540000000  0.5319870000000  0.4927950000000 1.0
C      1  0.5273500000000  0.4680700000000  0.5072330000000 1.0
C      1  0.4726590000000  0.4680700000000  0.4928070000000 1.0
C      1  0.4747360000000  0.4664860000000  0.4564580000000 1.0
C      1  0.5252650000000  0.4664640000000  0.5435780000000 1.0
C      1  0.5252720000000  0.5335130000000  0.4564240000000 1.0
C      1  0.4747170000000  0.5335150000000  0.5435330000000 1.0
C      1  0.5128060000000  0.5127600000000  0.5165390000000 1.0
C      1  0.4871980000000  0.5127340000000  0.4834560000000 1.0
C      1  0.4871810000000  0.4873230000000  0.5165350000000 1.0
C      1  0.5128420000000  0.4873130000000  0.4834880000000 1.0
C      1  0.5949030000000  0.4873990000000  0.5071720000000 1.0
C      1  0.4051080000000  0.4874020000000  0.4928490000000 1.0
C      1  0.4051290000000  0.5125250000000  0.5071350000000 1.0
C      1  0.5948670000000  0.5125040000000  0.4928620000000 1.0
C      1  0.5572610000000  0.4602700000000  0.5365390000000 1.0
C      1  0.4427500000000  0.4603050000000  0.4634830000000 1.0
C      1  0.4427410000000  0.5396210000000  0.5365090000000 1.0
C      1  0.5572620000000  0.5396210000000  0.4634850000000 1.0
C      1  0.4943160000000  0.4370920000000  0.5136520000000 1.0
C      1  0.5056870000000  0.4370950000000  0.4863720000000 1.0
C      1  0.5056670000000  0.5629810000000  0.5136380000000 1.0
C      1  0.4943190000000  0.5629700000000  0.4863360000000 1.0
C      1  0.4465970000000  0.4587970000000  0.5367320000000 1.0
C      1  0.5534030000000  0.4587910000000  0.4632890000000 1.0
C      1  0.5534020000000  0.5412620000000  0.5367150000000 1.0
C      1  0.4465950000000  0.5412380000000  0.4632680000000 1.0
C      1  0.4542900000000  0.5022710000000  0.4769030000000 1.0
C      1  0.5457400000000  0.5023040000000  0.5230630000000 1.0
C      1  0.5456390000000  0.4977970000000  0.4767900000000 1.0
C      1  0.4543470000000  0.4977790000000  0.5231990000000 1.0
END
