TITL C-3985244-725-373 0.00379009040784554 125000 -328.199031001808 0 0 60 (C5) n - 1
REM
REM in /home/nfs/bkarasulu/CARBON/AIRSS/Generating-Clusters/TERSOFF/Higher-Symm/Only-C60
REM
REM
REM
REM
REM
REM ./C.cell (28575a23ae977d3b5fae324c64b13b57)
REM
REM compiler GCC version 9.2.1 20190827 (Red Hat 9.2.1-1)
REM options -cpp -mtune=generic -march=x86-64 -g -O0 -fpre-include=/usr/include/finclude/math-vector-fortran.h
REM seed -1803001005 788064799 -441517026 939187809 -184559898 -1822979336 -202333522 -1062098304 747469848 -1509287087 1215503534 -1770202462 -50869156 -343995524 70395218 -347146371 1085334574 165221586 1500090758 222960916 2023753035 345850021 1511010132 -2121269196 -844155125 1242423153 -1141737849 -80792566 -141321379 1376753548 125243289 -226809808 -2122845114
REM
CELL 1.54180   50.00000   50.00000   50.00000   90.00000   90.00000   90.00000
LATT -1
SFAC C  
C      1  0.4748320000000  0.4756050000000  0.4907120000000 1.0
C      1  0.4748640000000  0.5012910000000  0.4739230000000 1.0
C      1  0.4748740000000  0.5252090000000  0.4931690000000 1.0
C      1  0.4748770000000  0.5142820000000  0.5218630000000 1.0
C      1  0.4748650000000  0.4836230000000  0.5203390000000 1.0
C      1  0.5378160000000  0.4327900000000  0.5120090000000 1.0
C      1  0.5378110000000  0.4678090000000  0.4397880000000 1.0
C      1  0.5378140000000  0.5473150000000  0.4507780000000 1.0
C      1  0.5378150000000  0.5614360000000  0.5297900000000 1.0
C      1  0.5378160000000  0.4906530000000  0.5676350000000 1.0
C      1  0.5401950000000  0.4739180000000  0.4864160000000 1.0
C      1  0.5402330000000  0.5048620000000  0.4709700000000 1.0
C      1  0.5402560000000  0.5291080000000  0.4956410000000 1.0
C      1  0.5402460000000  0.5131360000000  0.5263410000000 1.0
C      1  0.5401140000000  0.4789730000000  0.5205460000000 1.0
C      1  0.4597800000000  0.4668860000000  0.5386530000000 1.0
C      1  0.4597870000000  0.4529990000000  0.4804510000000 1.0
C      1  0.4597780000000  0.5040720000000  0.4492600000000 1.0
C      1  0.4597740000000  0.5495140000000  0.4881930000000 1.0
C      1  0.4597760000000  0.5265270000000  0.5434380000000 1.0
C      1  0.5090230000000  0.4768150000000  0.4394890000000 1.0
C      1  0.5090220000000  0.5503850000000  0.4592480000000 1.0
C      1  0.5090200000000  0.5543290000000  0.5353260000000 1.0
C      1  0.5090170000000  0.4831920000000  0.5625880000000 1.0
C      1  0.5090140000000  0.4352880000000  0.5033520000000 1.0
C      1  0.5413520000000  0.4498950000000  0.5362380000000 1.0
C      1  0.5413620000000  0.4500420000000  0.4635360000000 1.0
C      1  0.5413580000000  0.5192330000000  0.4412310000000 1.0
C      1  0.5413560000000  0.5618350000000  0.5001310000000 1.0
C      1  0.5413560000000  0.5189870000000  0.5588430000000 1.0
C      1  0.4646860000000  0.5680010000000  0.5124550000000 1.0
C      1  0.4646890000000  0.5091670000000  0.5685200000000 1.0
C      1  0.4646870000000  0.4376640000000  0.5298930000000 1.0
C      1  0.4646870000000  0.4523070000000  0.4499570000000 1.0
C      1  0.4646850000000  0.5328590000000  0.4391750000000 1.0
C      1  0.5038690000000  0.4560030000000  0.5703150000000 1.0
C      1  0.5038700000000  0.4195210000000  0.4798850000000 1.0
C      1  0.5038700000000  0.4942630000000  0.4172500000000 1.0
C      1  0.5038690000000  0.5769260000000  0.4689740000000 1.0
C      1  0.5038670000000  0.5532780000000  0.5635730000000 1.0
C      1  0.5068520000000  0.5234970000000  0.5204090000000 1.0
C      1  0.5068720000000  0.4878360000000  0.5285980000000 1.0
C      1  0.5070290000000  0.4690460000000  0.4974500000000 1.0
C      1  0.5069100000000  0.4929490000000  0.4696870000000 1.0
C      1  0.5068730000000  0.5266630000000  0.4839550000000 1.0
C      1  0.4533600000000  0.4331210000000  0.5019510000000 1.0
C      1  0.4533590000000  0.4774760000000  0.4369910000000 1.0
C      1  0.4533610000000  0.5529660000000  0.4591080000000 1.0
C      1  0.4533610000000  0.5552580000000  0.5377370000000 1.0
C      1  0.4533630000000  0.4811850000000  0.5642110000000 1.0
C      1  0.4940420000000  0.5394810000000  0.4350500000000 1.0
C      1  0.4940430000000  0.5739710000000  0.5174770000000 1.0
C      1  0.4940420000000  0.5062390000000  0.5757580000000 1.0
C      1  0.4940450000000  0.4298780000000  0.5293400000000 1.0
C      1  0.4940410000000  0.4504300000000  0.4423770000000 1.0
C      1  0.5140940000000  0.5200820000000  0.4232380000000 1.0
C      1  0.5140930000000  0.5792130000000  0.4953790000000 1.0
C      1  0.5140940000000  0.5288750000000  0.5739090000000 1.0
C      1  0.5140940000000  0.4386330000000  0.5503000000000 1.0
C      1  0.5140910000000  0.4332030000000  0.4571810000000 1.0
END
