TITL C-3985250-725-872 2.4978757999171e-08 125000 -247.857137935389 0 0 60 (Td) n - 1
REM
REM in /home/nfs/bkarasulu/CARBON/AIRSS/Generating-Clusters/TERSOFF/Higher-Symm/Only-C60
REM
REM
REM
REM
REM
REM ./C.cell (28575a23ae977d3b5fae324c64b13b57)
REM
REM compiler GCC version 9.2.1 20190827 (Red Hat 9.2.1-1)
REM options -cpp -mtune=generic -march=x86-64 -g -O0 -fpre-include=/usr/include/finclude/math-vector-fortran.h
REM seed 594667659 -1067414583 279756867 -874187732 211763390 431486152 -1453663665 -153337254 1971238337 52523962 788193676 2128971900 1716435571 -1517439935 -797355825 -296946781 -462395400 -121721897 -1504717370 -1547686969 -1224303227 88123465 734054314 -1194145623 370397184 -222986049 1290832118 1315134807 670885130 1472942535 -1067096276 -970363268 949386303
REM
CELL 1.54180   50.00000   50.00000   50.00000   90.00000   90.00000   90.00000
LATT -1
SFAC C  
C      1  0.5257370000000  0.5000590000000  0.5498400000000 1.0
C      1  0.5498400000000  0.5257370000000  0.5000590000000 1.0
C      1  0.5000590000000  0.5498400000000  0.5257370000000 1.0
C      1  0.5257370000000  0.4999410000000  0.4501600000000 1.0
C      1  0.4742630000000  0.4999410000000  0.5498400000000 1.0
C      1  0.4742630000000  0.5000590000000  0.4501600000000 1.0
C      1  0.5498400000000  0.4742630000000  0.4999410000000 1.0
C      1  0.4501600000000  0.4742630000000  0.5000590000000 1.0
C      1  0.4501600000000  0.5257370000000  0.4999410000000 1.0
C      1  0.5000590000000  0.4501600000000  0.4742630000000 1.0
C      1  0.4999410000000  0.4501600000000  0.5257370000000 1.0
C      1  0.4999410000000  0.5498400000000  0.4742630000000 1.0
C      1  0.5257370000000  0.5498400000000  0.5000590000000 1.0
C      1  0.5498400000000  0.5000590000000  0.5257370000000 1.0
C      1  0.5000590000000  0.5257370000000  0.5498400000000 1.0
C      1  0.5257370000000  0.4501600000000  0.4999410000000 1.0
C      1  0.4742630000000  0.5498400000000  0.4999410000000 1.0
C      1  0.4742630000000  0.4501600000000  0.5000590000000 1.0
C      1  0.5498400000000  0.4999410000000  0.4742630000000 1.0
C      1  0.4501600000000  0.5000590000000  0.4742630000000 1.0
C      1  0.4501600000000  0.4999410000000  0.5257370000000 1.0
C      1  0.5000590000000  0.4742630000000  0.4501600000000 1.0
C      1  0.4999410000000  0.5257370000000  0.4501600000000 1.0
C      1  0.4999410000000  0.4742630000000  0.5498400000000 1.0
C      1  0.4770710000000  0.5662850000000  0.4554990000000 1.0
C      1  0.4554990000000  0.4770710000000  0.5662850000000 1.0
C      1  0.5662850000000  0.4554990000000  0.4770710000000 1.0
C      1  0.4770710000000  0.4337150000000  0.5445010000000 1.0
C      1  0.5229290000000  0.4337150000000  0.4554990000000 1.0
C      1  0.5229290000000  0.5662850000000  0.5445010000000 1.0
C      1  0.4554990000000  0.5229290000000  0.4337150000000 1.0
C      1  0.5445010000000  0.5229290000000  0.5662850000000 1.0
C      1  0.5445010000000  0.4770710000000  0.4337150000000 1.0
C      1  0.5662850000000  0.5445010000000  0.5229290000000 1.0
C      1  0.4337150000000  0.5445010000000  0.4770710000000 1.0
C      1  0.4337150000000  0.4554990000000  0.5229290000000 1.0
C      1  0.4770710000000  0.4554990000000  0.5662850000000 1.0
C      1  0.4554990000000  0.5662850000000  0.4770710000000 1.0
C      1  0.5662850000000  0.4770710000000  0.4554990000000 1.0
C      1  0.4770710000000  0.5445010000000  0.4337150000000 1.0
C      1  0.5229290000000  0.4554990000000  0.4337150000000 1.0
C      1  0.5229290000000  0.5445010000000  0.5662850000000 1.0
C      1  0.4554990000000  0.4337150000000  0.5229290000000 1.0
C      1  0.5445010000000  0.5662850000000  0.5229290000000 1.0
C      1  0.5445010000000  0.4337150000000  0.4770710000000 1.0
C      1  0.5662850000000  0.5229290000000  0.5445010000000 1.0
C      1  0.4337150000000  0.4770710000000  0.5445010000000 1.0
C      1  0.4337150000000  0.5229290000000  0.4554990000000 1.0
C      1  0.5805560000000  0.5115800000000  0.4884200000000 1.0
C      1  0.4884200000000  0.5805560000000  0.5115800000000 1.0
C      1  0.5805560000000  0.4884200000000  0.5115800000000 1.0
C      1  0.4194440000000  0.4884200000000  0.4884200000000 1.0
C      1  0.4194440000000  0.5115800000000  0.5115800000000 1.0
C      1  0.4884200000000  0.4194440000000  0.4884200000000 1.0
C      1  0.5115800000000  0.4194440000000  0.5115800000000 1.0
C      1  0.5115800000000  0.5805560000000  0.4884200000000 1.0
C      1  0.5115800000000  0.4884200000000  0.5805560000000 1.0
C      1  0.5115800000000  0.5115800000000  0.4194440000000 1.0
C      1  0.4884200000000  0.5115800000000  0.5805560000000 1.0
C      1  0.4884200000000  0.4884200000000  0.4194440000000 1.0
END
