TITL C-3985255-5397-170 0.00358224687330352 125000 -327.04749322082 0 0 60 (C1) n - 1
REM
REM in /home/nfs/bkarasulu/CARBON/AIRSS/Generating-Clusters/TERSOFF/Higher-Symm/Only-C60
REM
REM
REM
REM
REM
REM ./C.cell (28575a23ae977d3b5fae324c64b13b57)
REM
REM compiler GCC version 9.2.1 20190827 (Red Hat 9.2.1-1)
REM options -cpp -mtune=generic -march=x86-64 -g -O0 -fpre-include=/usr/include/finclude/math-vector-fortran.h
REM seed -166950553 1630031937 1016605227 721600834 -1942728698 -326637284 -1049636226 -295095066 -371663242 -1439300141 1938296448 -1401732411 1492860415 -1193680990 -2143284083 -1908670596 -1174302246 -176377669 -1087135827 -624453916 468306520 249689429 604586297 674678624 471238749 -44594548 311476402 181135525 1524843492 -1507203742 2055750981 -213649678 -1694735626
REM
CELL 1.54180   50.00000   50.00000   50.00000   90.00000   90.00000   90.00000
LATT -1
SFAC C  
C      1  0.4957260000000  0.5498210000000  0.4700020000000 1.0
C      1  0.4628830000000  0.5056540000000  0.4282370000000 1.0
C      1  0.4604060000000  0.4545760000000  0.5254730000000 1.0
C      1  0.5306650000000  0.4777570000000  0.4870780000000 1.0
C      1  0.5062730000000  0.5755390000000  0.5095960000000 1.0
C      1  0.5127230000000  0.5263720000000  0.5738570000000 1.0
C      1  0.5251440000000  0.4472060000000  0.4588240000000 1.0
C      1  0.4857730000000  0.5414740000000  0.5454950000000 1.0
C      1  0.5432240000000  0.5278280000000  0.4760770000000 1.0
C      1  0.5400260000000  0.5572420000000  0.4760840000000 1.0
C      1  0.4999860000000  0.4843160000000  0.5275650000000 1.0
C      1  0.5427980000000  0.4571000000000  0.5354900000000 1.0
C      1  0.5618830000000  0.4617130000000  0.5109410000000 1.0
C      1  0.4724150000000  0.4551640000000  0.4538920000000 1.0
C      1  0.4621870000000  0.5035340000000  0.5622020000000 1.0
C      1  0.5040370000000  0.4901170000000  0.4354560000000 1.0
C      1  0.5205580000000  0.5037460000000  0.5187060000000 1.0
C      1  0.5137770000000  0.5187380000000  0.4345810000000 1.0
C      1  0.5068310000000  0.4784620000000  0.5594410000000 1.0
C      1  0.5427760000000  0.5165100000000  0.4461230000000 1.0
C      1  0.4968360000000  0.4394940000000  0.4653730000000 1.0
C      1  0.4784700000000  0.5852230000000  0.5100290000000 1.0
C      1  0.5530780000000  0.4959980000000  0.5174980000000 1.0
C      1  0.4487190000000  0.4854550000000  0.4934080000000 1.0
C      1  0.4504880000000  0.5235420000000  0.5198970000000 1.0
C      1  0.4583680000000  0.4361270000000  0.4977460000000 1.0
C      1  0.4835330000000  0.4396500000000  0.5397160000000 1.0
C      1  0.4485330000000  0.4980730000000  0.4669570000000 1.0
C      1  0.5200460000000  0.4613000000000  0.5142390000000 1.0
C      1  0.4497240000000  0.4473050000000  0.4716320000000 1.0
C      1  0.5111930000000  0.5520480000000  0.5303480000000 1.0
C      1  0.4942510000000  0.4522730000000  0.5633150000000 1.0
C      1  0.5590830000000  0.5217430000000  0.5020080000000 1.0
C      1  0.4945630000000  0.5020550000000  0.5724200000000 1.0
C      1  0.4887610000000  0.5003770000000  0.4785290000000 1.0
C      1  0.4939700000000  0.5408340000000  0.4423870000000 1.0
C      1  0.5352180000000  0.5347650000000  0.5508670000000 1.0
C      1  0.4792470000000  0.5098390000000  0.5341390000000 1.0
C      1  0.4484910000000  0.5283560000000  0.4666060000000 1.0
C      1  0.4880420000000  0.4287160000000  0.4920850000000 1.0
C      1  0.4562090000000  0.5693080000000  0.5000090000000 1.0
C      1  0.4522640000000  0.5365880000000  0.5517980000000 1.0
C      1  0.5146330000000  0.5691430000000  0.4810380000000 1.0
C      1  0.5580450000000  0.4739420000000  0.4711100000000 1.0
C      1  0.5520560000000  0.4872330000000  0.4443490000000 1.0
C      1  0.5185900000000  0.5014040000000  0.4768820000000 1.0
C      1  0.5501170000000  0.5045040000000  0.5484510000000 1.0
C      1  0.4644400000000  0.5334390000000  0.4392020000000 1.0
C      1  0.5092680000000  0.5293700000000  0.5105820000000 1.0
C      1  0.4575500000000  0.5398930000000  0.4953600000000 1.0
C      1  0.5553410000000  0.5411890000000  0.5251150000000 1.0
C      1  0.4453930000000  0.4804610000000  0.5403900000000 1.0
C      1  0.4353370000000  0.4976100000000  0.5168430000000 1.0
C      1  0.5372680000000  0.4780660000000  0.5569740000000 1.0
C      1  0.5272460000000  0.4706260000000  0.4395350000000 1.0
C      1  0.4866430000000  0.5299650000000  0.4892900000000 1.0
C      1  0.5534390000000  0.4431720000000  0.4809250000000 1.0
C      1  0.4775580000000  0.4764310000000  0.5029220000000 1.0
C      1  0.4752950000000  0.4850990000000  0.4488800000000 1.0
C      1  0.5026030000000  0.4365140000000  0.5160260000000 1.0
END
