TITL C-3985248-2097-41 0.000506830642631623 125000 -300.440439610275 0 0 60 (Cs) n - 1
REM
REM in /home/nfs/bkarasulu/CARBON/AIRSS/Generating-Clusters/TERSOFF/Higher-Symm/Only-C60
REM
REM
REM
REM
REM
REM ./C.cell (28575a23ae977d3b5fae324c64b13b57)
REM
REM compiler GCC version 9.2.1 20190827 (Red Hat 9.2.1-1)
REM options -cpp -mtune=generic -march=x86-64 -g -O0 -fpre-include=/usr/include/finclude/math-vector-fortran.h
REM seed 1395096568 -1436364198 -1624841718 1757851749 -1317211699 423546269 1768561792 1461628560 252145585 207978438 -1887925792 1664230171 -246107166 -2050421751 529400115 238573333 1779706630 -1166605744 -680889626 -1754589550 -8670207 1866381674 -827591158 948814215 2142171304 -1099928678 484672136 -1785929354 484086403 -1376778966 -1433060117 1489877071 -1909801629
REM
CELL 1.54180   50.00000   50.00000   50.00000   90.00000   90.00000   90.00000
LATT -1
SFAC C  
C      1  0.4853940000000  0.5747540000000  0.5392070000000 1.0
C      1  0.4849090000000  0.5607760000000  0.4411870000000 1.0
C      1  0.4832010000000  0.4643000000000  0.4231480000000 1.0
C      1  0.4826440000000  0.4165960000000  0.5093850000000 1.0
C      1  0.4829230000000  0.4845810000000  0.5819100000000 1.0
C      1  0.4854370000000  0.4252530000000  0.5391650000000 1.0
C      1  0.4849070000000  0.4392230000000  0.4411900000000 1.0
C      1  0.4832040000000  0.5356980000000  0.4231460000000 1.0
C      1  0.4826650000000  0.5834020000000  0.5094050000000 1.0
C      1  0.4829250000000  0.5154210000000  0.5819120000000 1.0
C      1  0.4430490000000  0.4832510000000  0.4530870000000 1.0
C      1  0.4437840000000  0.4529010000000  0.5019330000000 1.0
C      1  0.4413960000000  0.4848140000000  0.5482100000000 1.0
C      1  0.4431440000000  0.5431080000000  0.5318280000000 1.0
C      1  0.4429140000000  0.5420920000000  0.4688570000000 1.0
C      1  0.4430500000000  0.5167440000000  0.4530830000000 1.0
C      1  0.4437810000000  0.5470960000000  0.5019320000000 1.0
C      1  0.4413930000000  0.5151850000000  0.5482070000000 1.0
C      1  0.4431400000000  0.4568920000000  0.5318200000000 1.0
C      1  0.4429080000000  0.4579170000000  0.4688490000000 1.0
C      1  0.5143230000000  0.5174830000000  0.5783590000000 1.0
C      1  0.5138220000000  0.5788320000000  0.5084220000000 1.0
C      1  0.5145680000000  0.5325450000000  0.4267280000000 1.0
C      1  0.5165740000000  0.4387040000000  0.4463890000000 1.0
C      1  0.5172830000000  0.4299250000000  0.5416620000000 1.0
C      1  0.5143250000000  0.4825170000000  0.5783600000000 1.0
C      1  0.5137790000000  0.4211810000000  0.5084830000000 1.0
C      1  0.5145670000000  0.4674550000000  0.4267280000000 1.0
C      1  0.5165710000000  0.5612960000000  0.4463910000000 1.0
C      1  0.5172740000000  0.5700780000000  0.5416580000000 1.0
C      1  0.5295550000000  0.4826310000000  0.5506510000000 1.0
C      1  0.5337600000000  0.5435000000000  0.5332170000000 1.0
C      1  0.5326170000000  0.5442160000000  0.4682840000000 1.0
C      1  0.5296440000000  0.4838200000000  0.4490870000000 1.0
C      1  0.5273720000000  0.4481440000000  0.4996070000000 1.0
C      1  0.5295560000000  0.5173680000000  0.5506520000000 1.0
C      1  0.5337600000000  0.4564980000000  0.5332170000000 1.0
C      1  0.5326170000000  0.4557830000000  0.4682850000000 1.0
C      1  0.5296440000000  0.5161810000000  0.4490870000000 1.0
C      1  0.5273780000000  0.5518540000000  0.4996060000000 1.0
C      1  0.4630710000000  0.4294230000000  0.4922100000000 1.0
C      1  0.4626880000000  0.4699450000000  0.5665420000000 1.0
C      1  0.4640540000000  0.5585260000000  0.5515530000000 1.0
C      1  0.4633410000000  0.5665230000000  0.4605740000000 1.0
C      1  0.4622810000000  0.4843120000000  0.4276400000000 1.0
C      1  0.4630630000000  0.5705660000000  0.4921990000000 1.0
C      1  0.4626890000000  0.5300560000000  0.5665370000000 1.0
C      1  0.4640690000000  0.4414650000000  0.5515420000000 1.0
C      1  0.4633420000000  0.4334800000000  0.4605730000000 1.0
C      1  0.4622800000000  0.5156930000000  0.4276420000000 1.0
C      1  0.5592090000000  0.4507500000000  0.5003380000000 1.0
C      1  0.5622900000000  0.4842800000000  0.5480250000000 1.0
C      1  0.5691980000000  0.5402840000000  0.5283380000000 1.0
C      1  0.5686390000000  0.5400590000000  0.4716010000000 1.0
C      1  0.5623440000000  0.4840550000000  0.4520250000000 1.0
C      1  0.5592100000000  0.5492490000000  0.5003370000000 1.0
C      1  0.5622900000000  0.5157200000000  0.5480250000000 1.0
C      1  0.5691980000000  0.4597160000000  0.5283380000000 1.0
C      1  0.5686390000000  0.4599410000000  0.4716010000000 1.0
C      1  0.5623440000000  0.5159450000000  0.4520250000000 1.0
END
