TITL C-3985259-1859-964 0.00198597666815356 125000 -303.113512230244 0 0 60 (D5) n - 1
REM
REM in /home/nfs/bkarasulu/CARBON/AIRSS/Generating-Clusters/TERSOFF/Higher-Symm/Only-C60
REM
REM
REM
REM
REM
REM ./C.cell (28575a23ae977d3b5fae324c64b13b57)
REM
REM compiler GCC version 9.2.1 20190827 (Red Hat 9.2.1-1)
REM options -cpp -mtune=generic -march=x86-64 -g -O0 -fpre-include=/usr/include/finclude/math-vector-fortran.h
REM seed 467919889 -1578638993 -479200328 2023865911 280592703 -916000918 -718826599 -36547069 1722435005 -1478213868 -117914074 -1776596557 461700653 152307488 1800920396 1206071310 1951856631 -33110185 -241480831 264918264 1354077517 -2009175884 1729549760 1104643219 2025436432 -1333575506 680011280 746989375 1723879349 -966455844 241089122 -863605655 1284205518
REM
CELL 1.54180   50.00000   50.00000   50.00000   90.00000   90.00000   90.00000
LATT -1
SFAC C  
C      1  0.4979630000000  0.5265310000000  0.4567920000000 1.0
C      1  0.4741020000000  0.5063050000000  0.4567980000000 1.0
C      1  0.4859900000000  0.4773300000000  0.4567740000000 1.0
C      1  0.5171770000000  0.4797360000000  0.4567910000000 1.0
C      1  0.5245520000000  0.5101060000000  0.4568370000000 1.0
C      1  0.5020830000000  0.5265290000000  0.5473340000000 1.0
C      1  0.5259190000000  0.5062830000000  0.5473370000000 1.0
C      1  0.5139900000000  0.4773400000000  0.5473150000000 1.0
C      1  0.4828140000000  0.4797670000000  0.5473320000000 1.0
C      1  0.4755040000000  0.5101450000000  0.5473290000000 1.0
C      1  0.4816920000000  0.5682830000000  0.5207150000000 1.0
C      1  0.4295790000000  0.5036460000000  0.5207090000000 1.0
C      1  0.4747230000000  0.4340960000000  0.5207180000000 1.0
C      1  0.5549430000000  0.4553580000000  0.5207850000000 1.0
C      1  0.5594690000000  0.5385750000000  0.5207800000000 1.0
C      1  0.5182020000000  0.5682990000000  0.4833660000000 1.0
C      1  0.5704660000000  0.5036090000000  0.4833510000000 1.0
C      1  0.5253650000000  0.4340420000000  0.4833820000000 1.0
C      1  0.4449270000000  0.4553300000000  0.4833570000000 1.0
C      1  0.4404280000000  0.5385150000000  0.4833570000000 1.0
C      1  0.4635400000000  0.4562470000000  0.5433460000000 1.0
C      1  0.5304220000000  0.4517510000000  0.5434880000000 1.0
C      1  0.5553170000000  0.5140680000000  0.5435160000000 1.0
C      1  0.5037540000000  0.5569060000000  0.5434650000000 1.0
C      1  0.4471670000000  0.5211920000000  0.5433400000000 1.0
C      1  0.5364130000000  0.4561940000000  0.4606960000000 1.0
C      1  0.4695080000000  0.4517110000000  0.4605940000000 1.0
C      1  0.4446760000000  0.5141150000000  0.4605170000000 1.0
C      1  0.4962800000000  0.5569020000000  0.4605880000000 1.0
C      1  0.5528980000000  0.5210790000000  0.4607330000000 1.0
C      1  0.5662060000000  0.5469180000000  0.4801680000000 1.0
C      1  0.4759040000000  0.5774830000000  0.4801720000000 1.0
C      1  0.4188030000000  0.5010280000000  0.4802210000000 1.0
C      1  0.4739700000000  0.4230960000000  0.4802140000000 1.0
C      1  0.5650810000000  0.4514780000000  0.4801740000000 1.0
C      1  0.4337210000000  0.5468860000000  0.5239330000000 1.0
C      1  0.5241640000000  0.5774970000000  0.5238620000000 1.0
C      1  0.5811260000000  0.5009350000000  0.5238770000000 1.0
C      1  0.5260800000000  0.4231580000000  0.5239240000000 1.0
C      1  0.4349000000000  0.4515030000000  0.5239110000000 1.0
C      1  0.5141370000000  0.4805990000000  0.5023490000000 1.0
C      1  0.5000230000000  0.5239280000000  0.5020240000000 1.0
C      1  0.4859470000000  0.4806080000000  0.5013480000000 1.0
C      1  0.5227950000000  0.5074060000000  0.5027480000000 1.0
C      1  0.4772490000000  0.5074340000000  0.5011980000000 1.0
C      1  0.4698870000000  0.4587160000000  0.5019510000000 1.0
C      1  0.5301210000000  0.4586920000000  0.5021130000000 1.0
C      1  0.5000110000000  0.5510910000000  0.5020640000000 1.0
C      1  0.5485610000000  0.5159090000000  0.5021460000000 1.0
C      1  0.4514330000000  0.5159280000000  0.5019500000000 1.0
C      1  0.5459990000000  0.5633180000000  0.5020790000000 1.0
C      1  0.4539890000000  0.5632410000000  0.5020220000000 1.0
C      1  0.5000500000000  0.4218530000000  0.5020120000000 1.0
C      1  0.4257080000000  0.4758190000000  0.5019520000000 1.0
C      1  0.5743230000000  0.4757520000000  0.5020420000000 1.0
C      1  0.4114380000000  0.5286530000000  0.5021940000000 1.0
C      1  0.5546910000000  0.4246660000000  0.5019820000000 1.0
C      1  0.5885460000000  0.5286730000000  0.5019450000000 1.0
C      1  0.4999420000000  0.5930730000000  0.5021020000000 1.0
C      1  0.4453320000000  0.4246680000000  0.5021310000000 1.0
END
