TITL C-3985253-1688-502 0.000713885836494154 125000 -326.733176501375 0 0 60 (C3) n - 1
REM
REM in /home/nfs/bkarasulu/CARBON/AIRSS/Generating-Clusters/TERSOFF/Higher-Symm/Only-C60
REM
REM
REM
REM
REM
REM ./C.cell (28575a23ae977d3b5fae324c64b13b57)
REM
REM compiler GCC version 9.2.1 20190827 (Red Hat 9.2.1-1)
REM options -cpp -mtune=generic -march=x86-64 -g -O0 -fpre-include=/usr/include/finclude/math-vector-fortran.h
REM seed -376604803 103967714 -248642921 1548835181 -1941459829 -1804786750 1829314936 -1737862265 1736848125 1491928838 -1510877215 1148344102 -490677337 646107811 -398437860 -638659839 154680288 -1574090313 -2120646548 1822106711 1248443375 -1638028375 -1706644357 -1949616078 1276386122 1987130329 1801186232 1936196586 2114397719 1050113383 1830211237 86044531 -481846732
REM
CELL 1.54180   50.00000   50.00000   50.00000   90.00000   90.00000   90.00000
LATT -1
SFAC C  
C      1  0.5212830000000  0.4777560000000  0.5208680000000 1.0
C      1  0.5074340000000  0.4777630000000  0.4711350000000 1.0
C      1  0.4712910000000  0.4777650000000  0.5080020000000 1.0
C      1  0.5711850000000  0.5071710000000  0.4784160000000 1.0
C      1  0.4457170000000  0.5071630000000  0.4491540000000 1.0
C      1  0.4831050000000  0.5071620000000  0.5724310000000 1.0
C      1  0.5657950000000  0.5322990000000  0.4945380000000 1.0
C      1  0.4623710000000  0.5323070000000  0.4457420000000 1.0
C      1  0.4718240000000  0.5323060000000  0.5597140000000 1.0
C      1  0.5462170000000  0.4521300000000  0.4632230000000 1.0
C      1  0.4450560000000  0.4521290000000  0.4783530000000 1.0
C      1  0.5087210000000  0.4521240000000  0.5584090000000 1.0
C      1  0.5100200000000  0.5158020000000  0.4363200000000 1.0
C      1  0.4398420000000  0.5158100000000  0.5231530000000 1.0
C      1  0.5501370000000  0.5158090000000  0.5405250000000 1.0
C      1  0.5467850000000  0.4854270000000  0.5406240000000 1.0
C      1  0.5117820000000  0.4854340000000  0.4391740000000 1.0
C      1  0.4414280000000  0.4854290000000  0.5202080000000 1.0
C      1  0.4448350000000  0.5290390000000  0.5486980000000 1.0
C      1  0.5697550000000  0.5290390000000  0.5234200000000 1.0
C      1  0.4854050000000  0.5290370000000  0.4278760000000 1.0
C      1  0.4655620000000  0.4847790000000  0.4536580000000 1.0
C      1  0.4770910000000  0.4847860000000  0.5529940000000 1.0
C      1  0.5573240000000  0.4847740000000  0.4933320000000 1.0
C      1  0.5417490000000  0.4772950000000  0.4469580000000 1.0
C      1  0.4331940000000  0.4773000000000  0.4903750000000 1.0
C      1  0.5250660000000  0.4772880000000  0.5626750000000 1.0
C      1  0.5062860000000  0.4395930000000  0.5298640000000 1.0
C      1  0.5227230000000  0.4395960000000  0.4796250000000 1.0
C      1  0.4709970000000  0.4395970000000  0.4905150000000 1.0
C      1  0.4649510000000  0.4510390000000  0.4496930000000 1.0
C      1  0.4739590000000  0.4510360000000  0.5555020000000 1.0
C      1  0.5610930000000  0.4510620000000  0.4948200000000 1.0
C      1  0.4913250000000  0.4904360000000  0.5263310000000 1.0
C      1  0.5271430000000  0.4904450000000  0.4943520000000 1.0
C      1  0.4815400000000  0.4904410000000  0.4793220000000 1.0
C      1  0.5690230000000  0.4717270000000  0.5234610000000 1.0
C      1  0.4858020000000  0.4717390000000  0.4284970000000 1.0
C      1  0.4451770000000  0.4717410000000  0.5480470000000 1.0
C      1  0.5286340000000  0.4457320000000  0.5098240000000 1.0
C      1  0.4941890000000  0.4457330000000  0.4702820000000 1.0
C      1  0.4771770000000  0.4457280000000  0.5199020000000 1.0
C      1  0.4383970000000  0.5051260000000  0.4784100000000 1.0
C      1  0.5120990000000  0.5051230000000  0.5641490000000 1.0
C      1  0.5494970000000  0.5051200000000  0.4574410000000 1.0
C      1  0.5250150000000  0.5254920000000  0.4622960000000 1.0
C      1  0.4548620000000  0.5254820000000  0.4972000000000 1.0
C      1  0.5201440000000  0.5254880000000  0.5404890000000 1.0
C      1  0.4830640000000  0.5199840000000  0.5175440000000 1.0
C      1  0.5236620000000  0.5199690000000  0.5059000000000 1.0
C      1  0.4932770000000  0.5199770000000  0.4765580000000 1.0
C      1  0.4936000000000  0.5698490000000  0.5284160000000 1.0
C      1  0.5278070000000  0.5698540000000  0.4913350000000 1.0
C      1  0.4785900000000  0.5698540000000  0.4802510000000 1.0
C      1  0.4733800000000  0.5773060000000  0.5083260000000 1.0
C      1  0.5205200000000  0.5773060000000  0.5188920000000 1.0
C      1  0.5061000000000  0.5773060000000  0.4727850000000 1.0
C      1  0.4710880000000  0.5420000000000  0.4741310000000 1.0
C      1  0.4920470000000  0.5420000000000  0.5379660000000 1.0
C      1  0.5368530000000  0.5420000000000  0.4878970000000 1.0
END
