TITL C-3985259-1859-690 7.8749076897719e-08 125000 -332.388985322404 0 0 60 (D2d) n - 1
REM
REM in /home/nfs/bkarasulu/CARBON/AIRSS/Generating-Clusters/TERSOFF/Higher-Symm/Only-C60
REM
REM
REM
REM
REM
REM ./C.cell (28575a23ae977d3b5fae324c64b13b57)
REM
REM compiler GCC version 9.2.1 20190827 (Red Hat 9.2.1-1)
REM options -cpp -mtune=generic -march=x86-64 -g -O0 -fpre-include=/usr/include/finclude/math-vector-fortran.h
REM seed 1424973288 -1230846410 -1344747065 1432736102 -292075686 1473994338 1033590387 2013866376 -1658826538 -799585438 -1644013857 -1545740188 -305441282 1880065737 -1434355170 747875155 -381288463 -305745488 1313510649 666313050 1469384639 -492544908 1660415428 -341396734 -1960251923 -365654855 -971703000 2083185510 -1584733863 1453969742 1983891097 -341760148 516740536
REM
CELL 1.54180   50.00000   50.00000   50.00000   90.00000   90.00000   90.00000
LATT -1
SFAC C  
C      1  0.5755720000000  0.4641080000000  0.4830430000000 1.0
C      1  0.4244280000000  0.4641080000000  0.5169570000000 1.0
C      1  0.5755720000000  0.5358920000000  0.5169570000000 1.0
C      1  0.4244280000000  0.5358920000000  0.4830430000000 1.0
C      1  0.4830430000000  0.4641080000000  0.5755720000000 1.0
C      1  0.5169570000000  0.4641080000000  0.4244280000000 1.0
C      1  0.5169570000000  0.5358920000000  0.5755720000000 1.0
C      1  0.4830430000000  0.5358920000000  0.4244280000000 1.0
C      1  0.4843660000000  0.4910400000000  0.5625430000000 1.0
C      1  0.5156340000000  0.4910400000000  0.4374570000000 1.0
C      1  0.4843660000000  0.5089600000000  0.4374570000000 1.0
C      1  0.5156340000000  0.5089600000000  0.5625430000000 1.0
C      1  0.5625430000000  0.4910400000000  0.4843660000000 1.0
C      1  0.4374570000000  0.4910400000000  0.5156340000000 1.0
C      1  0.4374570000000  0.5089600000000  0.4843660000000 1.0
C      1  0.5625430000000  0.5089600000000  0.5156340000000 1.0
C      1  0.4939750000000  0.5382960000000  0.5265480000000 1.0
C      1  0.5060250000000  0.5382960000000  0.4734520000000 1.0
C      1  0.4939750000000  0.4617040000000  0.4734520000000 1.0
C      1  0.5060250000000  0.4617040000000  0.5265480000000 1.0
C      1  0.5265480000000  0.5382960000000  0.4939750000000 1.0
C      1  0.4734520000000  0.5382960000000  0.5060250000000 1.0
C      1  0.4734520000000  0.4617040000000  0.4939750000000 1.0
C      1  0.5265480000000  0.4617040000000  0.5060250000000 1.0
C      1  0.4909840000000  0.4874720000000  0.5308090000000 1.0
C      1  0.5090160000000  0.4874720000000  0.4691910000000 1.0
C      1  0.4909840000000  0.5125280000000  0.4691910000000 1.0
C      1  0.5090160000000  0.5125280000000  0.5308090000000 1.0
C      1  0.5308090000000  0.4874720000000  0.4909840000000 1.0
C      1  0.4691910000000  0.4874720000000  0.5090160000000 1.0
C      1  0.4691910000000  0.5125280000000  0.4909840000000 1.0
C      1  0.5308090000000  0.5125280000000  0.5090160000000 1.0
C      1  0.4393180000000  0.5609610000000  0.4816820000000 1.0
C      1  0.5606820000000  0.5609610000000  0.5183180000000 1.0
C      1  0.4393180000000  0.4390390000000  0.5183180000000 1.0
C      1  0.5606820000000  0.4390390000000  0.4816820000000 1.0
C      1  0.4816820000000  0.5609610000000  0.4393180000000 1.0
C      1  0.5183180000000  0.5609610000000  0.5606820000000 1.0
C      1  0.5183180000000  0.4390390000000  0.4393180000000 1.0
C      1  0.4816820000000  0.4390390000000  0.5606820000000 1.0
C      1  0.4890800000000  0.4379000000000  0.5323150000000 1.0
C      1  0.5109200000000  0.4379000000000  0.4676850000000 1.0
C      1  0.4890800000000  0.5621000000000  0.4676850000000 1.0
C      1  0.5109200000000  0.5621000000000  0.5323150000000 1.0
C      1  0.5323150000000  0.4379000000000  0.4890800000000 1.0
C      1  0.4676850000000  0.4379000000000  0.5109200000000 1.0
C      1  0.4676850000000  0.5621000000000  0.4890800000000 1.0
C      1  0.5323150000000  0.5621000000000  0.5109200000000 1.0
C      1  0.4598050000000  0.4924400000000  0.4347660000000 1.0
C      1  0.5401950000000  0.4924400000000  0.5652340000000 1.0
C      1  0.4598050000000  0.5075600000000  0.5652340000000 1.0
C      1  0.5401950000000  0.5075600000000  0.4347660000000 1.0
C      1  0.4347660000000  0.4924400000000  0.4598050000000 1.0
C      1  0.5652340000000  0.4924400000000  0.5401950000000 1.0
C      1  0.5652340000000  0.5075600000000  0.4598050000000 1.0
C      1  0.4347660000000  0.5075600000000  0.5401950000000 1.0
C      1  0.5468510000000  0.4634230000000  0.5468510000000 1.0
C      1  0.4531490000000  0.5365770000000  0.5468510000000 1.0
C      1  0.5468510000000  0.5365770000000  0.4531490000000 1.0
C      1  0.4531490000000  0.4634230000000  0.4531490000000 1.0
END
