TITL C-3985259-1859-335 0.000282475832423411 125000 -313.020136058274 0 0 60 (C1) n - 1
REM
REM in /home/nfs/bkarasulu/CARBON/AIRSS/Generating-Clusters/TERSOFF/Higher-Symm/Only-C60
REM
REM
REM
REM
REM
REM ./C.cell (28575a23ae977d3b5fae324c64b13b57)
REM
REM compiler GCC version 9.2.1 20190827 (Red Hat 9.2.1-1)
REM options -cpp -mtune=generic -march=x86-64 -g -O0 -fpre-include=/usr/include/finclude/math-vector-fortran.h
REM seed 1871181301 541568782 1649866841 1697579765 -1045348812 1261768298 1716512418 584823770 -420372554 468955382 1224352650 -560634888 1744635655 1170633991 428843541 653136275 1597424148 464700708 2128385352 -724073452 1077663150 1004887949 30955700 -593030736 -1994464777 26299191 -1165600662 -1318453549 -970276051 374550697 205072679 1039591836 -855071401
REM
CELL 1.54180   50.00000   50.00000   50.00000   90.00000   90.00000   90.00000
LATT -1
SFAC C  
C      1  0.5315360000000  0.4854970000000  0.5628780000000 1.0
C      1  0.4499640000000  0.4846240000000  0.5502480000000 1.0
C      1  0.4381790000000  0.4852510000000  0.4673210000000 1.0
C      1  0.5111520000000  0.4849190000000  0.4298390000000 1.0
C      1  0.5695890000000  0.4851540000000  0.4898330000000 1.0
C      1  0.4777580000000  0.4229450000000  0.4872230000000 1.0
C      1  0.5053480000000  0.4227280000000  0.4750460000000 1.0
C      1  0.5254760000000  0.4225400000000  0.4977010000000 1.0
C      1  0.5102090000000  0.4230630000000  0.5238790000000 1.0
C      1  0.4806720000000  0.4232680000000  0.5173930000000 1.0
C      1  0.4693100000000  0.4478740000000  0.5304520000000 1.0
C      1  0.4617850000000  0.4470520000000  0.4791250000000 1.0
C      1  0.5070140000000  0.4468130000000  0.4568970000000 1.0
C      1  0.5436590000000  0.4461720000000  0.4940860000000 1.0
C      1  0.5188790000000  0.4478110000000  0.5385860000000 1.0
C      1  0.5294800000000  0.5527170000000  0.5071370000000 1.0
C      1  0.5026390000000  0.5532960000000  0.5310590000000 1.0
C      1  0.4720550000000  0.5508080000000  0.5120970000000 1.0
C      1  0.4794850000000  0.5535090000000  0.4769380000000 1.0
C      1  0.5152860000000  0.5506090000000  0.4740490000000 1.0
C      1  0.4826220000000  0.4842350000000  0.5584210000000 1.0
C      1  0.4377970000000  0.4833620000000  0.5013710000000 1.0
C      1  0.4799660000000  0.4844030000000  0.4419380000000 1.0
C      1  0.5494140000000  0.4835470000000  0.4625940000000 1.0
C      1  0.5504990000000  0.4839720000000  0.5348880000000 1.0
C      1  0.4621660000000  0.5361650000000  0.4577360000000 1.0
C      1  0.5317050000000  0.5352330000000  0.4484540000000 1.0
C      1  0.5551290000000  0.5360620000000  0.5122660000000 1.0
C      1  0.5055560000000  0.5363850000000  0.5569910000000 1.0
C      1  0.4441430000000  0.5349260000000  0.5233810000000 1.0
C      1  0.4891440000000  0.4743710000000  0.5255010000000 1.0
C      1  0.4709510000000  0.4727060000000  0.4967760000000 1.0
C      1  0.4934480000000  0.4736740000000  0.4720320000000 1.0
C      1  0.5255430000000  0.4717140000000  0.4850190000000 1.0
C      1  0.5219000000000  0.4728120000000  0.5181180000000 1.0
C      1  0.5554460000000  0.5194790000000  0.5367960000000 1.0
C      1  0.4825130000000  0.5190530000000  0.5645770000000 1.0
C      1  0.4323040000000  0.5178560000000  0.5024640000000 1.0
C      1  0.4764760000000  0.5193070000000  0.4377230000000 1.0
C      1  0.5534510000000  0.5179950000000  0.4584830000000 1.0
C      1  0.5087940000000  0.4659150000000  0.5630590000000 1.0
C      1  0.4426790000000  0.4657870000000  0.5281660000000 1.0
C      1  0.4561290000000  0.4657920000000  0.4534440000000 1.0
C      1  0.5296070000000  0.4659710000000  0.4436170000000 1.0
C      1  0.5629940000000  0.4655760000000  0.5113090000000 1.0
C      1  0.5265450000000  0.5860130000000  0.5062780000000 1.0
C      1  0.5030090000000  0.5866970000000  0.5276160000000 1.0
C      1  0.4766190000000  0.5838780000000  0.5106040000000 1.0
C      1  0.4816270000000  0.5867990000000  0.4794650000000 1.0
C      1  0.5129370000000  0.5837840000000  0.4778400000000 1.0
C      1  0.5248560000000  0.5122090000000  0.4956180000000 1.0
C      1  0.5119660000000  0.5132810000000  0.5225100000000 1.0
C      1  0.4823900000000  0.5182380000000  0.5195920000000 1.0
C      1  0.4778110000000  0.5133470000000  0.4893080000000 1.0
C      1  0.5034890000000  0.5178500000000  0.4740900000000 1.0
C      1  0.5083430000000  0.5152170000000  0.4398080000000 1.0
C      1  0.5560880000000  0.5146700000000  0.4899460000000 1.0
C      1  0.5274920000000  0.5153650000000  0.5505000000000 1.0
C      1  0.4579940000000  0.5150280000000  0.5441220000000 1.0
C      1  0.4489870000000  0.5146790000000  0.4757910000000 1.0
END
