TITL C-3985253-1688-467 -0.00428811166823135 125000 -322.461909525891 0 0 60 (C2h) n - 1
REM
REM in /home/nfs/bkarasulu/CARBON/AIRSS/Generating-Clusters/TERSOFF/Higher-Symm/Only-C60
REM
REM
REM
REM
REM
REM ./C.cell (28575a23ae977d3b5fae324c64b13b57)
REM
REM compiler GCC version 9.2.1 20190827 (Red Hat 9.2.1-1)
REM options -cpp -mtune=generic -march=x86-64 -g -O0 -fpre-include=/usr/include/finclude/math-vector-fortran.h
REM seed 1366922417 -1206612240 1975172013 -1773793624 1705215549 1061211384 1443623642 -1493588251 -1142538596 -449918339 -1735734719 -1071638066 590759087 1242214320 -1881061109 -288430349 -1955817014 784739067 429453065 -236536749 948454919 -576095625 1880804971 308609161 1919682807 1980496700 -1387508200 682389764 -319274381 693958899 -1290440235 -97321071 -443276352
REM
CELL 1.54180   50.00000   50.00000   50.00000   90.00000   90.00000   90.00000
LATT -1
SFAC C  
C      1  0.5592740000000  0.4819400000000  0.4601380000000 1.0
C      1  0.4407370000000  0.4819420000000  0.5398640000000 1.0
C      1  0.5592750000000  0.5180630000000  0.4601370000000 1.0
C      1  0.4407290000000  0.5180520000000  0.5398620000000 1.0
C      1  0.4630370000000  0.5581020000000  0.5052470000000 1.0
C      1  0.5369630000000  0.5581000000000  0.4947540000000 1.0
C      1  0.4630370000000  0.4418980000000  0.5052470000000 1.0
C      1  0.5369640000000  0.4418990000000  0.4947530000000 1.0
C      1  0.5060530000000  0.5154780000000  0.5728450000000 1.0
C      1  0.4939480000000  0.5154760000000  0.4271520000000 1.0
C      1  0.5060540000000  0.4845220000000  0.5728450000000 1.0
C      1  0.4939460000000  0.4845210000000  0.4271550000000 1.0
C      1  0.4588180000000  0.5491040000000  0.5364410000000 1.0
C      1  0.5411720000000  0.5491120000000  0.4635590000000 1.0
C      1  0.4588140000000  0.4509010000000  0.5364430000000 1.0
C      1  0.5411790000000  0.4508950000000  0.4635580000000 1.0
C      1  0.5206550000000  0.4841010000000  0.4445600000000 1.0
C      1  0.4793390000000  0.4841160000000  0.5554360000000 1.0
C      1  0.5206450000000  0.5158740000000  0.4445600000000 1.0
C      1  0.4793440000000  0.5158840000000  0.5554380000000 1.0
C      1  0.4450370000000  0.4848730000000  0.4467480000000 1.0
C      1  0.5549640000000  0.4848720000000  0.5532520000000 1.0
C      1  0.4450390000000  0.5151290000000  0.4467490000000 1.0
C      1  0.5549630000000  0.5151280000000  0.5532520000000 1.0
C      1  0.5259650000000  0.4742550000000  0.5526630000000 1.0
C      1  0.4740350000000  0.4742540000000  0.4473380000000 1.0
C      1  0.5259650000000  0.5257450000000  0.5526620000000 1.0
C      1  0.4740390000000  0.5257470000000  0.4473350000000 1.0
C      1  0.4561290000000  0.5554750000000  0.4749870000000 1.0
C      1  0.5438710000000  0.5554730000000  0.5250140000000 1.0
C      1  0.4561290000000  0.4445270000000  0.4749870000000 1.0
C      1  0.5438710000000  0.4445270000000  0.5250130000000 1.0
C      1  0.5184600000000  0.5551880000000  0.5458190000000 1.0
C      1  0.4815390000000  0.5551900000000  0.4541780000000 1.0
C      1  0.5184600000000  0.4448120000000  0.5458190000000 1.0
C      1  0.4815400000000  0.4448110000000  0.4541800000000 1.0
C      1  0.5578470000000  0.4854310000000  0.5024220000000 1.0
C      1  0.4421530000000  0.4854310000000  0.4975780000000 1.0
C      1  0.5578470000000  0.5145690000000  0.5024220000000 1.0
C      1  0.4421540000000  0.5145700000000  0.4975780000000 1.0
C      1  0.5294910000000  0.4731700000000  0.4971110000000 1.0
C      1  0.4705080000000  0.4731720000000  0.5028900000000 1.0
C      1  0.5294930000000  0.5268280000000  0.4971090000000 1.0
C      1  0.4705090000000  0.5268300000000  0.5028900000000 1.0
C      1  0.4849060000000  0.5574400000000  0.5529510000000 1.0
C      1  0.5150880000000  0.5574710000000  0.4470610000000 1.0
C      1  0.4849060000000  0.4425600000000  0.5529510000000 1.0
C      1  0.5150920000000  0.4425450000000  0.4470540000000 1.0
C      1  0.5628800000000  0.4692940000000  0.5283480000000 1.0
C      1  0.4371200000000  0.4692940000000  0.4716520000000 1.0
C      1  0.5628800000000  0.5307060000000  0.5283490000000 1.0
C      1  0.4371210000000  0.5307070000000  0.4716510000000 1.0
C      1  0.5116770000000  0.4790130000000  0.4734990000000 1.0
C      1  0.4883270000000  0.4790300000000  0.5265000000000 1.0
C      1  0.5116810000000  0.5209830000000  0.4734970000000 1.0
C      1  0.4883270000000  0.5209700000000  0.5264990000000 1.0
C      1  0.5168650000000  0.5153740000000  0.5229570000000 1.0
C      1  0.4831370000000  0.5153750000000  0.4770420000000 1.0
C      1  0.5168640000000  0.4846260000000  0.5229580000000 1.0
C      1  0.4831360000000  0.4846260000000  0.4770420000000 1.0
END
