TITL C-3985244-725-267 -4.84304248730632e-09 125000 -300.271507392545 0 0 60 (T23) n - 1
REM
REM in /home/nfs/bkarasulu/CARBON/AIRSS/Generating-Clusters/TERSOFF/Higher-Symm/Only-C60
REM
REM
REM
REM
REM
REM ./C.cell (28575a23ae977d3b5fae324c64b13b57)
REM
REM compiler GCC version 9.2.1 20190827 (Red Hat 9.2.1-1)
REM options -cpp -mtune=generic -march=x86-64 -g -O0 -fpre-include=/usr/include/finclude/math-vector-fortran.h
REM seed 2080041295 -1036140783 -1044908471 1253805106 2043367340 -503674410 -88633081 253037310 -1854132620 947259375 -1364189762 -1215329295 -2019717869 2083741552 -1746756656 -1667471081 1756302471 1184154274 -531532542 -1044640002 1459047784 1112599462 1820851260 1554305259 -912603430 998504255 1544700917 1969415110 1096101697 -942489771 -318910168 2072746971 1064632253
REM
CELL 1.54180   50.00000   50.00000   50.00000   90.00000   90.00000   90.00000
LATT -1
SFAC C  
C      1  0.5244740000000  0.4350890000000  0.4807610000000 1.0
C      1  0.4807610000000  0.5244740000000  0.4350890000000 1.0
C      1  0.4350890000000  0.4807610000000  0.5244740000000 1.0
C      1  0.4755260000000  0.5649110000000  0.4807610000000 1.0
C      1  0.4755260000000  0.4350890000000  0.5192390000000 1.0
C      1  0.5244740000000  0.5649110000000  0.5192390000000 1.0
C      1  0.5192390000000  0.4755260000000  0.4350890000000 1.0
C      1  0.5192390000000  0.5244740000000  0.5649110000000 1.0
C      1  0.4807610000000  0.4755260000000  0.5649110000000 1.0
C      1  0.5649110000000  0.5192390000000  0.5244740000000 1.0
C      1  0.5649110000000  0.4807610000000  0.4755260000000 1.0
C      1  0.4350890000000  0.5192390000000  0.4755260000000 1.0
C      1  0.4258530000000  0.4707190000000  0.4747440000000 1.0
C      1  0.4747440000000  0.4258530000000  0.4707190000000 1.0
C      1  0.4707190000000  0.4747440000000  0.4258530000000 1.0
C      1  0.5741470000000  0.5292810000000  0.4747440000000 1.0
C      1  0.5741470000000  0.4707190000000  0.5252560000000 1.0
C      1  0.4258530000000  0.5292810000000  0.5252560000000 1.0
C      1  0.5252560000000  0.5741470000000  0.4707190000000 1.0
C      1  0.5252560000000  0.4258530000000  0.5292810000000 1.0
C      1  0.4747440000000  0.5741470000000  0.5292810000000 1.0
C      1  0.5292810000000  0.5252560000000  0.4258530000000 1.0
C      1  0.5292810000000  0.4747440000000  0.5741470000000 1.0
C      1  0.4707190000000  0.5252560000000  0.5741470000000 1.0
C      1  0.5153840000000  0.5093500000000  0.5380180000000 1.0
C      1  0.5380180000000  0.5153840000000  0.5093500000000 1.0
C      1  0.5093500000000  0.5380180000000  0.5153840000000 1.0
C      1  0.4846160000000  0.4906500000000  0.5380180000000 1.0
C      1  0.4846160000000  0.5093500000000  0.4619820000000 1.0
C      1  0.5153840000000  0.4906500000000  0.4619820000000 1.0
C      1  0.4619820000000  0.4846160000000  0.5093500000000 1.0
C      1  0.4619820000000  0.5153840000000  0.4906500000000 1.0
C      1  0.5380180000000  0.4846160000000  0.4906500000000 1.0
C      1  0.4906500000000  0.4619820000000  0.5153840000000 1.0
C      1  0.4906500000000  0.5380180000000  0.4846160000000 1.0
C      1  0.5093500000000  0.4619820000000  0.4846160000000 1.0
C      1  0.4975700000000  0.4702270000000  0.4166130000000 1.0
C      1  0.4166130000000  0.4975700000000  0.4702270000000 1.0
C      1  0.4702270000000  0.4166130000000  0.4975700000000 1.0
C      1  0.5024300000000  0.5297730000000  0.4166130000000 1.0
C      1  0.5024300000000  0.4702270000000  0.5833870000000 1.0
C      1  0.4975700000000  0.5297730000000  0.5833870000000 1.0
C      1  0.5833870000000  0.5024300000000  0.4702270000000 1.0
C      1  0.5833870000000  0.4975700000000  0.5297730000000 1.0
C      1  0.4166130000000  0.5024300000000  0.5297730000000 1.0
C      1  0.5297730000000  0.5833870000000  0.4975700000000 1.0
C      1  0.5297730000000  0.4166130000000  0.5024300000000 1.0
C      1  0.4702270000000  0.5833870000000  0.5024300000000 1.0
C      1  0.5454250000000  0.5310560000000  0.4825390000000 1.0
C      1  0.4825390000000  0.5454250000000  0.5310560000000 1.0
C      1  0.5310560000000  0.4825390000000  0.5454250000000 1.0
C      1  0.4545750000000  0.4689440000000  0.4825390000000 1.0
C      1  0.4545750000000  0.5310560000000  0.5174610000000 1.0
C      1  0.5454250000000  0.4689440000000  0.5174610000000 1.0
C      1  0.5174610000000  0.4545750000000  0.5310560000000 1.0
C      1  0.5174610000000  0.5454250000000  0.4689440000000 1.0
C      1  0.4825390000000  0.4545750000000  0.4689440000000 1.0
C      1  0.4689440000000  0.5174610000000  0.5454250000000 1.0
C      1  0.4689440000000  0.4825390000000  0.4545750000000 1.0
C      1  0.5310560000000  0.5174610000000  0.4545750000000 1.0
END
