TITL C-3985246-2097-143 -1.10008311245383e-06 125000 -313.148954489656 0 0 60 (C4v) n - 1
REM
REM in /home/nfs/bkarasulu/CARBON/AIRSS/Generating-Clusters/TERSOFF/Higher-Symm/Only-C60
REM
REM
REM
REM
REM
REM ./C.cell (28575a23ae977d3b5fae324c64b13b57)
REM
REM compiler GCC version 9.2.1 20190827 (Red Hat 9.2.1-1)
REM options -cpp -mtune=generic -march=x86-64 -g -O0 -fpre-include=/usr/include/finclude/math-vector-fortran.h
REM seed -696160399 -1890883298 -1333562665 1167946380 842082959 -1734134946 799987912 1794098642 201857358 1841334105 -1063153250 1899341003 -2119067253 -1531452559 1814785332 1973336353 842059673 2143783405 1961602540 -535724208 -1714234987 689387923 -2106347999 664356175 278834992 136881788 -1784762432 1483881941 -185720489 1870477369 1353144885 -992069337 -22860451
REM
CELL 1.54180   50.00000   50.00000   50.00000   90.00000   90.00000   90.00000
LATT -1
SFAC C  
C      1  0.4458950000000  0.5284860000000  0.5437680000000 1.0
C      1  0.4715140000000  0.4458950000000  0.5437680000000 1.0
C      1  0.5541050000000  0.4715140000000  0.5437680000000 1.0
C      1  0.5284860000000  0.5541050000000  0.5437680000000 1.0
C      1  0.4458950000000  0.4715140000000  0.5437680000000 1.0
C      1  0.4715140000000  0.5541050000000  0.5437680000000 1.0
C      1  0.5541050000000  0.5284860000000  0.5437680000000 1.0
C      1  0.5284860000000  0.4458950000000  0.5437680000000 1.0
C      1  0.5781510000000  0.5164210000000  0.5237140000000 1.0
C      1  0.4835790000000  0.5781510000000  0.5237140000000 1.0
C      1  0.4218490000000  0.4835790000000  0.5237140000000 1.0
C      1  0.5164210000000  0.4218490000000  0.5237140000000 1.0
C      1  0.5781510000000  0.4835790000000  0.5237140000000 1.0
C      1  0.4835790000000  0.4218490000000  0.5237140000000 1.0
C      1  0.4218490000000  0.5164210000000  0.5237140000000 1.0
C      1  0.5164210000000  0.5781510000000  0.5237140000000 1.0
C      1  0.5155250000000  0.5366010000000  0.5181190000000 1.0
C      1  0.4633990000000  0.5155250000000  0.5181190000000 1.0
C      1  0.4844750000000  0.4633990000000  0.5181190000000 1.0
C      1  0.5366010000000  0.4844750000000  0.5181190000000 1.0
C      1  0.5155250000000  0.4633990000000  0.5181190000000 1.0
C      1  0.4633990000000  0.4844750000000  0.5181190000000 1.0
C      1  0.4844750000000  0.5366010000000  0.5181190000000 1.0
C      1  0.5366010000000  0.5155250000000  0.5181190000000 1.0
C      1  0.4476320000000  0.4687790000000  0.4694350000000 1.0
C      1  0.5312210000000  0.4476320000000  0.4694350000000 1.0
C      1  0.5523680000000  0.5312210000000  0.4694350000000 1.0
C      1  0.4687790000000  0.5523680000000  0.4694350000000 1.0
C      1  0.4476320000000  0.5312210000000  0.4694350000000 1.0
C      1  0.5312210000000  0.5523680000000  0.4694350000000 1.0
C      1  0.5523680000000  0.4687790000000  0.4694350000000 1.0
C      1  0.4687790000000  0.4476320000000  0.4694350000000 1.0
C      1  0.5166840000000  0.4405470000000  0.4944980000000 1.0
C      1  0.5594530000000  0.5166840000000  0.4944980000000 1.0
C      1  0.4833160000000  0.5594530000000  0.4944980000000 1.0
C      1  0.4405470000000  0.4833160000000  0.4944980000000 1.0
C      1  0.5166840000000  0.5594530000000  0.4944980000000 1.0
C      1  0.5594530000000  0.4833160000000  0.4944980000000 1.0
C      1  0.4833160000000  0.4405470000000  0.4944980000000 1.0
C      1  0.4405470000000  0.5166840000000  0.4944980000000 1.0
C      1  0.4523370000000  0.5150710000000  0.4449350000000 1.0
C      1  0.4849290000000  0.4523370000000  0.4449350000000 1.0
C      1  0.5476630000000  0.4849290000000  0.4449350000000 1.0
C      1  0.5150710000000  0.5476630000000  0.4449350000000 1.0
C      1  0.4523370000000  0.4849290000000  0.4449350000000 1.0
C      1  0.4849290000000  0.5476630000000  0.4449350000000 1.0
C      1  0.5476630000000  0.5150710000000  0.4449350000000 1.0
C      1  0.5150710000000  0.4523370000000  0.4449350000000 1.0
C      1  0.4851090000000  0.4625570000000  0.5681140000000 1.0
C      1  0.5374430000000  0.4851090000000  0.5681140000000 1.0
C      1  0.5148910000000  0.5374430000000  0.5681140000000 1.0
C      1  0.4625570000000  0.5148910000000  0.5681140000000 1.0
C      1  0.4851090000000  0.5374430000000  0.5681140000000 1.0
C      1  0.5374430000000  0.5148910000000  0.5681140000000 1.0
C      1  0.5148910000000  0.4625570000000  0.5681140000000 1.0
C      1  0.4625570000000  0.4851090000000  0.5681140000000 1.0
C      1  0.5182160000000  0.4817840000000  0.4290650000000 1.0
C      1  0.5182160000000  0.5182160000000  0.4290650000000 1.0
C      1  0.4817840000000  0.5182160000000  0.4290650000000 1.0
C      1  0.4817840000000  0.4817840000000  0.4290650000000 1.0
END
