TITL C-3985247-764-20 0.00107443113957066 125000 -330.711645979359 0 0 60 (C3) n - 1
REM
REM in /home/nfs/bkarasulu/CARBON/AIRSS/Generating-Clusters/TERSOFF/Higher-Symm/Only-C60
REM
REM
REM
REM
REM
REM ./C.cell (28575a23ae977d3b5fae324c64b13b57)
REM
REM compiler GCC version 9.2.1 20190827 (Red Hat 9.2.1-1)
REM options -cpp -mtune=generic -march=x86-64 -g -O0 -fpre-include=/usr/include/finclude/math-vector-fortran.h
REM seed 1690321759 -873895281 1628232707 1504063101 1886770580 -527268729 -809393072 -1947074707 -451397317 1470485923 1599938564 1859752438 369303174 1438057812 -692269802 -1907666030 1802182558 -2082251596 -1450601912 1486373606 -1510192992 405598471 826321430 1027694968 1869104881 -440470324 -2013988409 1462081557 1078657265 850424166 9022495 -1682489624 -459166144
REM
CELL 1.54180   50.00000   50.00000   50.00000   90.00000   90.00000   90.00000
LATT -1
SFAC C  
C      1  0.4479400000000  0.5469320000000  0.4725430000000 1.0
C      1  0.5022590000000  0.5469410000000  0.5588060000000 1.0
C      1  0.5498090000000  0.5469340000000  0.4686300000000 1.0
C      1  0.5472520000000  0.4983370000000  0.4508790000000 1.0
C      1  0.4338380000000  0.4983520000000  0.4836490000000 1.0
C      1  0.5189050000000  0.4983460000000  0.5654580000000 1.0
C      1  0.4824450000000  0.5234690000000  0.4314160000000 1.0
C      1  0.4493660000000  0.5234690000000  0.5495010000000 1.0
C      1  0.5681750000000  0.5234690000000  0.5190910000000 1.0
C      1  0.5424030000000  0.5176680000000  0.4737320000000 1.0
C      1  0.4560640000000  0.5176760000000  0.4764220000000 1.0
C      1  0.5015340000000  0.5176810000000  0.5498370000000 1.0
C      1  0.5250540000000  0.5516460000000  0.4466740000000 1.0
C      1  0.4412940000000  0.5516460000000  0.5049670000000 1.0
C      1  0.5336540000000  0.5516520000000  0.5483560000000 1.0
C      1  0.5109300000000  0.5621140000000  0.4727240000000 1.0
C      1  0.4709200000000  0.5621210000000  0.5041840000000 1.0
C      1  0.5181710000000  0.5621310000000  0.5230900000000 1.0
C      1  0.4739030000000  0.5057800000000  0.5525920000000 1.0
C      1  0.5585950000000  0.5057780000000  0.4962890000000 1.0
C      1  0.4675140000000  0.5057770000000  0.4511280000000 1.0
C      1  0.4797170000000  0.4776130000000  0.4867050000000 1.0
C      1  0.4986290000000  0.4776020000000  0.5241980000000 1.0
C      1  0.5216650000000  0.4776300000000  0.4890850000000 1.0
C      1  0.4470220000000  0.4834090000000  0.5238650000000 1.0
C      1  0.5471340000000  0.4834500000000  0.5339510000000 1.0
C      1  0.5058300000000  0.4834230000000  0.4422260000000 1.0
C      1  0.4816200000000  0.4511390000000  0.4541500000000 1.0
C      1  0.4695450000000  0.4511110000000  0.5387470000000 1.0
C      1  0.5488550000000  0.4511430000000  0.5070240000000 1.0
C      1  0.5469420000000  0.4539250000000  0.5370720000000 1.0
C      1  0.5086430000000  0.4538910000000  0.4408990000000 1.0
C      1  0.4445010000000  0.4538730000000  0.5220370000000 1.0
C      1  0.5470280000000  0.5015790000000  0.5572720000000 1.0
C      1  0.5260690000000  0.5015600000000  0.4306490000000 1.0
C      1  0.4268960000000  0.5015630000000  0.5121030000000 1.0
C      1  0.4823490000000  0.4444300000000  0.4868400000000 1.0
C      1  0.4978290000000  0.4443830000000  0.5215930000000 1.0
C      1  0.5197320000000  0.4443710000000  0.4915400000000 1.0
C      1  0.4403850000000  0.4706130000000  0.4727510000000 1.0
C      1  0.5062080000000  0.4705970000000  0.5652000000000 1.0
C      1  0.5533840000000  0.4705780000000  0.4620230000000 1.0
C      1  0.5065380000000  0.5205540000000  0.4765820000000 1.0
C      1  0.4764410000000  0.5205570000000  0.5060630000000 1.0
C      1  0.5170200000000  0.5205670000000  0.5173740000000 1.0
C      1  0.4839180000000  0.5489650000000  0.4761540000000 1.0
C      1  0.4873840000000  0.5489770000000  0.5258580000000 1.0
C      1  0.5287150000000  0.5489810000000  0.4979980000000 1.0
C      1  0.5189100000000  0.4488390000000  0.5470680000000 1.0
C      1  0.5312900000000  0.4488160000000  0.4601870000000 1.0
C      1  0.4497820000000  0.4488260000000  0.4927940000000 1.0
C      1  0.4739800000000  0.4909860000000  0.5133550000000 1.0
C      1  0.5245650000000  0.4910510000000  0.5158690000000 1.0
C      1  0.5014500000000  0.4910220000000  0.4708020000000 1.0
C      1  0.4758090000000  0.4738770000000  0.5592250000000 1.0
C      1  0.5633970000000  0.4738930000000  0.4913210000000 1.0
C      1  0.4608030000000  0.4739240000000  0.4494570000000 1.0
C      1  0.5531220000000  0.5281270000000  0.5448860000000 1.0
C      1  0.5123130000000  0.5281170000000  0.4315500000000 1.0
C      1  0.4345560000000  0.5281190000000  0.5235630000000 1.0
END
