TITL C-3985244-725-299 9.37017420253252e-05 125000 -333.273043564504 0 0 60 (S4) n - 1
REM
REM in /home/nfs/bkarasulu/CARBON/AIRSS/Generating-Clusters/TERSOFF/Higher-Symm/Only-C60
REM
REM
REM
REM
REM
REM ./C.cell (28575a23ae977d3b5fae324c64b13b57)
REM
REM compiler GCC version 9.2.1 20190827 (Red Hat 9.2.1-1)
REM options -cpp -mtune=generic -march=x86-64 -g -O0 -fpre-include=/usr/include/finclude/math-vector-fortran.h
REM seed -2125925530 -1830701590 665838549 757403004 1398125242 -1005493602 -823034546 -1926845802 -1287239821 1450086741 -420230793 -1081081730 -2086362225 -620455863 625550150 -1660653658 -1091277171 -1407213432 1286282963 670548368 -1038777423 -2011763290 64523836 -1950718655 -1751493357 1749905433 -388562394 -956842247 -1200319176 335542281 546390548 -843281726 116177953
REM
CELL 1.54180   50.00000   50.00000   50.00000   90.00000   90.00000   90.00000
LATT -1
SFAC C  
C      1  0.4598070000000  0.4591630000000  0.5484440000000 1.0
C      1  0.5401940000000  0.4515500000000  0.4591650000000 1.0
C      1  0.4598050000000  0.5408350000000  0.4515510000000 1.0
C      1  0.5401950000000  0.5484480000000  0.5408350000000 1.0
C      1  0.4591660000000  0.4663600000000  0.4567980000000 1.0
C      1  0.5408310000000  0.5432000000000  0.4663580000000 1.0
C      1  0.4591680000000  0.5336410000000  0.5432060000000 1.0
C      1  0.5408360000000  0.4567970000000  0.5336430000000 1.0
C      1  0.4982790000000  0.5595260000000  0.4904020000000 1.0
C      1  0.5017330000000  0.5096090000000  0.5595500000000 1.0
C      1  0.4982770000000  0.4404740000000  0.5095980000000 1.0
C      1  0.5017240000000  0.4904010000000  0.4404720000000 1.0
C      1  0.4887600000000  0.4634390000000  0.4448690000000 1.0
C      1  0.5112380000000  0.5551330000000  0.4634380000000 1.0
C      1  0.4887610000000  0.5365640000000  0.5551320000000 1.0
C      1  0.5112400000000  0.4448680000000  0.5365630000000 1.0
C      1  0.4307720000000  0.5274820000000  0.4951800000000 1.0
C      1  0.5692290000000  0.5048180000000  0.5274810000000 1.0
C      1  0.4307720000000  0.4725200000000  0.5048160000000 1.0
C      1  0.5692300000000  0.4951810000000  0.4725190000000 1.0
C      1  0.5271700000000  0.5197720000000  0.4817270000000 1.0
C      1  0.4728270000000  0.5182820000000  0.5197690000000 1.0
C      1  0.5271770000000  0.4802240000000  0.5182740000000 1.0
C      1  0.4728170000000  0.4817310000000  0.4802270000000 1.0
C      1  0.4874030000000  0.4930980000000  0.5236880000000 1.0
C      1  0.5125940000000  0.4762940000000  0.4931100000000 1.0
C      1  0.4874070000000  0.5068930000000  0.4762990000000 1.0
C      1  0.5125910000000  0.5237100000000  0.5068900000000 1.0
C      1  0.5572430000000  0.4528970000000  0.5076550000000 1.0
C      1  0.4427590000000  0.4923470000000  0.4528960000000 1.0
C      1  0.5572400000000  0.5471010000000  0.4923480000000 1.0
C      1  0.4427640000000  0.5076490000000  0.5470940000000 1.0
C      1  0.4820900000000  0.5331260000000  0.4957050000000 1.0
C      1  0.5179050000000  0.5043020000000  0.5331330000000 1.0
C      1  0.4820950000000  0.4668710000000  0.5043030000000 1.0
C      1  0.5179050000000  0.4956950000000  0.4668700000000 1.0
C      1  0.4561600000000  0.4607580000000  0.5191120000000 1.0
C      1  0.5438400000000  0.4808860000000  0.4607580000000 1.0
C      1  0.4561590000000  0.5392420000000  0.4808850000000 1.0
C      1  0.5438410000000  0.5191120000000  0.5392420000000 1.0
C      1  0.4914530000000  0.5453460000000  0.4423000000000 1.0
C      1  0.5085480000000  0.5577010000000  0.5453460000000 1.0
C      1  0.4914550000000  0.4546550000000  0.5577010000000 1.0
C      1  0.5085440000000  0.4422990000000  0.4546550000000 1.0
C      1  0.5607120000000  0.4784070000000  0.5448270000000 1.0
C      1  0.4392890000000  0.4551750000000  0.4784050000000 1.0
C      1  0.5607110000000  0.5215930000000  0.4551750000000 1.0
C      1  0.4392830000000  0.5448250000000  0.5215940000000 1.0
C      1  0.5453090000000  0.4373850000000  0.4859840000000 1.0
C      1  0.4546910000000  0.5140180000000  0.4373850000000 1.0
C      1  0.5453060000000  0.5626120000000  0.5140160000000 1.0
C      1  0.4546950000000  0.4859890000000  0.5626130000000 1.0
C      1  0.4289600000000  0.4977160000000  0.4791600000000 1.0
C      1  0.5710350000000  0.5208350000000  0.4977160000000 1.0
C      1  0.4289660000000  0.5022870000000  0.5208340000000 1.0
C      1  0.5710390000000  0.4791620000000  0.5022840000000 1.0
C      1  0.4858420000000  0.5134560000000  0.4310900000000 1.0
C      1  0.5141570000000  0.5689120000000  0.5134540000000 1.0
C      1  0.4858420000000  0.4865460000000  0.5689130000000 1.0
C      1  0.5141590000000  0.4310900000000  0.4865450000000 1.0
END
