TITL C-3985250-725-870 1.9510348182049e-07 125000 -364.504116639586 0 0 60 (D5d) n - 1
REM
REM in /home/nfs/bkarasulu/CARBON/AIRSS/Generating-Clusters/TERSOFF/Higher-Symm/Only-C60
REM
REM
REM
REM
REM
REM ./C.cell (28575a23ae977d3b5fae324c64b13b57)
REM
REM compiler GCC version 9.2.1 20190827 (Red Hat 9.2.1-1)
REM options -cpp -mtune=generic -march=x86-64 -g -O0 -fpre-include=/usr/include/finclude/math-vector-fortran.h
REM seed -1333268482 109289309 -1839222062 1314762935 773725536 2012507075 977856266 726693302 994162981 -1062771679 -1076377315 1961322299 -338861001 191906129 -1737902882 1915552208 1452951521 1328680537 -1339938680 -1796432332 1789788801 -1295099012 1039029955 -504764023 -1112627571 -1093513717 553677101 -434760703 2011480933 -2140589404 -211496276 501911258 -1670564987
REM
CELL 1.54180   50.00000   50.00000   50.00000   90.00000   90.00000   90.00000
LATT -1
SFAC C  
C      1  0.5417500000000  0.4402710000000  0.5406270000000 1.0
C      1  0.4582500000000  0.4277980000000  0.4977600000000 1.0
C      1  0.5417500000000  0.4429050000000  0.4557490000000 1.0
C      1  0.4582510000000  0.4798190000000  0.4306400000000 1.0
C      1  0.5417500000000  0.5244420000000  0.4320250000000 1.0
C      1  0.4582500000000  0.5597290000000  0.4593730000000 1.0
C      1  0.5417500000000  0.5722020000000  0.5022400000000 1.0
C      1  0.4582500000000  0.5570950000000  0.5442510000000 1.0
C      1  0.5417490000000  0.5201810000000  0.5693600000000 1.0
C      1  0.4582500000000  0.4755580000000  0.5679750000000 1.0
C      1  0.5000000000000  0.4148110000000  0.5247870000000 1.0
C      1  0.5000000000000  0.4165120000000  0.4699800000000 1.0
C      1  0.5000010000000  0.4501020000000  0.4266400000000 1.0
C      1  0.5000000000000  0.5027510000000  0.4113210000000 1.0
C      1  0.5000000000000  0.5543500000000  0.4298740000000 1.0
C      1  0.5000000000000  0.5851890000000  0.4752130000000 1.0
C      1  0.5000000000000  0.5834880000000  0.5300200000000 1.0
C      1  0.4999990000000  0.5498980000000  0.5733600000000 1.0
C      1  0.5000000000000  0.4972490000000  0.5886790000000 1.0
C      1  0.5000000000000  0.4456500000000  0.5701260000000 1.0
C      1  0.4864310000000  0.4205410000000  0.4975350000000 1.0
C      1  0.5135690000000  0.4371650000000  0.4513010000000 1.0
C      1  0.4864320000000  0.4777900000000  0.4236680000000 1.0
C      1  0.5135690000000  0.5268990000000  0.4251910000000 1.0
C      1  0.4864310000000  0.5657330000000  0.4552890000000 1.0
C      1  0.5135690000000  0.5794590000000  0.5024650000000 1.0
C      1  0.4864310000000  0.5628350000000  0.5486990000000 1.0
C      1  0.5135680000000  0.5222100000000  0.5763320000000 1.0
C      1  0.4864310000000  0.4731010000000  0.5748090000000 1.0
C      1  0.5135690000000  0.4342670000000  0.5447110000000 1.0
C      1  0.5491740000000  0.5123450000000  0.5424290000000 1.0
C      1  0.4508260000000  0.4850480000000  0.5415810000000 1.0
C      1  0.5491740000000  0.4634630000000  0.5248520000000 1.0
C      1  0.4508260000000  0.4558330000000  0.4986300000000 1.0
C      1  0.5491740000000  0.4650740000000  0.4729310000000 1.0
C      1  0.4508260000000  0.4876550000000  0.4575710000000 1.0
C      1  0.5491740000000  0.5149520000000  0.4584190000000 1.0
C      1  0.4508260000000  0.5365370000000  0.4751480000000 1.0
C      1  0.5491740000000  0.5441670000000  0.5013700000000 1.0
C      1  0.4508260000000  0.5349260000000  0.5270690000000 1.0
C      1  0.5362620000000  0.5318570000000  0.5246900000000 1.0
C      1  0.4637370000000  0.5112600000000  0.5386990000000 1.0
C      1  0.5362630000000  0.4863630000000  0.5379280000000 1.0
C      1  0.4637370000000  0.4666740000000  0.5226680000000 1.0
C      1  0.5362630000000  0.4597150000000  0.4987500000000 1.0
C      1  0.4637380000000  0.4681430000000  0.4753100000000 1.0
C      1  0.5362630000000  0.4887400000000  0.4613010000000 1.0
C      1  0.4637370000000  0.5136370000000  0.4620720000000 1.0
C      1  0.5362630000000  0.5333260000000  0.4773320000000 1.0
C      1  0.4637370000000  0.5402850000000  0.5012500000000 1.0
C      1  0.4931380000000  0.5116850000000  0.5401590000000 1.0
C      1  0.5068610000000  0.4858480000000  0.5393580000000 1.0
C      1  0.4931390000000  0.4654170000000  0.5235230000000 1.0
C      1  0.5068610000000  0.4581960000000  0.4987030000000 1.0
C      1  0.4931390000000  0.4669420000000  0.4743790000000 1.0
C      1  0.5068620000000  0.4883150000000  0.4598410000000 1.0
C      1  0.4931390000000  0.5141520000000  0.4606420000000 1.0
C      1  0.5068610000000  0.5345830000000  0.4764770000000 1.0
C      1  0.4931390000000  0.5418040000000  0.5012970000000 1.0
C      1  0.5068610000000  0.5330580000000  0.5256210000000 1.0
END
