TITL C-3985245-9316-231 0.00989956125531301 125000 -313.578849292901 0 0 60 (C2) n - 1
REM
REM in /home/nfs/bkarasulu/CARBON/AIRSS/Generating-Clusters/TERSOFF/Higher-Symm/Only-C60
REM
REM
REM
REM
REM
REM ./C.cell (28575a23ae977d3b5fae324c64b13b57)
REM
REM compiler GCC version 9.2.1 20190827 (Red Hat 9.2.1-1)
REM options -cpp -mtune=generic -march=x86-64 -g -O0 -fpre-include=/usr/include/finclude/math-vector-fortran.h
REM seed -884767253 1233829826 1017042518 -579724613 -1751426231 824818680 -214279244 917694915 185578269 1023615893 -387317650 -729650160 625452359 -266730399 -1830209232 1714764842 365871542 1434464855 1992314485 -1477245563 1049883085 996257395 1683804834 -1444710962 2114349374 668395700 621778843 -893297295 1485438260 -1682149298 63261849 -1361887706 704758450
REM
CELL 1.54180   50.00000   50.00000   50.00000   90.00000   90.00000   90.00000
LATT -1
SFAC C  
C      1  0.5437290000000  0.5422680000000  0.4603280000000 1.0
C      1  0.4562710000000  0.4577320000000  0.4603280000000 1.0
C      1  0.4335340000000  0.5155670000000  0.4592700000000 1.0
C      1  0.5664660000000  0.4844330000000  0.4592700000000 1.0
C      1  0.5596420000000  0.4540350000000  0.4692080000000 1.0
C      1  0.4403580000000  0.5459650000000  0.4692080000000 1.0
C      1  0.5279730000000  0.5660760000000  0.4648140000000 1.0
C      1  0.4720270000000  0.4339240000000  0.4648140000000 1.0
C      1  0.5586800000000  0.5481490000000  0.5109030000000 1.0
C      1  0.4413200000000  0.4518510000000  0.5109030000000 1.0
C      1  0.5623490000000  0.5347800000000  0.4821660000000 1.0
C      1  0.4376510000000  0.4652200000000  0.4821660000000 1.0
C      1  0.4972360000000  0.4349060000000  0.5396940000000 1.0
C      1  0.5027640000000  0.5650940000000  0.5396940000000 1.0
C      1  0.5233840000000  0.4507660000000  0.5472230000000 1.0
C      1  0.4766160000000  0.5492340000000  0.5472230000000 1.0
C      1  0.5636330000000  0.4679980000000  0.4977610000000 1.0
C      1  0.4363670000000  0.5320020000000  0.4977610000000 1.0
C      1  0.5233320000000  0.4993900000000  0.5705310000000 1.0
C      1  0.4766690000000  0.5006120000000  0.5705210000000 1.0
C      1  0.4671860000000  0.4909320000000  0.4971360000000 1.0
C      1  0.5328140000000  0.5090680000000  0.4971360000000 1.0
C      1  0.4697660000000  0.5536470000000  0.4634240000000 1.0
C      1  0.5302340000000  0.4463530000000  0.4634240000000 1.0
C      1  0.4510500000000  0.5073410000000  0.5378300000000 1.0
C      1  0.5489500000000  0.4926590000000  0.5378300000000 1.0
C      1  0.5664500000000  0.5019960000000  0.4871250000000 1.0
C      1  0.4335500000000  0.4980040000000  0.4871250000000 1.0
C      1  0.5469150000000  0.4594330000000  0.5239900000000 1.0
C      1  0.4530850000000  0.5405670000000  0.5239900000000 1.0
C      1  0.4824660000000  0.5253160000000  0.4605630000000 1.0
C      1  0.5175340000000  0.4746840000000  0.4605630000000 1.0
C      1  0.4824760000000  0.5113340000000  0.5303290000000 1.0
C      1  0.5175220000000  0.4886630000000  0.5303190000000 1.0
C      1  0.5327230000000  0.5203700000000  0.4437280000000 1.0
C      1  0.4672770000000  0.4796300000000  0.4437280000000 1.0
C      1  0.5119940000000  0.4863750000000  0.4942290000000 1.0
C      1  0.4880060000000  0.5136250000000  0.4942290000000 1.0
C      1  0.4765560000000  0.5427900000000  0.5033760000000 1.0
C      1  0.5234440000000  0.4572100000000  0.5033760000000 1.0
C      1  0.5125890000000  0.5700380000000  0.4890000000000 1.0
C      1  0.4874110000000  0.4299620000000  0.4890000000000 1.0
C      1  0.4599080000000  0.5078920000000  0.4492200000000 1.0
C      1  0.5400920000000  0.4921080000000  0.4492200000000 1.0
C      1  0.4832740000000  0.5669900000000  0.4873350000000 1.0
C      1  0.5167260000000  0.4330100000000  0.4873350000000 1.0
C      1  0.4775780000000  0.4713440000000  0.5186950000000 1.0
C      1  0.5224220000000  0.5286560000000  0.5186950000000 1.0
C      1  0.5033060000000  0.5153980000000  0.4402350000000 1.0
C      1  0.4966940000000  0.4846020000000  0.4402350000000 1.0
C      1  0.5667920000000  0.5195810000000  0.5298550000000 1.0
C      1  0.4332080000000  0.4804190000000  0.5298550000000 1.0
C      1  0.5244600000000  0.5590740000000  0.5148920000000 1.0
C      1  0.4755400000000  0.4409260000000  0.5148920000000 1.0
C      1  0.5116500000000  0.5174140000000  0.5459180000000 1.0
C      1  0.4883500000000  0.4825860000000  0.5459180000000 1.0
C      1  0.4765100000000  0.5309440000000  0.5713270000000 1.0
C      1  0.5234900000000  0.4690560000000  0.5713270000000 1.0
C      1  0.4137280000000  0.4919230000000  0.5099070000000 1.0
C      1  0.5862720000000  0.5080770000000  0.5099070000000 1.0
END
