TITL C-3985252-168-7 -4.85585855980755e-08 125000 -345.287858492362 0 0 60 (C5) n - 1
REM
REM in /home/nfs/bkarasulu/CARBON/AIRSS/Generating-Clusters/TERSOFF/Higher-Symm/Only-C60
REM
REM
REM
REM
REM
REM ./C.cell (28575a23ae977d3b5fae324c64b13b57)
REM
REM compiler GCC version 9.2.1 20190827 (Red Hat 9.2.1-1)
REM options -cpp -mtune=generic -march=x86-64 -g -O0 -fpre-include=/usr/include/finclude/math-vector-fortran.h
REM seed -1384835792 796031209 596990022 603516818 1858713192 112252535 559948511 -645883373 -1146107773 -926262242 -959309758 1819872290 666504641 -271576828 -1201091670 -117008364 -814431238 -1240875956 -1638018633 146640934 984325269 575417739 -650449587 804363687 742856448 395984341 146705793 992131703 -1391623915 -1497133117 -832511232 572295437 -652917730
REM
CELL 1.54180   50.00000   50.00000   50.00000   90.00000   90.00000   90.00000
LATT -1
SFAC C  
C      1  0.4584710000000  0.5110130000000  0.4509260000000 1.0
C      1  0.4766930000000  0.4639070000000  0.4509260000000 1.0
C      1  0.5271240000000  0.4666800000000  0.4509260000000 1.0
C      1  0.5400710000000  0.5155000000000  0.4509260000000 1.0
C      1  0.4976410000000  0.5428990000000  0.4509260000000 1.0
C      1  0.5416990000000  0.4769630000000  0.5417600000000 1.0
C      1  0.5347950000000  0.5325390000000  0.5417600000000 1.0
C      1  0.4798060000000  0.5431470000000  0.5417600000000 1.0
C      1  0.4527240000000  0.4941280000000  0.5417600000000 1.0
C      1  0.4909760000000  0.4532230000000  0.5417600000000 1.0
C      1  0.5229520000000  0.4874890000000  0.5645520000000 1.0
C      1  0.5189920000000  0.5179630000000  0.5645520000000 1.0
C      1  0.4887850000000  0.5236130000000  0.5645520000000 1.0
C      1  0.4740770000000  0.4966310000000  0.5645520000000 1.0
C      1  0.4951940000000  0.4743050000000  0.5645520000000 1.0
C      1  0.4776280000000  0.5623900000000  0.4588520000000 1.0
C      1  0.4337510000000  0.4980030000000  0.4588520000000 1.0
C      1  0.4814270000000  0.4363760000000  0.4588520000000 1.0
C      1  0.5547710000000  0.4626750000000  0.4588520000000 1.0
C      1  0.5524230000000  0.5405560000000  0.4588520000000 1.0
C      1  0.4480530000000  0.5509970000000  0.5013210000000 1.0
C      1  0.4354470000000  0.4663540000000  0.5013210000000 1.0
C      1  0.5120510000000  0.4282090000000  0.5013210000000 1.0
C      1  0.5720010000000  0.4892760000000  0.5013210000000 1.0
C      1  0.5324480000000  0.5651630000000  0.5013210000000 1.0
C      1  0.4304490000000  0.4944360000000  0.4877070000000 1.0
C      1  0.4837990000000  0.4321340000000  0.4877070000000 1.0
C      1  0.5595380000000  0.4636210000000  0.4877070000000 1.0
C      1  0.5529970000000  0.5453820000000  0.4877070000000 1.0
C      1  0.4732160000000  0.5644270000000  0.4877070000000 1.0
C      1  0.5243180000000  0.5098140000000  0.4256180000000 1.0
C      1  0.4981810000000  0.5261600000000  0.4256180000000 1.0
C      1  0.4745580000000  0.5063540000000  0.4256180000000 1.0
C      1  0.4860950000000  0.4777660000000  0.4256180000000 1.0
C      1  0.5168480000000  0.4799050000000  0.4256180000000 1.0
C      1  0.4301570000000  0.5197460000000  0.5048500000000 1.0
C      1  0.4596370000000  0.4396770000000  0.5048500000000 1.0
C      1  0.5448980000000  0.4429720000000  0.5048500000000 1.0
C      1  0.5681110000000  0.5250780000000  0.5048500000000 1.0
C      1  0.4971970000000  0.5725270000000  0.5048500000000 1.0
C      1  0.4762490000000  0.5079520000000  0.4746200000000 1.0
C      1  0.4850980000000  0.4798690000000  0.4746200000000 1.0
C      1  0.5145400000000  0.4796060000000  0.4746200000000 1.0
C      1  0.5238880000000  0.5075270000000  0.4746200000000 1.0
C      1  0.5002230000000  0.5250450000000  0.4746200000000 1.0
C      1  0.5417730000000  0.4477770000000  0.5356770000000 1.0
C      1  0.5625750000000  0.5235900000000  0.5356770000000 1.0
C      1  0.4969010000000  0.5668020000000  0.5356770000000 1.0
C      1  0.4355100000000  0.5176960000000  0.5356770000000 1.0
C      1  0.4632420000000  0.4441340000000  0.5356770000000 1.0
C      1  0.5218700000000  0.4878500000000  0.5211110000000 1.0
C      1  0.5183140000000  0.5170450000000  0.5211110000000 1.0
C      1  0.4894490000000  0.5226850000000  0.5211110000000 1.0
C      1  0.4751650000000  0.4969750000000  0.5211110000000 1.0
C      1  0.4952030000000  0.4754460000000  0.5211110000000 1.0
C      1  0.5271270000000  0.5602500000000  0.5330050000000 1.0
C      1  0.4510820000000  0.5444180000000  0.5330050000000 1.0
C      1  0.4426400000000  0.4672020000000  0.5330050000000 1.0
C      1  0.5134680000000  0.4353120000000  0.5330050000000 1.0
C      1  0.5656840000000  0.4928190000000  0.5330050000000 1.0
END
