TITL C-3985259-1859-7 0.00722511524849859 125000 -269.306657977634 0 0 60 (C6h) n - 1
REM
REM in /home/nfs/bkarasulu/CARBON/AIRSS/Generating-Clusters/TERSOFF/Higher-Symm/Only-C60
REM
REM
REM
REM
REM
REM ./C.cell (28575a23ae977d3b5fae324c64b13b57)
REM
REM compiler GCC version 9.2.1 20190827 (Red Hat 9.2.1-1)
REM options -cpp -mtune=generic -march=x86-64 -g -O0 -fpre-include=/usr/include/finclude/math-vector-fortran.h
REM seed -1432808784 856652761 -1048945770 -1779078893 1082741520 -881649902 148881177 142562021 -74364259 1341044980 -1527175706 -1378216314 -1615144644 758746198 1233328307 -371627801 -1841667945 -109879365 -636929902 -263676843 -699953624 -1818456684 -1704123908 1793996987 1732483124 -451025847 -1477616737 -2060568515 -1400924050 -494697897 -963971591 1882637787 51338041
REM
CELL 1.54180   50.00000   50.00000   50.00000   90.00000   90.00000   90.00000
LATT -1
SFAC C  
C      1  0.5172210000000  0.4484350000000  0.5581840000000 1.0
C      1  0.5172210000000  0.5246000000000  0.5737470000000 1.0
C      1  0.5172230000000  0.5761680000000  0.5155660000000 1.0
C      1  0.5172210000000  0.5515650000000  0.4418160000000 1.0
C      1  0.5172210000000  0.4754000000000  0.4262530000000 1.0
C      1  0.5172230000000  0.4238320000000  0.4844340000000 1.0
C      1  0.4827790000000  0.4484350000000  0.5581840000000 1.0
C      1  0.4827790000000  0.5246000000000  0.5737470000000 1.0
C      1  0.4827770000000  0.5761680000000  0.5155660000000 1.0
C      1  0.4827790000000  0.5515650000000  0.4418160000000 1.0
C      1  0.4827790000000  0.4754000000000  0.4262530000000 1.0
C      1  0.4827770000000  0.4238320000000  0.4844340000000 1.0
C      1  0.4568040000000  0.4880490000000  0.5344220000000 1.0
C      1  0.4568070000000  0.5238390000000  0.5275610000000 1.0
C      1  0.4568020000000  0.5357840000000  0.4931390000000 1.0
C      1  0.4568040000000  0.5119510000000  0.4655780000000 1.0
C      1  0.4568070000000  0.4761610000000  0.4724390000000 1.0
C      1  0.4568020000000  0.4642160000000  0.5068610000000 1.0
C      1  0.5431960000000  0.4880490000000  0.5344220000000 1.0
C      1  0.5431930000000  0.5238390000000  0.5275610000000 1.0
C      1  0.5431980000000  0.5357840000000  0.4931390000000 1.0
C      1  0.5431960000000  0.5119510000000  0.4655780000000 1.0
C      1  0.5431930000000  0.4761610000000  0.4724390000000 1.0
C      1  0.5431980000000  0.4642160000000  0.5068610000000 1.0
C      1  0.4844340000000  0.4661950000000  0.5277730000000 1.0
C      1  0.4844360000000  0.5071580000000  0.5431320000000 1.0
C      1  0.4844360000000  0.5409470000000  0.5153840000000 1.0
C      1  0.4844340000000  0.5338050000000  0.4722270000000 1.0
C      1  0.4844360000000  0.4928420000000  0.4568680000000 1.0
C      1  0.4844360000000  0.4590530000000  0.4846160000000 1.0
C      1  0.5155660000000  0.4661950000000  0.5277730000000 1.0
C      1  0.5155640000000  0.5071580000000  0.5431320000000 1.0
C      1  0.5155640000000  0.5409470000000  0.5153840000000 1.0
C      1  0.5155660000000  0.5338050000000  0.4722270000000 1.0
C      1  0.5155640000000  0.4928420000000  0.4568680000000 1.0
C      1  0.5155640000000  0.4590530000000  0.4846160000000 1.0
C      1  0.5319050000000  0.4558410000000  0.4458650000000 1.0
C      1  0.5319090000000  0.4310390000000  0.5111780000000 1.0
C      1  0.5319020000000  0.4752030000000  0.5653140000000 1.0
C      1  0.5319050000000  0.5441590000000  0.5541350000000 1.0
C      1  0.5319090000000  0.5689610000000  0.4888220000000 1.0
C      1  0.5319020000000  0.5247970000000  0.4346860000000 1.0
C      1  0.4680950000000  0.4558410000000  0.4458650000000 1.0
C      1  0.4680910000000  0.4310390000000  0.5111780000000 1.0
C      1  0.4680980000000  0.4752030000000  0.5653140000000 1.0
C      1  0.4680950000000  0.5441590000000  0.5541350000000 1.0
C      1  0.4680910000000  0.5689610000000  0.4888220000000 1.0
C      1  0.4680980000000  0.5247970000000  0.4346860000000 1.0
C      1  0.4835830000000  0.4249900000000  0.5357010000000 1.0
C      1  0.4835750000000  0.4934050000000  0.5828340000000 1.0
C      1  0.4835800000000  0.5684260000000  0.5471110000000 1.0
C      1  0.4835830000000  0.5750100000000  0.4642990000000 1.0
C      1  0.4835750000000  0.5065950000000  0.4171660000000 1.0
C      1  0.4835800000000  0.4315740000000  0.4528890000000 1.0
C      1  0.5164170000000  0.4249900000000  0.5357010000000 1.0
C      1  0.5164250000000  0.4934050000000  0.5828340000000 1.0
C      1  0.5164200000000  0.5684260000000  0.5471110000000 1.0
C      1  0.5164170000000  0.5750100000000  0.4642990000000 1.0
C      1  0.5164250000000  0.5065950000000  0.4171660000000 1.0
C      1  0.5164200000000  0.4315740000000  0.4528890000000 1.0
END
