TITL C-3985254-1270-1194 2.450282022173e-07 125000 -219.37504250453 0 0 60 (T23) n - 1
REM
REM in /home/nfs/bkarasulu/CARBON/AIRSS/Generating-Clusters/TERSOFF/Higher-Symm/Only-C60
REM
REM
REM
REM
REM
REM ./C.cell (28575a23ae977d3b5fae324c64b13b57)
REM
REM compiler GCC version 9.2.1 20190827 (Red Hat 9.2.1-1)
REM options -cpp -mtune=generic -march=x86-64 -g -O0 -fpre-include=/usr/include/finclude/math-vector-fortran.h
REM seed -1320185153 539850973 -1519430053 131965305 -1157960845 1604515224 1536448237 -192686837 2027752150 560487231 1720300473 -1751370125 -674485635 1773685421 1407069127 -2060797048 485268152 479109726 802643491 855898401 -1979518678 1512397085 311439440 96957475 1795804018 -199821885 -779538159 -2136376336 337304394 1091526168 -1751290162 19792539 341923515
REM
CELL 1.54180   50.00000   50.00000   50.00000   90.00000   90.00000   90.00000
LATT -1
SFAC C  
C      1  0.4848450000000  0.5302070000000  0.4960220000000 1.0
C      1  0.4960220000000  0.4848450000000  0.5302070000000 1.0
C      1  0.5302070000000  0.4960220000000  0.4848450000000 1.0
C      1  0.4848450000000  0.4697930000000  0.5039780000000 1.0
C      1  0.5151550000000  0.4697930000000  0.4960220000000 1.0
C      1  0.5151550000000  0.5302070000000  0.5039780000000 1.0
C      1  0.4960220000000  0.5151550000000  0.4697930000000 1.0
C      1  0.5039780000000  0.5151550000000  0.5302070000000 1.0
C      1  0.5039780000000  0.4848450000000  0.4697930000000 1.0
C      1  0.5302070000000  0.5039780000000  0.5151550000000 1.0
C      1  0.4697930000000  0.5039780000000  0.4848450000000 1.0
C      1  0.4697930000000  0.4960220000000  0.5151550000000 1.0
C      1  0.5083350000000  0.5638910000000  0.5273300000000 1.0
C      1  0.5273300000000  0.5083350000000  0.5638910000000 1.0
C      1  0.5638910000000  0.5273300000000  0.5083350000000 1.0
C      1  0.5083350000000  0.4361090000000  0.4726700000000 1.0
C      1  0.4916650000000  0.4361090000000  0.5273300000000 1.0
C      1  0.4916650000000  0.5638910000000  0.4726700000000 1.0
C      1  0.5273300000000  0.4916650000000  0.4361090000000 1.0
C      1  0.4726700000000  0.4916650000000  0.5638910000000 1.0
C      1  0.4726700000000  0.5083350000000  0.4361090000000 1.0
C      1  0.5638910000000  0.4726700000000  0.4916650000000 1.0
C      1  0.4361090000000  0.4726700000000  0.5083350000000 1.0
C      1  0.4361090000000  0.5273300000000  0.4916650000000 1.0
C      1  0.4460980000000  0.4749870000000  0.5434840000000 1.0
C      1  0.5434840000000  0.4460980000000  0.4749870000000 1.0
C      1  0.4749870000000  0.5434840000000  0.4460980000000 1.0
C      1  0.4460980000000  0.5250130000000  0.4565160000000 1.0
C      1  0.5539020000000  0.5250130000000  0.5434840000000 1.0
C      1  0.5539020000000  0.4749870000000  0.4565160000000 1.0
C      1  0.5434840000000  0.5539020000000  0.5250130000000 1.0
C      1  0.4565160000000  0.5539020000000  0.4749870000000 1.0
C      1  0.4565160000000  0.4460980000000  0.5250130000000 1.0
C      1  0.4749870000000  0.4565160000000  0.5539020000000 1.0
C      1  0.5250130000000  0.4565160000000  0.4460980000000 1.0
C      1  0.5250130000000  0.5434840000000  0.5539020000000 1.0
C      1  0.4852040000000  0.4600380000000  0.4576700000000 1.0
C      1  0.4576700000000  0.4852040000000  0.4600380000000 1.0
C      1  0.4600380000000  0.4576700000000  0.4852040000000 1.0
C      1  0.4852040000000  0.5399620000000  0.5423300000000 1.0
C      1  0.5147960000000  0.5399620000000  0.4576700000000 1.0
C      1  0.5147960000000  0.4600380000000  0.5423300000000 1.0
C      1  0.4576700000000  0.5147960000000  0.5399620000000 1.0
C      1  0.5423300000000  0.5147960000000  0.4600380000000 1.0
C      1  0.5423300000000  0.4852040000000  0.5399620000000 1.0
C      1  0.4600380000000  0.5423300000000  0.5147960000000 1.0
C      1  0.5399620000000  0.5423300000000  0.4852040000000 1.0
C      1  0.5399620000000  0.4576700000000  0.5147960000000 1.0
C      1  0.5064540000000  0.5199370000000  0.4297190000000 1.0
C      1  0.4297190000000  0.5064540000000  0.5199370000000 1.0
C      1  0.5199370000000  0.4297190000000  0.5064540000000 1.0
C      1  0.5064540000000  0.4800630000000  0.5702810000000 1.0
C      1  0.4935460000000  0.4800630000000  0.4297190000000 1.0
C      1  0.4935460000000  0.5199370000000  0.5702810000000 1.0
C      1  0.4297190000000  0.4935460000000  0.4800630000000 1.0
C      1  0.5702810000000  0.4935460000000  0.5199370000000 1.0
C      1  0.5702810000000  0.5064540000000  0.4800630000000 1.0
C      1  0.5199370000000  0.5702810000000  0.4935460000000 1.0
C      1  0.4800630000000  0.5702810000000  0.5064540000000 1.0
C      1  0.4800630000000  0.4297190000000  0.4935460000000 1.0
END
