TITL C-3985247-764-830 3.19364807820006e-08 125000 -319.140376905787 0 0 60 (C1) n - 1
REM
REM in /home/nfs/bkarasulu/CARBON/AIRSS/Generating-Clusters/TERSOFF/Higher-Symm/Only-C60
REM
REM
REM
REM
REM
REM ./C.cell (28575a23ae977d3b5fae324c64b13b57)
REM
REM compiler GCC version 9.2.1 20190827 (Red Hat 9.2.1-1)
REM options -cpp -mtune=generic -march=x86-64 -g -O0 -fpre-include=/usr/include/finclude/math-vector-fortran.h
REM seed -1861837800 1570046131 1873465997 1159061973 1818981966 -1842603265 374884569 941781150 -905595471 -1676926586 1115983021 -325635968 859866982 -57959274 -1290455953 -2066099138 -560405877 450788567 1952760999 1391203392 -446060090 824923001 2005769599 -1131381707 1018937232 -279793059 -2076173419 1120942613 -1136176282 134401328 -706827905 498748111 -1261879902
REM
CELL 1.54180   50.00000   50.00000   50.00000   90.00000   90.00000   90.00000
LATT -1
SFAC C  
C      1  0.5429860000000  0.4869900000000  0.5559510000000 1.0
C      1  0.5439310000000  0.5555160000000  0.4824560000000 1.0
C      1  0.5466480000000  0.4602780000000  0.4598510000000 1.0
C      1  0.5005040000000  0.5154320000000  0.4734180000000 1.0
C      1  0.4940310000000  0.4768240000000  0.5046480000000 1.0
C      1  0.4987610000000  0.5081820000000  0.5220460000000 1.0
C      1  0.4473590000000  0.4695500000000  0.5150980000000 1.0
C      1  0.4489640000000  0.5270880000000  0.5181590000000 1.0
C      1  0.4470820000000  0.5025860000000  0.4657200000000 1.0
C      1  0.5246180000000  0.4443640000000  0.4736280000000 1.0
C      1  0.5241920000000  0.5025430000000  0.5732750000000 1.0
C      1  0.5242980000000  0.5603190000000  0.4603330000000 1.0
C      1  0.5372530000000  0.4621810000000  0.5352260000000 1.0
C      1  0.5394640000000  0.5476700000000  0.5146470000000 1.0
C      1  0.5403690000000  0.4911110000000  0.4494870000000 1.0
C      1  0.5237970000000  0.5177840000000  0.4897260000000 1.0
C      1  0.5224020000000  0.4713180000000  0.4922770000000 1.0
C      1  0.5300490000000  0.4975490000000  0.5103500000000 1.0
C      1  0.5106990000000  0.4249480000000  0.5155270000000 1.0
C      1  0.5115480000000  0.5470620000000  0.5567880000000 1.0
C      1  0.5114890000000  0.5264690000000  0.4262840000000 1.0
C      1  0.5127040000000  0.5415370000000  0.5266890000000 1.0
C      1  0.5125170000000  0.5026640000000  0.4451100000000 1.0
C      1  0.5099960000000  0.4528000000000  0.5277790000000 1.0
C      1  0.4281880000000  0.4806100000000  0.4860810000000 1.0
C      1  0.4284940000000  0.4976760000000  0.5242200000000 1.0
C      1  0.4291580000000  0.5222380000000  0.4903640000000 1.0
C      1  0.4970810000000  0.4401130000000  0.4620080000000 1.0
C      1  0.4948820000000  0.4963010000000  0.5761390000000 1.0
C      1  0.4955640000000  0.5654150000000  0.4655250000000 1.0
C      1  0.4824060000000  0.5465930000000  0.5624400000000 1.0
C      1  0.4817420000000  0.5313930000000  0.4271610000000 1.0
C      1  0.4815350000000  0.4221580000000  0.5097560000000 1.0
C      1  0.5292630000000  0.4229290000000  0.4933020000000 1.0
C      1  0.5284620000000  0.5310900000000  0.5735610000000 1.0
C      1  0.5287570000000  0.5482130000000  0.4344130000000 1.0
C      1  0.4660990000000  0.4417430000000  0.5286970000000 1.0
C      1  0.4676800000000  0.5525210000000  0.5357000000000 1.0
C      1  0.4669340000000  0.5049650000000  0.4355230000000 1.0
C      1  0.4906630000000  0.5605050000000  0.5174490000000 1.0
C      1  0.4898570000000  0.4844980000000  0.4362150000000 1.0
C      1  0.4878690000000  0.4513280000000  0.5489160000000 1.0
C      1  0.4741910000000  0.5206400000000  0.5743740000000 1.0
C      1  0.4744200000000  0.5540210000000  0.4449770000000 1.0
C      1  0.4753770000000  0.4271330000000  0.4812520000000 1.0
C      1  0.4548060000000  0.5378330000000  0.4614660000000 1.0
C      1  0.4554640000000  0.4491160000000  0.4861620000000 1.0
C      1  0.4549610000000  0.5143590000000  0.5516830000000 1.0
C      1  0.4833130000000  0.4654130000000  0.4561890000000 1.0
C      1  0.4810000000000  0.4777410000000  0.5573100000000 1.0
C      1  0.4834100000000  0.5555270000000  0.4905550000000 1.0
C      1  0.4705070000000  0.5287710000000  0.4884950000000 1.0
C      1  0.4694210000000  0.4773200000000  0.4794310000000 1.0
C      1  0.4687410000000  0.4919300000000  0.5343600000000 1.0
C      1  0.5640580000000  0.5051360000000  0.4684490000000 1.0
C      1  0.5627170000000  0.4711810000000  0.5113340000000 1.0
C      1  0.5630480000000  0.5265480000000  0.5175310000000 1.0
C      1  0.5638830000000  0.5295850000000  0.4856640000000 1.0
C      1  0.5648790000000  0.4755310000000  0.4811220000000 1.0
C      1  0.5555100000000  0.4991620000000  0.5277090000000 1.0
END
