TITL C-3985245-9316-1225 -7.72367358899367e-07 125000 -360.081274177996 0 0 60 (C3) n - 1
REM
REM in /home/nfs/bkarasulu/CARBON/AIRSS/Generating-Clusters/TERSOFF/Higher-Symm/Only-C60
REM
REM
REM
REM
REM
REM ./C.cell (28575a23ae977d3b5fae324c64b13b57)
REM
REM compiler GCC version 9.2.1 20190827 (Red Hat 9.2.1-1)
REM options -cpp -mtune=generic -march=x86-64 -g -O0 -fpre-include=/usr/include/finclude/math-vector-fortran.h
REM seed -984101514 -366115969 -1536833797 -859171463 -486828431 616421167 -1517081674 1845238363 2116941912 1534445471 160943908 659467356 -4686587 702293084 1339411691 -895005580 1811276134 -1355661299 -94308075 -201677701 -599254555 -1016269314 -1432783651 -1642398159 619255429 -1029400026 1467741976 100180909 -348409247 -501891108 -1104134133 1957587673 -1003803546
REM
CELL 1.54180   50.00000   50.00000   50.00000   90.00000   90.00000   90.00000
LATT -1
SFAC C  
C      1  0.5395260000000  0.5616960000000  0.5232200000000 1.0
C      1  0.5336680000000  0.4349230000000  0.5232230000000 1.0
C      1  0.4268090000000  0.5033790000000  0.5232240000000 1.0
C      1  0.4604740000000  0.5616960000000  0.5232200000000 1.0
C      1  0.4663320000000  0.4349230000000  0.5232230000000 1.0
C      1  0.5731910000000  0.5033790000000  0.5232240000000 1.0
C      1  0.5319610000000  0.5712770000000  0.4953170000000 1.0
C      1  0.5457450000000  0.4366830000000  0.4953190000000 1.0
C      1  0.4222930000000  0.4920400000000  0.4953200000000 1.0
C      1  0.4680390000000  0.5712770000000  0.4953170000000 1.0
C      1  0.4542550000000  0.4366830000000  0.4953190000000 1.0
C      1  0.5777070000000  0.4920400000000  0.4953200000000 1.0
C      1  0.4102160000000  0.4653840000000  0.4912900000000 1.0
C      1  0.5149150000000  0.5950640000000  0.4912880000000 1.0
C      1  0.5748690000000  0.4395510000000  0.4912890000000 1.0
C      1  0.5897840000000  0.4653840000000  0.4912900000000 1.0
C      1  0.4850850000000  0.5950640000000  0.4912880000000 1.0
C      1  0.4251310000000  0.4395510000000  0.4912890000000 1.0
C      1  0.4854260000000  0.4566850000000  0.4321310000000 1.0
C      1  0.4697740000000  0.5342790000000  0.4321300000000 1.0
C      1  0.5448020000000  0.5090370000000  0.4321310000000 1.0
C      1  0.5145740000000  0.4566850000000  0.4321310000000 1.0
C      1  0.5302260000000  0.5342790000000  0.4321300000000 1.0
C      1  0.4551980000000  0.5090370000000  0.4321310000000 1.0
C      1  0.5300520000000  0.5006400000000  0.5576890000000 1.0
C      1  0.4855270000000  0.4736550000000  0.5576890000000 1.0
C      1  0.4844210000000  0.5257080000000  0.5576880000000 1.0
C      1  0.4699480000000  0.5006400000000  0.5576890000000 1.0
C      1  0.5144730000000  0.4736550000000  0.5576890000000 1.0
C      1  0.5155790000000  0.5257080000000  0.5576880000000 1.0
C      1  0.5453330000000  0.4943500000000  0.5307680000000 1.0
C      1  0.4724400000000  0.4635640000000  0.5307680000000 1.0
C      1  0.4822250000000  0.5420870000000  0.5307670000000 1.0
C      1  0.4546670000000  0.4943500000000  0.5307680000000 1.0
C      1  0.5275600000000  0.4635640000000  0.5307680000000 1.0
C      1  0.5177750000000  0.5420870000000  0.5307670000000 1.0
C      1  0.5522620000000  0.4991490000000  0.4815950000000 1.0
C      1  0.4731330000000  0.4551660000000  0.4815950000000 1.0
C      1  0.4746060000000  0.5456860000000  0.4815940000000 1.0
C      1  0.4477380000000  0.4991490000000  0.4815950000000 1.0
C      1  0.5268670000000  0.4551660000000  0.4815950000000 1.0
C      1  0.5253940000000  0.5456860000000  0.4815940000000 1.0
C      1  0.5311840000000  0.4651570000000  0.4544920000000 1.0
C      1  0.4542320000000  0.4904160000000  0.4544920000000 1.0
C      1  0.5145840000000  0.5444280000000  0.4544900000000 1.0
C      1  0.4688160000000  0.4651570000000  0.4544920000000 1.0
C      1  0.5457680000000  0.4904160000000  0.4544920000000 1.0
C      1  0.4854160000000  0.5444280000000  0.4544900000000 1.0
C      1  0.5300980000000  0.5005580000000  0.5023540000000 1.0
C      1  0.4854340000000  0.4736560000000  0.5023550000000 1.0
C      1  0.4844680000000  0.5257880000000  0.5023540000000 1.0
C      1  0.4699020000000  0.5005580000000  0.5023540000000 1.0
C      1  0.5145660000000  0.4736560000000  0.5023550000000 1.0
C      1  0.5155320000000  0.5257880000000  0.5023540000000 1.0
C      1  0.5831160000000  0.5304150000000  0.5311470000000 1.0
C      1  0.4847850000000  0.4128100000000  0.5311440000000 1.0
C      1  0.4320960000000  0.5567700000000  0.5311380000000 1.0
C      1  0.4168840000000  0.5304150000000  0.5311470000000 1.0
C      1  0.5152150000000  0.4128100000000  0.5311440000000 1.0
C      1  0.5679040000000  0.5567700000000  0.5311380000000 1.0
END
