TITL C-3985248-2097-235 0.000206604906844786 125000 -330.644450751475 0 0 60 (S10) n - 1
REM
REM in /home/nfs/bkarasulu/CARBON/AIRSS/Generating-Clusters/TERSOFF/Higher-Symm/Only-C60
REM
REM
REM
REM
REM
REM ./C.cell (28575a23ae977d3b5fae324c64b13b57)
REM
REM compiler GCC version 9.2.1 20190827 (Red Hat 9.2.1-1)
REM options -cpp -mtune=generic -march=x86-64 -g -O0 -fpre-include=/usr/include/finclude/math-vector-fortran.h
REM seed -1635851740 -350622981 -1953149132 -291157674 719720795 -988221881 1705351140 244645943 -1555846047 -749610014 -192725933 -1619629557 1333870933 1846587385 474972966 -1123162866 -1934521345 -330585052 -1989512112 -1050821761 -1212348799 -449947582 -2064206609 1068003277 -918769372 786549097 -1402405938 1835136327 93619740 -1059348104 1381185570 -888128251 1177886941
REM
CELL 1.54180   50.00000   50.00000   50.00000   90.00000   90.00000   90.00000
LATT -1
SFAC C  
C      1  0.4764780000000  0.5111190000000  0.4413670000000 1.0
C      1  0.4875050000000  0.5228220000000  0.5586320000000 1.0
C      1  0.5033060000000  0.5258070000000  0.4413670000000 1.0
C      1  0.5178440000000  0.5189370000000  0.5586370000000 1.0
C      1  0.5255660000000  0.5048300000000  0.4413690000000 1.0
C      1  0.5235220000000  0.4888810000000  0.5586330000000 1.0
C      1  0.5124950000000  0.4771780000000  0.4413680000000 1.0
C      1  0.4966940000000  0.4741930000000  0.5586330000000 1.0
C      1  0.4821560000000  0.4810630000000  0.4413630000000 1.0
C      1  0.4744340000000  0.4951700000000  0.5586310000000 1.0
C      1  0.5014310000000  0.4262060000000  0.5138380000000 1.0
C      1  0.4577820000000  0.4394580000000  0.4861620000000 1.0
C      1  0.4302590000000  0.4758360000000  0.5138380000000 1.0
C      1  0.4293750000000  0.5214440000000  0.4861620000000 1.0
C      1  0.4554670000000  0.5588600000000  0.5138380000000 1.0
C      1  0.4985690000000  0.5737940000000  0.4861620000000 1.0
C      1  0.5422180000000  0.5605420000000  0.5138380000000 1.0
C      1  0.5697410000000  0.5241640000000  0.4861620000000 1.0
C      1  0.5706250000000  0.4785560000000  0.5138380000000 1.0
C      1  0.5445330000000  0.4411400000000  0.4861620000000 1.0
C      1  0.5537130000000  0.5096560000000  0.4573610000000 1.0
C      1  0.5491310000000  0.4762400000000  0.5426390000000 1.0
C      1  0.5257820000000  0.4519000000000  0.4573610000000 1.0
C      1  0.4925850000000  0.4459320000000  0.5426390000000 1.0
C      1  0.4622210000000  0.4606160000000  0.4573610000000 1.0
C      1  0.4462870000000  0.4903440000000  0.5426390000000 1.0
C      1  0.4508690000000  0.5237600000000  0.4573610000000 1.0
C      1  0.4742180000000  0.5481000000000  0.5426390000000 1.0
C      1  0.5074150000000  0.5540680000000  0.4573610000000 1.0
C      1  0.5377790000000  0.5393840000000  0.5426390000000 1.0
C      1  0.5055240000000  0.5522360000000  0.5324380000000 1.0
C      1  0.5351720000000  0.5390140000000  0.4675610000000 1.0
C      1  0.5513860000000  0.5108890000000  0.5324390000000 1.0
C      1  0.5479730000000  0.4786050000000  0.4675610000000 1.0
C      1  0.5262350000000  0.4544930000000  0.5324380000000 1.0
C      1  0.4944760000000  0.4477640000000  0.4675620000000 1.0
C      1  0.4648280000000  0.4609860000000  0.5324390000000 1.0
C      1  0.4486140000000  0.4891110000000  0.4675610000000 1.0
C      1  0.4520270000000  0.5213950000000  0.5324390000000 1.0
C      1  0.4737650000000  0.5455070000000  0.4675620000000 1.0
C      1  0.5167490000000  0.5185050000000  0.4804790000000 1.0
C      1  0.5244290000000  0.5051260000000  0.5195210000000 1.0
C      1  0.5227750000000  0.4897880000000  0.4804770000000 1.0
C      1  0.5124240000000  0.4783520000000  0.5195190000000 1.0
C      1  0.4973260000000  0.4751840000000  0.4804790000000 1.0
C      1  0.4832510000000  0.4814950000000  0.5195210000000 1.0
C      1  0.4755710000000  0.4948740000000  0.4804790000000 1.0
C      1  0.4772250000000  0.5102120000000  0.5195230000000 1.0
C      1  0.4875760000000  0.5216480000000  0.4804810000000 1.0
C      1  0.5026740000000  0.5248160000000  0.5195210000000 1.0
C      1  0.4682650000000  0.5673180000000  0.4888090000000 1.0
C      1  0.5138940000000  0.5731150000000  0.5111910000000 1.0
C      1  0.5542170000000  0.5509840000000  0.4888090000000 1.0
C      1  0.5738300000000  0.5093790000000  0.5111910000000 1.0
C      1  0.5652430000000  0.4641920000000  0.4888090000000 1.0
C      1  0.5317350000000  0.4326820000000  0.5111910000000 1.0
C      1  0.4861060000000  0.4268850000000  0.4888090000000 1.0
C      1  0.4457830000000  0.4490160000000  0.5111910000000 1.0
C      1  0.4261700000000  0.4906210000000  0.4888090000000 1.0
C      1  0.4347570000000  0.5358080000000  0.5111910000000 1.0
END
