TITL C-3985250-725-572 0.00931525072919048 125000 -337.206154689116 0 0 60 (C4) n - 1
REM
REM in /home/nfs/bkarasulu/CARBON/AIRSS/Generating-Clusters/TERSOFF/Higher-Symm/Only-C60
REM
REM
REM
REM
REM
REM ./C.cell (28575a23ae977d3b5fae324c64b13b57)
REM
REM compiler GCC version 9.2.1 20190827 (Red Hat 9.2.1-1)
REM options -cpp -mtune=generic -march=x86-64 -g -O0 -fpre-include=/usr/include/finclude/math-vector-fortran.h
REM seed -247133529 1903763038 529963293 527914373 954189788 1154891303 -194261201 1500949439 59277057 -909059107 1103390222 1467034037 -543449655 -86875019 -280469795 -792526341 295249967 -942116113 860105574 -1751713852 -735269271 484501503 -257380654 509324238 1048948042 252326494 255906079 -182887229 1966996359 -1869083327 -1295089223 -1938054410 -1333781685
REM
CELL 1.54180   50.00000   50.00000   50.00000   90.00000   90.00000   90.00000
LATT -1
SFAC C  
C      1  0.5678380000000  0.4727990000000  0.5096730000000 1.0
C      1  0.5096730000000  0.4727990000000  0.4321620000000 1.0
C      1  0.4321620000000  0.4727990000000  0.4903270000000 1.0
C      1  0.4903270000000  0.4727990000000  0.5678380000000 1.0
C      1  0.5117150000000  0.4611980000000  0.4612860000000 1.0
C      1  0.4612860000000  0.4611980000000  0.4882850000000 1.0
C      1  0.4882850000000  0.4611980000000  0.5387140000000 1.0
C      1  0.5387140000000  0.4611980000000  0.5117150000000 1.0
C      1  0.5177710000000  0.4875010000000  0.5694760000000 1.0
C      1  0.5694760000000  0.4875010000000  0.4822290000000 1.0
C      1  0.4822290000000  0.4875010000000  0.4305240000000 1.0
C      1  0.4305240000000  0.4875010000000  0.5177710000000 1.0
C      1  0.5570310000000  0.4731640000000  0.4586430000000 1.0
C      1  0.4586430000000  0.4731640000000  0.4429690000000 1.0
C      1  0.4429690000000  0.4731640000000  0.5413570000000 1.0
C      1  0.5413570000000  0.4731640000000  0.5570310000000 1.0
C      1  0.5215940000000  0.5370350000000  0.5049470000000 1.0
C      1  0.5049470000000  0.5370350000000  0.4784060000000 1.0
C      1  0.4784060000000  0.5370350000000  0.4950530000000 1.0
C      1  0.4950530000000  0.5370350000000  0.5215940000000 1.0
C      1  0.5618480000000  0.4889830000000  0.5400150000000 1.0
C      1  0.5400150000000  0.4889830000000  0.4381520000000 1.0
C      1  0.4381520000000  0.4889830000000  0.4599850000000 1.0
C      1  0.4599850000000  0.4889830000000  0.5618480000000 1.0
C      1  0.5395670000000  0.5605710000000  0.4751980000000 1.0
C      1  0.4751980000000  0.5605710000000  0.4604330000000 1.0
C      1  0.4604330000000  0.5605710000000  0.5248020000000 1.0
C      1  0.5248020000000  0.5605710000000  0.5395670000000 1.0
C      1  0.5375220000000  0.5646480000000  0.5088560000000 1.0
C      1  0.5088560000000  0.5646480000000  0.4624780000000 1.0
C      1  0.4624780000000  0.5646480000000  0.4911440000000 1.0
C      1  0.4911440000000  0.5646480000000  0.5375220000000 1.0
C      1  0.4914050000000  0.5141330000000  0.5394260000000 1.0
C      1  0.5394260000000  0.5141330000000  0.5085950000000 1.0
C      1  0.5085950000000  0.5141330000000  0.4605740000000 1.0
C      1  0.4605740000000  0.5141330000000  0.4914050000000 1.0
C      1  0.4776620000000  0.4875180000000  0.4935340000000 1.0
C      1  0.4935340000000  0.4875180000000  0.5223380000000 1.0
C      1  0.5223380000000  0.4875180000000  0.5064660000000 1.0
C      1  0.5064660000000  0.4875180000000  0.4776620000000 1.0
C      1  0.4934260000000  0.4379970000000  0.4752100000000 1.0
C      1  0.4752100000000  0.4379970000000  0.5065740000000 1.0
C      1  0.5065740000000  0.4379970000000  0.5247900000000 1.0
C      1  0.5247900000000  0.4379970000000  0.4934260000000 1.0
C      1  0.5531950000000  0.5172490000000  0.5349160000000 1.0
C      1  0.5349160000000  0.5172490000000  0.4468050000000 1.0
C      1  0.4468050000000  0.5172490000000  0.4650840000000 1.0
C      1  0.4650840000000  0.5172490000000  0.5531950000000 1.0
C      1  0.5595310000000  0.5148080000000  0.4870960000000 1.0
C      1  0.4870960000000  0.5148080000000  0.4404690000000 1.0
C      1  0.4404690000000  0.5148080000000  0.5129040000000 1.0
C      1  0.5129040000000  0.5148080000000  0.5595310000000 1.0
C      1  0.5523830000000  0.5334760000000  0.4653760000000 1.0
C      1  0.4653760000000  0.5334760000000  0.4476170000000 1.0
C      1  0.4476170000000  0.5334760000000  0.5346240000000 1.0
C      1  0.5346240000000  0.5334760000000  0.5523830000000 1.0
C      1  0.4596220000000  0.4489220000000  0.5345320000000 1.0
C      1  0.5345320000000  0.4489220000000  0.5403780000000 1.0
C      1  0.5403780000000  0.4489220000000  0.4654680000000 1.0
C      1  0.4654680000000  0.4489220000000  0.4596220000000 1.0
END
