TITL C-3985254-1270-1126 -2.50065233767661e-07 125000 -304.133149232668 0 0 60 (D3h) n - 1
REM
REM in /home/nfs/bkarasulu/CARBON/AIRSS/Generating-Clusters/TERSOFF/Higher-Symm/Only-C60
REM
REM
REM
REM
REM
REM ./C.cell (28575a23ae977d3b5fae324c64b13b57)
REM
REM compiler GCC version 9.2.1 20190827 (Red Hat 9.2.1-1)
REM options -cpp -mtune=generic -march=x86-64 -g -O0 -fpre-include=/usr/include/finclude/math-vector-fortran.h
REM seed -955262033 -273632342 487531712 93862051 1703500909 716506525 -2106170002 1070922304 -1102110954 928854587 1899029928 1418270888 1593581482 541145171 -799840497 31320165 -1311490469 1923057006 -639658559 1109283940 1124103733 934565563 -288782790 946014458 1439271556 -127910796 168518204 1857195242 -1954555880 -237109338 1605454160 1102352286 1530231909
REM
CELL 1.54180   50.00000   50.00000   50.00000   90.00000   90.00000   90.00000
LATT -1
SFAC C  
C      1  0.5724730000000  0.5237210000000  0.5327270000000 1.0
C      1  0.4841690000000  0.4250150000000  0.5323330000000 1.0
C      1  0.4428230000000  0.5514170000000  0.5321830000000 1.0
C      1  0.5724730000000  0.5237210000000  0.4672730000000 1.0
C      1  0.4841690000000  0.4250150000000  0.4676670000000 1.0
C      1  0.4428230000000  0.5514170000000  0.4678170000000 1.0
C      1  0.4275270000000  0.5237210000000  0.5327270000000 1.0
C      1  0.5158310000000  0.4250150000000  0.5323330000000 1.0
C      1  0.5571770000000  0.5514170000000  0.5321830000000 1.0
C      1  0.4275270000000  0.5237210000000  0.4672730000000 1.0
C      1  0.5158310000000  0.4250150000000  0.4676670000000 1.0
C      1  0.5571770000000  0.5514170000000  0.4678170000000 1.0
C      1  0.4836770000000  0.4507610000000  0.5545100000000 1.0
C      1  0.4653840000000  0.5385110000000  0.5539860000000 1.0
C      1  0.5507790000000  0.5101520000000  0.5552680000000 1.0
C      1  0.4836770000000  0.4507610000000  0.4454900000000 1.0
C      1  0.4653850000000  0.5385110000000  0.4460140000000 1.0
C      1  0.5507790000000  0.5101520000000  0.4447320000000 1.0
C      1  0.5163230000000  0.4507610000000  0.5545100000000 1.0
C      1  0.5346150000000  0.5385110000000  0.5539860000000 1.0
C      1  0.4492210000000  0.5101520000000  0.5552680000000 1.0
C      1  0.5163230000000  0.4507610000000  0.4454900000000 1.0
C      1  0.5346150000000  0.5385110000000  0.4460140000000 1.0
C      1  0.4492210000000  0.5101520000000  0.4447320000000 1.0
C      1  0.4261740000000  0.4739650000000  0.4752990000000 1.0
C      1  0.5143280000000  0.5770590000000  0.4752820000000 1.0
C      1  0.5595110000000  0.4491410000000  0.4752950000000 1.0
C      1  0.4261740000000  0.4739650000000  0.5247010000000 1.0
C      1  0.5143280000000  0.5770590000000  0.5247180000000 1.0
C      1  0.5595110000000  0.4491410000000  0.5247050000000 1.0
C      1  0.5738260000000  0.4739650000000  0.4752990000000 1.0
C      1  0.4856720000000  0.5770590000000  0.4752820000000 1.0
C      1  0.4404890000000  0.4491410000000  0.4752950000000 1.0
C      1  0.5738260000000  0.4739650000000  0.5247010000000 1.0
C      1  0.4856720000000  0.5770590000000  0.5247180000000 1.0
C      1  0.4404890000000  0.4491410000000  0.5247050000000 1.0
C      1  0.5314670000000  0.4990420000000  0.5288990000000 1.0
C      1  0.4834250000000  0.4733270000000  0.5287210000000 1.0
C      1  0.4851490000000  0.5276990000000  0.5284640000000 1.0
C      1  0.5314680000000  0.4990420000000  0.4711010000000 1.0
C      1  0.4834250000000  0.4733270000000  0.4712790000000 1.0
C      1  0.4851490000000  0.5276990000000  0.4715360000000 1.0
C      1  0.4685320000000  0.4990420000000  0.5288990000000 1.0
C      1  0.5165750000000  0.4733270000000  0.5287210000000 1.0
C      1  0.5148510000000  0.5276990000000  0.5284640000000 1.0
C      1  0.4685320000000  0.4990420000000  0.4711010000000 1.0
C      1  0.5165750000000  0.4733270000000  0.4712790000000 1.0
C      1  0.5148510000000  0.5276990000000  0.4715360000000 1.0
C      1  0.4687170000000  0.4468550000000  0.4849030000000 1.0
C      1  0.4695730000000  0.5537840000000  0.4849130000000 1.0
C      1  0.5616510000000  0.4995500000000  0.4848860000000 1.0
C      1  0.4687170000000  0.4468550000000  0.5150970000000 1.0
C      1  0.4695730000000  0.5537840000000  0.5150870000000 1.0
C      1  0.5616510000000  0.4995500000000  0.5151140000000 1.0
C      1  0.5312830000000  0.4468550000000  0.4849030000000 1.0
C      1  0.5304270000000  0.5537840000000  0.4849130000000 1.0
C      1  0.4383490000000  0.4995500000000  0.4848860000000 1.0
C      1  0.5312830000000  0.4468550000000  0.5150970000000 1.0
C      1  0.5304270000000  0.5537840000000  0.5150870000000 1.0
C      1  0.4383490000000  0.4995500000000  0.5151140000000 1.0
END
