TITL C-3985245-9316-402 5.45687081125409e-05 125000 -324.873321414216 0 0 60 (C1) n - 1
REM
REM in /home/nfs/bkarasulu/CARBON/AIRSS/Generating-Clusters/TERSOFF/Higher-Symm/Only-C60
REM
REM
REM
REM
REM
REM ./C.cell (28575a23ae977d3b5fae324c64b13b57)
REM
REM compiler GCC version 9.2.1 20190827 (Red Hat 9.2.1-1)
REM options -cpp -mtune=generic -march=x86-64 -g -O0 -fpre-include=/usr/include/finclude/math-vector-fortran.h
REM seed -1054324551 302254063 -2062298334 -422902166 -90691053 -730479372 324167944 2094262702 175734848 -1010042382 428654251 -596721778 706417884 -31312665 1805952659 1744239931 -1073359118 2021685877 -2143848989 1308319610 2055797807 832837164 1253764675 -126749935 544505946 -479928232 -2141901887 -1037856993 1711469891 1946636753 1200155324 -22216569 -222428078
REM
CELL 1.54180   50.00000   50.00000   50.00000   90.00000   90.00000   90.00000
LATT -1
SFAC C  
C      1  0.5005310000000  0.5546470000000  0.4561230000000 1.0
C      1  0.4687740000000  0.5434210000000  0.4529900000000 1.0
C      1  0.4473600000000  0.5169360000000  0.4540500000000 1.0
C      1  0.4466730000000  0.4840690000000  0.4571960000000 1.0
C      1  0.4700600000000  0.4608920000000  0.4461740000000 1.0
C      1  0.5014320000000  0.4477690000000  0.4567590000000 1.0
C      1  0.5323350000000  0.4590630000000  0.4491070000000 1.0
C      1  0.5549050000000  0.4824480000000  0.4553320000000 1.0
C      1  0.5536190000000  0.5149340000000  0.4551110000000 1.0
C      1  0.5305130000000  0.5406970000000  0.4464460000000 1.0
C      1  0.5856450000000  0.4808300000000  0.5113510000000 1.0
C      1  0.5893160000000  0.5303670000000  0.4928110000000 1.0
C      1  0.5518880000000  0.5685590000000  0.4951950000000 1.0
C      1  0.5055720000000  0.5932350000000  0.4938830000000 1.0
C      1  0.4570870000000  0.5719180000000  0.5120870000000 1.0
C      1  0.4184000000000  0.5206500000000  0.5137490000000 1.0
C      1  0.4115660000000  0.4673600000000  0.4964530000000 1.0
C      1  0.4453770000000  0.4277870000000  0.4812830000000 1.0
C      1  0.4884050000000  0.4132830000000  0.5075460000000 1.0
C      1  0.5458170000000  0.4289980000000  0.5076550000000 1.0
C      1  0.4361990000000  0.4791590000000  0.4860540000000 1.0
C      1  0.4635800000000  0.4494920000000  0.4747930000000 1.0
C      1  0.4997320000000  0.4307670000000  0.4848630000000 1.0
C      1  0.5400620000000  0.4375250000000  0.4766900000000 1.0
C      1  0.5737620000000  0.4757610000000  0.4826030000000 1.0
C      1  0.5647530000000  0.5170180000000  0.4842980000000 1.0
C      1  0.5389300000000  0.5490210000000  0.4763870000000 1.0
C      1  0.5014730000000  0.5658210000000  0.4846660000000 1.0
C      1  0.4597550000000  0.5623200000000  0.4815250000000 1.0
C      1  0.4275820000000  0.5204750000000  0.4829370000000 1.0
C      1  0.4595170000000  0.4877260000000  0.5072790000000 1.0
C      1  0.4752820000000  0.4653360000000  0.4958460000000 1.0
C      1  0.5017710000000  0.4574510000000  0.5056120000000 1.0
C      1  0.5267950000000  0.4623250000000  0.4905820000000 1.0
C      1  0.5464110000000  0.4812930000000  0.4964490000000 1.0
C      1  0.5422960000000  0.5093020000000  0.5064390000000 1.0
C      1  0.5249750000000  0.5302570000000  0.4942500000000 1.0
C      1  0.4999140000000  0.5410580000000  0.5062340000000 1.0
C      1  0.4725040000000  0.5370980000000  0.4943790000000 1.0
C      1  0.4556600000000  0.5151670000000  0.4951670000000 1.0
C      1  0.4687040000000  0.5569380000000  0.5355120000000 1.0
C      1  0.4368720000000  0.5144560000000  0.5367280000000 1.0
C      1  0.4108690000000  0.4601190000000  0.5247390000000 1.0
C      1  0.4390790000000  0.4203990000000  0.5087910000000 1.0
C      1  0.4816850000000  0.4273620000000  0.5335230000000 1.0
C      1  0.5357100000000  0.4441420000000  0.5319930000000 1.0
C      1  0.5681560000000  0.4859610000000  0.5349930000000 1.0
C      1  0.5911760000000  0.5402300000000  0.5201190000000 1.0
C      1  0.5489390000000  0.5640420000000  0.5248650000000 1.0
C      1  0.5134940000000  0.5971590000000  0.5216190000000 1.0
C      1  0.4993370000000  0.5517200000000  0.5340380000000 1.0
C      1  0.4512380000000  0.5372370000000  0.5498210000000 1.0
C      1  0.4505540000000  0.4865900000000  0.5354170000000 1.0
C      1  0.4367080000000  0.4598650000000  0.5398770000000 1.0
C      1  0.4513970000000  0.4336470000000  0.5324150000000 1.0
C      1  0.5048250000000  0.4488620000000  0.5341700000000 1.0
C      1  0.5543210000000  0.4622540000000  0.5468330000000 1.0
C      1  0.5530310000000  0.5131740000000  0.5341370000000 1.0
C      1  0.5658640000000  0.5409490000000  0.5357040000000 1.0
C      1  0.5218080000000  0.5726560000000  0.5363570000000 1.0
END
