TITL C-3985250-725-476 0.0012239949318549 125000 -307.190241000512 0 0 60 (D2h) n - 1
REM
REM in /home/nfs/bkarasulu/CARBON/AIRSS/Generating-Clusters/TERSOFF/Higher-Symm/Only-C60
REM
REM
REM
REM
REM
REM ./C.cell (28575a23ae977d3b5fae324c64b13b57)
REM
REM compiler GCC version 9.2.1 20190827 (Red Hat 9.2.1-1)
REM options -cpp -mtune=generic -march=x86-64 -g -O0 -fpre-include=/usr/include/finclude/math-vector-fortran.h
REM seed 566009938 -717678339 -1595501852 2083652137 775055398 -1423263944 1333209208 -1719723447 293614387 -1585103774 -336923928 228677293 1191298230 412038821 446673760 -303625395 1342057417 630397488 -736545572 831952512 -26718263 247198625 1296387248 1710648877 1462984300 290161540 -1338365046 -2012727708 1480395731 2033673944 -131843742 949135812 270886427
REM
CELL 1.54180   50.00000   50.00000   50.00000   90.00000   90.00000   90.00000
LATT -1
SFAC C  
C      1  0.4842380000000  0.5157540000000  0.4838510000000 1.0
C      1  0.5157620000000  0.5157540000000  0.5161490000000 1.0
C      1  0.4842380000000  0.4842460000000  0.4838510000000 1.0
C      1  0.5157620000000  0.4842460000000  0.5161490000000 1.0
C      1  0.4842380000000  0.5157540000000  0.5161490000000 1.0
C      1  0.5157620000000  0.5157540000000  0.4838510000000 1.0
C      1  0.4842380000000  0.4842460000000  0.5161490000000 1.0
C      1  0.5157620000000  0.4842460000000  0.4838510000000 1.0
C      1  0.4417710000000  0.5180470000000  0.4818680000000 1.0
C      1  0.5582290000000  0.5180470000000  0.5181320000000 1.0
C      1  0.4417710000000  0.4819530000000  0.4818680000000 1.0
C      1  0.5582290000000  0.4819530000000  0.5181320000000 1.0
C      1  0.4417710000000  0.5180470000000  0.5181320000000 1.0
C      1  0.5582290000000  0.5180470000000  0.4818680000000 1.0
C      1  0.4417710000000  0.4819530000000  0.5181320000000 1.0
C      1  0.5582290000000  0.4819530000000  0.4818680000000 1.0
C      1  0.5148920000000  0.4244730000000  0.4448700000000 1.0
C      1  0.4851080000000  0.4244730000000  0.5551300000000 1.0
C      1  0.5148920000000  0.5755270000000  0.4448700000000 1.0
C      1  0.4851080000000  0.5755270000000  0.5551300000000 1.0
C      1  0.5148920000000  0.4244730000000  0.5551300000000 1.0
C      1  0.4851080000000  0.4244730000000  0.4448700000000 1.0
C      1  0.5148920000000  0.5755270000000  0.5551300000000 1.0
C      1  0.4851080000000  0.5755270000000  0.4448700000000 1.0
C      1  0.4695040000000  0.5290240000000  0.4616250000000 1.0
C      1  0.5304960000000  0.5290240000000  0.5383750000000 1.0
C      1  0.4695040000000  0.4709760000000  0.4616250000000 1.0
C      1  0.5304960000000  0.4709760000000  0.5383750000000 1.0
C      1  0.4695040000000  0.5290240000000  0.5383750000000 1.0
C      1  0.5304960000000  0.5290240000000  0.4616250000000 1.0
C      1  0.4695040000000  0.4709760000000  0.5383750000000 1.0
C      1  0.5304960000000  0.4709760000000  0.4616250000000 1.0
C      1  0.5265190000000  0.5597760000000  0.4685770000000 1.0
C      1  0.4734810000000  0.5597760000000  0.5314230000000 1.0
C      1  0.5265190000000  0.4402240000000  0.4685770000000 1.0
C      1  0.4734810000000  0.4402240000000  0.5314230000000 1.0
C      1  0.5265190000000  0.5597760000000  0.5314230000000 1.0
C      1  0.4734810000000  0.5597760000000  0.4685770000000 1.0
C      1  0.5265190000000  0.4402240000000  0.5314230000000 1.0
C      1  0.4734810000000  0.4402240000000  0.4685770000000 1.0
C      1  0.5548060000000  0.5541290000000  0.5152670000000 1.0
C      1  0.4451940000000  0.5541290000000  0.4847330000000 1.0
C      1  0.5548060000000  0.4458710000000  0.5152670000000 1.0
C      1  0.4451940000000  0.4458710000000  0.4847330000000 1.0
C      1  0.5548060000000  0.5541290000000  0.4847330000000 1.0
C      1  0.4451940000000  0.5541290000000  0.5152670000000 1.0
C      1  0.5548060000000  0.4458710000000  0.4847330000000 1.0
C      1  0.4451940000000  0.4458710000000  0.5152670000000 1.0
C      1  0.5165030000000  0.4840290000000  0.5621690000000 1.0
C      1  0.4834970000000  0.4840290000000  0.4378310000000 1.0
C      1  0.5165030000000  0.5159710000000  0.5621690000000 1.0
C      1  0.4834970000000  0.5159710000000  0.4378310000000 1.0
C      1  0.5165030000000  0.4840290000000  0.4378310000000 1.0
C      1  0.4834970000000  0.4840290000000  0.5621690000000 1.0
C      1  0.5165030000000  0.5159710000000  0.4378310000000 1.0
C      1  0.4834970000000  0.5159710000000  0.5621690000000 1.0
C      1  0.5000000000000  0.4397130000000  0.5145370000000 1.0
C      1  0.5000000000000  0.4397130000000  0.4854630000000 1.0
C      1  0.5000000000000  0.5602870000000  0.5145370000000 1.0
C      1  0.5000000000000  0.5602870000000  0.4854630000000 1.0
END
