TITL C-3985252-168-63 -2.88568601888942e-07 125000 -209.472682694901 0 0 60 (Th) n - 1
REM
REM in /home/nfs/bkarasulu/CARBON/AIRSS/Generating-Clusters/TERSOFF/Higher-Symm/Only-C60
REM
REM
REM
REM
REM
REM ./C.cell (28575a23ae977d3b5fae324c64b13b57)
REM
REM compiler GCC version 9.2.1 20190827 (Red Hat 9.2.1-1)
REM options -cpp -mtune=generic -march=x86-64 -g -O0 -fpre-include=/usr/include/finclude/math-vector-fortran.h
REM seed 1653101940 -1989313434 526052232 1955352724 1495809820 975604648 -1981545907 295192994 1329919916 -1132804472 116442062 -162298646 1992280663 -622759919 1136455762 -283077906 -1069699183 -564697277 -1913238604 1751383743 485265497 -824737440 1011492300 1271922517 1774129746 1851732859 -414234416 -241693597 -479202967 1368152594 -1057374898 1555851158 1326475817
REM
CELL 1.54180   50.00000   50.00000   50.00000   90.00000   90.00000   90.00000
LATT -1
SFAC C  
C      1  0.4543990000000  0.4543870000000  0.4817320000000 1.0
C      1  0.4543870000000  0.4817320000000  0.4543990000000 1.0
C      1  0.4817320000000  0.4543990000000  0.4543870000000 1.0
C      1  0.5456010000000  0.4543870000000  0.5182680000000 1.0
C      1  0.5456010000000  0.5456130000000  0.4817320000000 1.0
C      1  0.4543990000000  0.5456130000000  0.5182680000000 1.0
C      1  0.5456130000000  0.4817320000000  0.5456010000000 1.0
C      1  0.5456130000000  0.5182680000000  0.4543990000000 1.0
C      1  0.4543870000000  0.5182680000000  0.5456010000000 1.0
C      1  0.5182680000000  0.4543990000000  0.5456130000000 1.0
C      1  0.5182680000000  0.5456010000000  0.4543870000000 1.0
C      1  0.4817320000000  0.5456010000000  0.5456130000000 1.0
C      1  0.4543990000000  0.5456130000000  0.4817320000000 1.0
C      1  0.4543870000000  0.5182680000000  0.4543990000000 1.0
C      1  0.4817320000000  0.5456010000000  0.4543870000000 1.0
C      1  0.5456010000000  0.5456130000000  0.5182680000000 1.0
C      1  0.5456010000000  0.4543870000000  0.4817320000000 1.0
C      1  0.4543990000000  0.4543870000000  0.5182680000000 1.0
C      1  0.5456130000000  0.5182680000000  0.5456010000000 1.0
C      1  0.5456130000000  0.4817320000000  0.4543990000000 1.0
C      1  0.4543870000000  0.4817320000000  0.5456010000000 1.0
C      1  0.5182680000000  0.5456010000000  0.5456130000000 1.0
C      1  0.5182680000000  0.4543990000000  0.4543870000000 1.0
C      1  0.4817320000000  0.4543990000000  0.5456130000000 1.0
C      1  0.4829510000000  0.4318990000000  0.5173060000000 1.0
C      1  0.4318990000000  0.5173060000000  0.4829510000000 1.0
C      1  0.5173060000000  0.4829510000000  0.4318990000000 1.0
C      1  0.5170490000000  0.4318990000000  0.4826940000000 1.0
C      1  0.5170490000000  0.5681010000000  0.5173060000000 1.0
C      1  0.4829510000000  0.5681010000000  0.4826940000000 1.0
C      1  0.5681010000000  0.5173060000000  0.5170490000000 1.0
C      1  0.5681010000000  0.4826940000000  0.4829510000000 1.0
C      1  0.4318990000000  0.4826940000000  0.5170490000000 1.0
C      1  0.4826940000000  0.4829510000000  0.5681010000000 1.0
C      1  0.4826940000000  0.5170490000000  0.4318990000000 1.0
C      1  0.5173060000000  0.5170490000000  0.5681010000000 1.0
C      1  0.4829510000000  0.5681010000000  0.5173060000000 1.0
C      1  0.4318990000000  0.4826940000000  0.4829510000000 1.0
C      1  0.5173060000000  0.5170490000000  0.4318990000000 1.0
C      1  0.5170490000000  0.5681010000000  0.4826940000000 1.0
C      1  0.5170490000000  0.4318990000000  0.5173060000000 1.0
C      1  0.4829510000000  0.4318990000000  0.4826940000000 1.0
C      1  0.5681010000000  0.4826940000000  0.5170490000000 1.0
C      1  0.5681010000000  0.5173060000000  0.4829510000000 1.0
C      1  0.4318990000000  0.5173060000000  0.5170490000000 1.0
C      1  0.4826940000000  0.5170490000000  0.5681010000000 1.0
C      1  0.4826940000000  0.4829510000000  0.4318990000000 1.0
C      1  0.5173060000000  0.4829510000000  0.5681010000000 1.0
C      1  0.5000000000000  0.5183850000000  0.4700740000000 1.0
C      1  0.5299260000000  0.5000000000000  0.5183850000000 1.0
C      1  0.5299260000000  0.5000000000000  0.4816150000000 1.0
C      1  0.4700740000000  0.5000000000000  0.4816150000000 1.0
C      1  0.5000000000000  0.4816150000000  0.5299260000000 1.0
C      1  0.4700740000000  0.5000000000000  0.5183850000000 1.0
C      1  0.5000000000000  0.4816150000000  0.4700740000000 1.0
C      1  0.4816150000000  0.4700740000000  0.5000000000000 1.0
C      1  0.5000000000000  0.5183850000000  0.5299260000000 1.0
C      1  0.5183850000000  0.4700740000000  0.5000000000000 1.0
C      1  0.5183850000000  0.5299260000000  0.5000000000000 1.0
C      1  0.4816150000000  0.5299260000000  0.5000000000000 1.0
END
