TITL C-3985247-764-218 -0.00050241377860695 125000 -353.524322161232 0 0 60 (C1) n - 1
REM
REM in /home/nfs/bkarasulu/CARBON/AIRSS/Generating-Clusters/TERSOFF/Higher-Symm/Only-C60
REM
REM
REM
REM
REM
REM ./C.cell (28575a23ae977d3b5fae324c64b13b57)
REM
REM compiler GCC version 9.2.1 20190827 (Red Hat 9.2.1-1)
REM options -cpp -mtune=generic -march=x86-64 -g -O0 -fpre-include=/usr/include/finclude/math-vector-fortran.h
REM seed 1017866168 777005746 476838678 566281456 -1242105184 -1605669436 -58164632 -603369498 -158786357 -764190072 655065791 1350972100 -106302547 -1695876588 1791890710 808580639 1568228093 -1147288702 -1314783519 -792693941 1966012979 2101967198 -896636818 859306703 -1309907824 2011352704 -2110158089 -1201388023 1041421577 -117518965 -1466372148 576908322 -1838530168
REM
CELL 1.54180   50.00000   50.00000   50.00000   90.00000   90.00000   90.00000
LATT -1
SFAC C  
C      1  0.4844950000000  0.5721600000000  0.5256480000000 1.0
C      1  0.5715620000000  0.5573360000000  0.5214450000000 1.0
C      1  0.5756670000000  0.4711670000000  0.5250180000000 1.0
C      1  0.5167300000000  0.4254390000000  0.5265680000000 1.0
C      1  0.4288940000000  0.4426310000000  0.5213020000000 1.0
C      1  0.4239300000000  0.5289710000000  0.5252120000000 1.0
C      1  0.5168930000000  0.5747780000000  0.5266300000000 1.0
C      1  0.4290120000000  0.5573140000000  0.5213210000000 1.0
C      1  0.4238880000000  0.4709730000000  0.5252000000000 1.0
C      1  0.4842750000000  0.4275140000000  0.5257350000000 1.0
C      1  0.5714410000000  0.4427490000000  0.5214710000000 1.0
C      1  0.5757170000000  0.5289200000000  0.5250000000000 1.0
C      1  0.5314390000000  0.4205340000000  0.5017580000000 1.0
C      1  0.4432130000000  0.4331900000000  0.4979570000000 1.0
C      1  0.4143110000000  0.5145670000000  0.5011590000000 1.0
C      1  0.4698350000000  0.5779260000000  0.5010450000000 1.0
C      1  0.5574050000000  0.5672230000000  0.4983070000000 1.0
C      1  0.5852640000000  0.4854700000000  0.5009700000000 1.0
C      1  0.4696600000000  0.4218980000000  0.5010710000000 1.0
C      1  0.5572960000000  0.4328700000000  0.4983130000000 1.0
C      1  0.5852790000000  0.5145830000000  0.5009590000000 1.0
C      1  0.5315860000000  0.5796170000000  0.5017870000000 1.0
C      1  0.4433330000000  0.5667320000000  0.4979610000000 1.0
C      1  0.4142970000000  0.4854090000000  0.5011460000000 1.0
C      1  0.5808800000000  0.5279140000000  0.4749870000000 1.0
C      1  0.5619520000000  0.4481020000000  0.4737780000000 1.0
C      1  0.4851350000000  0.4173780000000  0.4766840000000 1.0
C      1  0.4184020000000  0.4719800000000  0.4751030000000 1.0
C      1  0.4379760000000  0.5515830000000  0.4737040000000 1.0
C      1  0.5163030000000  0.5846090000000  0.4775210000000 1.0
C      1  0.4184190000000  0.5280000000000  0.4751150000000 1.0
C      1  0.4379170000000  0.4483660000000  0.4736940000000 1.0
C      1  0.5161710000000  0.4155380000000  0.4774790000000 1.0
C      1  0.5808670000000  0.4721290000000  0.4750010000000 1.0
C      1  0.5620110000000  0.5519870000000  0.4737680000000 1.0
C      1  0.4852830000000  0.5824720000000  0.4766380000000 1.0
C      1  0.5610800000000  0.5150680000000  0.4537420000000 1.0
C      1  0.5374690000000  0.4591420000000  0.4546780000000 1.0
C      1  0.4830780000000  0.4381450000000  0.4522100000000 1.0
C      1  0.4376100000000  0.4850630000000  0.4533060000000 1.0
C      1  0.4619150000000  0.5396100000000  0.4548670000000 1.0
C      1  0.5160690000000  0.5630880000000  0.4541460000000 1.0
C      1  0.4376090000000  0.5148960000000  0.4532990000000 1.0
C      1  0.4619000000000  0.4603020000000  0.4548530000000 1.0
C      1  0.5160930000000  0.4369930000000  0.4540130000000 1.0
C      1  0.5610880000000  0.4849830000000  0.4537380000000 1.0
C      1  0.5374940000000  0.5409820000000  0.4546460000000 1.0
C      1  0.4830940000000  0.5617530000000  0.4521020000000 1.0
C      1  0.5156600000000  0.4543970000000  0.5412900000000 1.0
C      1  0.4642590000000  0.4707360000000  0.5552110000000 1.0
C      1  0.4413950000000  0.5146270000000  0.5440780000000 1.0
C      1  0.4846360000000  0.5429100000000  0.5389390000000 1.0
C      1  0.5357960000000  0.5296980000000  0.5560130000000 1.0
C      1  0.5576730000000  0.4853690000000  0.5433560000000 1.0
C      1  0.4844940000000  0.4567000000000  0.5392010000000 1.0
C      1  0.5356850000000  0.4705130000000  0.5559310000000 1.0
C      1  0.5576980000000  0.5147720000000  0.5433330000000 1.0
C      1  0.5157240000000  0.5458500000000  0.5414510000000 1.0
C      1  0.4643870000000  0.5290940000000  0.5550830000000 1.0
C      1  0.4413550000000  0.4852780000000  0.5440580000000 1.0
END
