TITL C-3985244-725-67 7.13597022028583e-08 125000 -343.247071687005 0 0 60 (D2h) n - 1
REM
REM in /home/nfs/bkarasulu/CARBON/AIRSS/Generating-Clusters/TERSOFF/Higher-Symm/Only-C60
REM
REM
REM
REM
REM
REM ./C.cell (28575a23ae977d3b5fae324c64b13b57)
REM
REM compiler GCC version 9.2.1 20190827 (Red Hat 9.2.1-1)
REM options -cpp -mtune=generic -march=x86-64 -g -O0 -fpre-include=/usr/include/finclude/math-vector-fortran.h
REM seed -768153595 -815878002 -1155003219 -1469777227 1734198828 -1787994391 -1393835042 1965563120 -54472261 939060842 -1860753879 1191962597 -282430286 2121770311 -509212880 -1866845967 -1193634224 -1787173105 -1473019098 1607010829 942098642 -1987193469 158889121 -613123136 1531154467 1791409854 2121539835 -868480377 -858144838 -1548054272 361148730 -1875205067 378451442
REM
CELL 1.54180   50.00000   50.00000   50.00000   90.00000   90.00000   90.00000
LATT -1
SFAC C  
C      1  0.4290220000000  0.4600970000000  0.4835490000000 1.0
C      1  0.5709780000000  0.4600970000000  0.5164510000000 1.0
C      1  0.4290220000000  0.5399030000000  0.4835490000000 1.0
C      1  0.5709780000000  0.5399030000000  0.5164510000000 1.0
C      1  0.5709780000000  0.4600970000000  0.4835490000000 1.0
C      1  0.4290220000000  0.4600970000000  0.5164510000000 1.0
C      1  0.5709780000000  0.5399030000000  0.4835490000000 1.0
C      1  0.4290220000000  0.5399030000000  0.5164510000000 1.0
C      1  0.4670090000000  0.4744220000000  0.4619430000000 1.0
C      1  0.5329910000000  0.4744220000000  0.5380570000000 1.0
C      1  0.4670090000000  0.5255780000000  0.4619430000000 1.0
C      1  0.5329910000000  0.5255780000000  0.5380570000000 1.0
C      1  0.5329910000000  0.4744220000000  0.4619430000000 1.0
C      1  0.4670090000000  0.4744220000000  0.5380570000000 1.0
C      1  0.5329910000000  0.5255780000000  0.4619430000000 1.0
C      1  0.4670090000000  0.5255780000000  0.5380570000000 1.0
C      1  0.5612500000000  0.5164660000000  0.5342620000000 1.0
C      1  0.4387500000000  0.5164660000000  0.4657380000000 1.0
C      1  0.5612500000000  0.4835340000000  0.5342620000000 1.0
C      1  0.4387500000000  0.4835340000000  0.4657380000000 1.0
C      1  0.4387500000000  0.5164660000000  0.5342620000000 1.0
C      1  0.5612500000000  0.5164660000000  0.4657380000000 1.0
C      1  0.4387500000000  0.4835340000000  0.5342620000000 1.0
C      1  0.5612500000000  0.4835340000000  0.4657380000000 1.0
C      1  0.5266720000000  0.5513390000000  0.4509300000000 1.0
C      1  0.4733280000000  0.5513390000000  0.5490700000000 1.0
C      1  0.5266720000000  0.4486610000000  0.4509300000000 1.0
C      1  0.4733280000000  0.4486610000000  0.5490700000000 1.0
C      1  0.4733280000000  0.5513390000000  0.4509300000000 1.0
C      1  0.5266720000000  0.5513390000000  0.5490700000000 1.0
C      1  0.4733280000000  0.4486610000000  0.4509300000000 1.0
C      1  0.5266720000000  0.4486610000000  0.5490700000000 1.0
C      1  0.4735450000000  0.5730860000000  0.5299500000000 1.0
C      1  0.5264550000000  0.5730860000000  0.4700500000000 1.0
C      1  0.4735450000000  0.4269140000000  0.5299500000000 1.0
C      1  0.5264550000000  0.4269140000000  0.4700500000000 1.0
C      1  0.5264550000000  0.5730860000000  0.5299500000000 1.0
C      1  0.4735450000000  0.5730860000000  0.4700500000000 1.0
C      1  0.5264550000000  0.4269140000000  0.5299500000000 1.0
C      1  0.4735450000000  0.4269140000000  0.4700500000000 1.0
C      1  0.4473550000000  0.5697630000000  0.4848090000000 1.0
C      1  0.5526450000000  0.5697630000000  0.5151910000000 1.0
C      1  0.4473550000000  0.4302370000000  0.4848090000000 1.0
C      1  0.5526450000000  0.4302370000000  0.5151910000000 1.0
C      1  0.5526450000000  0.5697630000000  0.4848090000000 1.0
C      1  0.4473550000000  0.5697630000000  0.5151910000000 1.0
C      1  0.5526450000000  0.4302370000000  0.4848090000000 1.0
C      1  0.4473550000000  0.4302370000000  0.5151910000000 1.0
C      1  0.5157980000000  0.5156870000000  0.5169930000000 1.0
C      1  0.4842020000000  0.5156870000000  0.4830070000000 1.0
C      1  0.5157980000000  0.4843130000000  0.5169930000000 1.0
C      1  0.4842020000000  0.4843130000000  0.4830070000000 1.0
C      1  0.4842020000000  0.5156870000000  0.5169930000000 1.0
C      1  0.5157980000000  0.5156870000000  0.4830070000000 1.0
C      1  0.4842020000000  0.4843130000000  0.5169930000000 1.0
C      1  0.5157980000000  0.4843130000000  0.4830070000000 1.0
C      1  0.5000000000000  0.4212820000000  0.4848420000000 1.0
C      1  0.5000000000000  0.4212820000000  0.5151580000000 1.0
C      1  0.5000000000000  0.5787180000000  0.4848420000000 1.0
C      1  0.5000000000000  0.5787180000000  0.5151580000000 1.0
END
