TITL C-3985259-1859-106 -5.49979233442446e-07 125000 -330.568377586115 0 0 60 (C6) n - 1
REM
REM in /home/nfs/bkarasulu/CARBON/AIRSS/Generating-Clusters/TERSOFF/Higher-Symm/Only-C60
REM
REM
REM
REM
REM
REM ./C.cell (28575a23ae977d3b5fae324c64b13b57)
REM
REM compiler GCC version 9.2.1 20190827 (Red Hat 9.2.1-1)
REM options -cpp -mtune=generic -march=x86-64 -g -O0 -fpre-include=/usr/include/finclude/math-vector-fortran.h
REM seed -93640185 -1092794420 249524750 809378599 -987509879 -228937457 -127549996 -2119648280 1786287490 1444151334 86599163 -938082771 -630074175 -1221236538 246511927 1517802752 -1416973744 -273227858 -50676866 -366249161 116898557 -2104128846 -156799910 1244045085 -641611161 -178026239 -1936389766 -640477200 306865971 740121223 -1089830935 -1345333677 -1381778999
REM
CELL 1.54180   50.00000   50.00000   50.00000   90.00000   90.00000   90.00000
LATT -1
SFAC C  
C      1  0.5129670000000  0.4975930000000  0.5312440000000 1.0
C      1  0.5129670000000  0.4717380000000  0.5135380000000 1.0
C      1  0.5129670000000  0.4741450000000  0.4822940000000 1.0
C      1  0.5129670000000  0.5024070000000  0.4687560000000 1.0
C      1  0.5129670000000  0.5282620000000  0.4864620000000 1.0
C      1  0.5129670000000  0.5258550000000  0.5177060000000 1.0
C      1  0.5395480000000  0.4697050000000  0.4652710000000 1.0
C      1  0.5395480000000  0.5149290000000  0.4563990000000 1.0
C      1  0.5395480000000  0.5452240000000  0.4911280000000 1.0
C      1  0.5395480000000  0.5302950000000  0.5347290000000 1.0
C      1  0.5395480000000  0.4850710000000  0.5436010000000 1.0
C      1  0.5395480000000  0.4547760000000  0.5088720000000 1.0
C      1  0.4244720000000  0.4836640000000  0.5251440000000 1.0
C      1  0.4244720000000  0.4700570000000  0.4984250000000 1.0
C      1  0.4244720000000  0.4863920000000  0.4732810000000 1.0
C      1  0.4244720000000  0.5163360000000  0.4748560000000 1.0
C      1  0.4244720000000  0.5299430000000  0.5015750000000 1.0
C      1  0.4244720000000  0.5136080000000  0.5267190000000 1.0
C      1  0.5646170000000  0.4706620000000  0.5052750000000 1.0
C      1  0.5646170000000  0.4807630000000  0.4772300000000 1.0
C      1  0.5646170000000  0.5101010000000  0.4719550000000 1.0
C      1  0.5646170000000  0.5293380000000  0.4947250000000 1.0
C      1  0.5646170000000  0.5192370000000  0.5227700000000 1.0
C      1  0.5646170000000  0.4898990000000  0.5280450000000 1.0
C      1  0.4483630000000  0.4732300000000  0.5412080000000 1.0
C      1  0.4483630000000  0.4509270000000  0.4974200000000 1.0
C      1  0.4483630000000  0.4776980000000  0.4562120000000 1.0
C      1  0.4483630000000  0.5267700000000  0.4587920000000 1.0
C      1  0.4483630000000  0.5490730000000  0.5025800000000 1.0
C      1  0.4483630000000  0.5223020000000  0.5437880000000 1.0
C      1  0.5007890000000  0.5655560000000  0.5014080000000 1.0
C      1  0.5007890000000  0.5315590000000  0.5574770000000 1.0
C      1  0.5007890000000  0.4660030000000  0.5560690000000 1.0
C      1  0.5007890000000  0.4344440000000  0.4985920000000 1.0
C      1  0.5007890000000  0.4684410000000  0.4425230000000 1.0
C      1  0.5007890000000  0.5339970000000  0.4439310000000 1.0
C      1  0.4927170000000  0.5487030000000  0.5319070000000 1.0
C      1  0.4927170000000  0.4967190000000  0.5581320000000 1.0
C      1  0.4927170000000  0.4480160000000  0.5262250000000 1.0
C      1  0.4927170000000  0.4512970000000  0.4680930000000 1.0
C      1  0.4927170000000  0.5032810000000  0.4418680000000 1.0
C      1  0.4927170000000  0.5519840000000  0.4737750000000 1.0
C      1  0.4626060000000  0.4527690000000  0.5240250000000 1.0
C      1  0.4626060000000  0.4555790000000  0.4711090000000 1.0
C      1  0.4626060000000  0.5028090000000  0.4470850000000 1.0
C      1  0.4626060000000  0.5472310000000  0.4759750000000 1.0
C      1  0.4626060000000  0.5444210000000  0.5288910000000 1.0
C      1  0.4626060000000  0.4971910000000  0.5529150000000 1.0
C      1  0.5214750000000  0.4986710000000  0.4221740000000 1.0
C      1  0.5214750000000  0.5667350000000  0.4599360000000 1.0
C      1  0.5214750000000  0.5680640000000  0.5377620000000 1.0
C      1  0.5214750000000  0.5013290000000  0.5778260000000 1.0
C      1  0.5214750000000  0.4332650000000  0.5400640000000 1.0
C      1  0.5214750000000  0.4319360000000  0.4622380000000 1.0
C      1  0.5324460000000  0.5418110000000  0.4424230000000 1.0
C      1  0.5324460000000  0.5707690000000  0.5074210000000 1.0
C      1  0.5324460000000  0.5289580000000  0.5649980000000 1.0
C      1  0.5324460000000  0.4581890000000  0.5575770000000 1.0
C      1  0.5324460000000  0.4292310000000  0.4925790000000 1.0
C      1  0.5324460000000  0.4710420000000  0.4350020000000 1.0
END
