TITL C-3985252-168-314 -7.11404525604996e-10 125000 -339.852055259706 0 0 60 (D2h) n - 1
REM
REM in /home/nfs/bkarasulu/CARBON/AIRSS/Generating-Clusters/TERSOFF/Higher-Symm/Only-C60
REM
REM
REM
REM
REM
REM ./C.cell (28575a23ae977d3b5fae324c64b13b57)
REM
REM compiler GCC version 9.2.1 20190827 (Red Hat 9.2.1-1)
REM options -cpp -mtune=generic -march=x86-64 -g -O0 -fpre-include=/usr/include/finclude/math-vector-fortran.h
REM seed -1188830627 1020182433 -628892049 -537622634 1498485011 1228578199 477523877 -397975017 345757529 -243042472 299363778 -598839214 1954672279 -1746179830 -988478517 -1741397067 -2068941471 134264503 1035089995 -801273556 -853205996 1182591764 -649636890 2090371359 2081753514 -1851732929 344176139 1607096014 -981039797 2094308256 1109773056 -763637375 238608615
REM
CELL 1.54180   50.00000   50.00000   50.00000   90.00000   90.00000   90.00000
LATT -1
SFAC C  
C      1  0.5577740000000  0.5228340000000  0.5158400000000 1.0
C      1  0.5577740000000  0.4771660000000  0.4841600000000 1.0
C      1  0.4422260000000  0.5228340000000  0.5158400000000 1.0
C      1  0.4422260000000  0.4771660000000  0.4841600000000 1.0
C      1  0.5577740000000  0.5228340000000  0.4841600000000 1.0
C      1  0.5577740000000  0.4771660000000  0.5158400000000 1.0
C      1  0.4422260000000  0.5228340000000  0.4841600000000 1.0
C      1  0.4422260000000  0.4771660000000  0.5158400000000 1.0
C      1  0.4729010000000  0.5149840000000  0.5701000000000 1.0
C      1  0.4729010000000  0.4850160000000  0.4299000000000 1.0
C      1  0.5270990000000  0.5149840000000  0.5701000000000 1.0
C      1  0.5270990000000  0.4850160000000  0.4299000000000 1.0
C      1  0.4729010000000  0.5149840000000  0.4299000000000 1.0
C      1  0.4729010000000  0.4850160000000  0.5701000000000 1.0
C      1  0.5270990000000  0.5149840000000  0.4299000000000 1.0
C      1  0.5270990000000  0.4850160000000  0.5701000000000 1.0
C      1  0.5574300000000  0.4463260000000  0.4827390000000 1.0
C      1  0.5574300000000  0.5536740000000  0.5172610000000 1.0
C      1  0.4425700000000  0.4463260000000  0.4827390000000 1.0
C      1  0.4425700000000  0.5536740000000  0.5172610000000 1.0
C      1  0.5574300000000  0.4463260000000  0.5172610000000 1.0
C      1  0.5574300000000  0.5536740000000  0.4827390000000 1.0
C      1  0.4425700000000  0.4463260000000  0.5172610000000 1.0
C      1  0.4425700000000  0.5536740000000  0.4827390000000 1.0
C      1  0.4840410000000  0.5326110000000  0.5471610000000 1.0
C      1  0.4840410000000  0.4673890000000  0.4528390000000 1.0
C      1  0.5159590000000  0.5326110000000  0.5471610000000 1.0
C      1  0.5159590000000  0.4673890000000  0.4528390000000 1.0
C      1  0.4840410000000  0.5326110000000  0.4528390000000 1.0
C      1  0.4840410000000  0.4673890000000  0.5471610000000 1.0
C      1  0.5159590000000  0.5326110000000  0.4528390000000 1.0
C      1  0.5159590000000  0.4673890000000  0.5471610000000 1.0
C      1  0.5314560000000  0.5595780000000  0.5316500000000 1.0
C      1  0.5314560000000  0.4404220000000  0.4683500000000 1.0
C      1  0.4685440000000  0.5595780000000  0.5316500000000 1.0
C      1  0.4685440000000  0.4404220000000  0.4683500000000 1.0
C      1  0.5314560000000  0.5595780000000  0.4683500000000 1.0
C      1  0.5314560000000  0.4404220000000  0.5316500000000 1.0
C      1  0.4685440000000  0.5595780000000  0.4683500000000 1.0
C      1  0.4685440000000  0.4404220000000  0.5316500000000 1.0
C      1  0.4709760000000  0.5151680000000  0.5247870000000 1.0
C      1  0.4709760000000  0.4848320000000  0.4752130000000 1.0
C      1  0.5290240000000  0.5151680000000  0.5247870000000 1.0
C      1  0.5290240000000  0.4848320000000  0.4752130000000 1.0
C      1  0.4709760000000  0.5151680000000  0.4752130000000 1.0
C      1  0.4709760000000  0.4848320000000  0.5247870000000 1.0
C      1  0.5290240000000  0.5151680000000  0.4752130000000 1.0
C      1  0.5290240000000  0.4848320000000  0.5247870000000 1.0
C      1  0.4845490000000  0.4212160000000  0.4836220000000 1.0
C      1  0.4845490000000  0.5787840000000  0.5163780000000 1.0
C      1  0.5154510000000  0.4212160000000  0.4836220000000 1.0
C      1  0.5154510000000  0.5787840000000  0.5163780000000 1.0
C      1  0.4845490000000  0.4212160000000  0.5163780000000 1.0
C      1  0.4845490000000  0.5787840000000  0.4836220000000 1.0
C      1  0.5154510000000  0.4212160000000  0.5163780000000 1.0
C      1  0.5154510000000  0.5787840000000  0.4836220000000 1.0
C      1  0.4858080000000  0.5209970000000  0.5000000000000 1.0
C      1  0.5141920000000  0.4790030000000  0.5000000000000 1.0
C      1  0.4858080000000  0.4790030000000  0.5000000000000 1.0
C      1  0.5141920000000  0.5209970000000  0.5000000000000 1.0
END
