TITL C-3985247-764-315 0.000148728195518317 125000 -312.454316979254 0 0 60 (C3) n - 1
REM
REM in /home/nfs/bkarasulu/CARBON/AIRSS/Generating-Clusters/TERSOFF/Higher-Symm/Only-C60
REM
REM
REM
REM
REM
REM ./C.cell (28575a23ae977d3b5fae324c64b13b57)
REM
REM compiler GCC version 9.2.1 20190827 (Red Hat 9.2.1-1)
REM options -cpp -mtune=generic -march=x86-64 -g -O0 -fpre-include=/usr/include/finclude/math-vector-fortran.h
REM seed -1697515039 854455534 -1920878450 -2000207352 -728529245 -1462346594 1261780644 1951701332 -870287365 186462242 921271185 491874899 -1591616157 852712062 802293364 -766778515 -219964115 -223702068 508402019 1505452234 -320501561 292523253 1562518450 1842064230 1418958342 1686951693 922112391 529705830 2039799903 1809591709 -435550118 1441351636 859729080
REM
CELL 1.54180   50.00000   50.00000   50.00000   90.00000   90.00000   90.00000
LATT -1
SFAC C  
C      1  0.4690700000000  0.4945760000000  0.4728930000000 1.0
C      1  0.5107890000000  0.5295150000000  0.4728440000000 1.0
C      1  0.5201780000000  0.4758630000000  0.4728650000000 1.0
C      1  0.4460500000000  0.5126150000000  0.5200460000000 1.0
C      1  0.5378870000000  0.5404120000000  0.5200660000000 1.0
C      1  0.5160570000000  0.4469640000000  0.5200350000000 1.0
C      1  0.5286820000000  0.5022410000000  0.4879820000000 1.0
C      1  0.4876150000000  0.4740110000000  0.4880080000000 1.0
C      1  0.4836820000000  0.5237190000000  0.4879670000000 1.0
C      1  0.5426080000000  0.4702180000000  0.5624050000000 1.0
C      1  0.4529080000000  0.4779340000000  0.5623900000000 1.0
C      1  0.5044120000000  0.5518240000000  0.5624420000000 1.0
C      1  0.4282980000000  0.4690360000000  0.4864480000000 1.0
C      1  0.5090440000000  0.5775920000000  0.4864250000000 1.0
C      1  0.5626840000000  0.4533630000000  0.4864300000000 1.0
C      1  0.5500860000000  0.5497570000000  0.4943650000000 1.0
C      1  0.5180690000000  0.4316970000000  0.4943230000000 1.0
C      1  0.4318470000000  0.5185040000000  0.4943500000000 1.0
C      1  0.4466920000000  0.4481650000000  0.4798220000000 1.0
C      1  0.4817740000000  0.5720830000000  0.4798160000000 1.0
C      1  0.5715350000000  0.4797410000000  0.4798240000000 1.0
C      1  0.5065720000000  0.5323350000000  0.5145090000000 1.0
C      1  0.5245820000000  0.4781330000000  0.5145480000000 1.0
C      1  0.4687510000000  0.4895780000000  0.5145720000000 1.0
C      1  0.4977970000000  0.4687420000000  0.4373690000000 1.0
C      1  0.4740250000000  0.5175380000000  0.4373600000000 1.0
C      1  0.5281710000000  0.5137280000000  0.4373680000000 1.0
C      1  0.4624230000000  0.5612950000000  0.5028240000000 1.0
C      1  0.5718660000000  0.5018900000000  0.5028280000000 1.0
C      1  0.4657120000000  0.4367900000000  0.5028110000000 1.0
C      1  0.5466320000000  0.5020500000000  0.5556990000000 1.0
C      1  0.4785190000000  0.4586370000000  0.5556540000000 1.0
C      1  0.4748870000000  0.5393130000000  0.5557080000000 1.0
C      1  0.5259840000000  0.4817950000000  0.4424790000000 1.0
C      1  0.4712470000000  0.4866080000000  0.4425190000000 1.0
C      1  0.5027630000000  0.5316040000000  0.4424650000000 1.0
C      1  0.4527810000000  0.5375470000000  0.4828520000000 1.0
C      1  0.5561060000000  0.5221180000000  0.4828630000000 1.0
C      1  0.4911120000000  0.4403200000000  0.4828420000000 1.0
C      1  0.4601930000000  0.4535800000000  0.4529050000000 1.0
C      1  0.4796900000000  0.5576840000000  0.4529000000000 1.0
C      1  0.5601030000000  0.4887430000000  0.4529090000000 1.0
C      1  0.5114020000000  0.4860240000000  0.5394690000000 1.0
C      1  0.4821760000000  0.4972200000000  0.5395260000000 1.0
C      1  0.5064750000000  0.5169140000000  0.5394960000000 1.0
C      1  0.5232270000000  0.5236450000000  0.5668320000000 1.0
C      1  0.5088330000000  0.4681900000000  0.5668350000000 1.0
C      1  0.4679600000000  0.5082550000000  0.5668790000000 1.0
C      1  0.5389850000000  0.4472430000000  0.5414330000000 1.0
C      1  0.4348360000000  0.4925940000000  0.5414330000000 1.0
C      1  0.5262040000000  0.5601180000000  0.5414880000000 1.0
C      1  0.5564410000000  0.5196970000000  0.4512870000000 1.0
C      1  0.4888370000000  0.4412690000000  0.4512740000000 1.0
C      1  0.4547120000000  0.5390410000000  0.4512740000000 1.0
C      1  0.4857380000000  0.4462930000000  0.5280130000000 1.0
C      1  0.4606410000000  0.5392010000000  0.5280390000000 1.0
C      1  0.5536150000000  0.5144680000000  0.5280260000000 1.0
C      1  0.5253360000000  0.5549720000000  0.4803190000000 1.0
C      1  0.5349630000000  0.4505500000000  0.4803060000000 1.0
C      1  0.4397390000000  0.4944430000000  0.4803430000000 1.0
END
