TITL C-3985250-725-776 -1.05864321885531e-06 125000 -335.01749704905 0 0 60 (C3) n - 1
REM
REM in /home/nfs/bkarasulu/CARBON/AIRSS/Generating-Clusters/TERSOFF/Higher-Symm/Only-C60
REM
REM
REM
REM
REM
REM ./C.cell (28575a23ae977d3b5fae324c64b13b57)
REM
REM compiler GCC version 9.2.1 20190827 (Red Hat 9.2.1-1)
REM options -cpp -mtune=generic -march=x86-64 -g -O0 -fpre-include=/usr/include/finclude/math-vector-fortran.h
REM seed -585842437 -27332004 1948419465 -677920971 -1751050570 -300765548 -320528986 1090106561 -1882790711 -1941932238 1019375554 -1042210640 24710436 -1607516133 1359078195 -29063379 231921610 642626145 -651512665 -1889401505 -1532473316 -2032222338 957315505 807437008 1499683483 -1385000192 -460408496 1036581640 805243698 -1768411267 246457268 -144019310 1569355586
REM
CELL 1.54180   50.00000   50.00000   50.00000   90.00000   90.00000   90.00000
LATT -1
SFAC C  
C      1  0.4929380000000  0.4458310000000  0.4713730000000 1.0
C      1  0.5283180000000  0.4458290000000  0.5082010000000 1.0
C      1  0.4787330000000  0.4458320000000  0.5204270000000 1.0
C      1  0.5068340000000  0.5582130000000  0.4632170000000 1.0
C      1  0.5284430000000  0.5582120000000  0.5243060000000 1.0
C      1  0.4647350000000  0.5582160000000  0.5124750000000 1.0
C      1  0.5347520000000  0.5616210000000  0.4760890000000 1.0
C      1  0.5033370000000  0.5616240000000  0.5420470000000 1.0
C      1  0.4619240000000  0.5616270000000  0.4818620000000 1.0
C      1  0.4609050000000  0.4441410000000  0.5453890000000 1.0
C      1  0.4802340000000  0.4441390000000  0.4434530000000 1.0
C      1  0.5588490000000  0.4441340000000  0.5111600000000 1.0
C      1  0.5013500000000  0.5399210000000  0.4391500000000 1.0
C      1  0.5520260000000  0.5399180000000  0.5315910000000 1.0
C      1  0.4466320000000  0.5399260000000  0.5292580000000 1.0
C      1  0.4458670000000  0.5122340000000  0.4862480000000 1.0
C      1  0.5389780000000  0.5122270000000  0.4599940000000 1.0
C      1  0.5151580000000  0.5122290000000  0.5537570000000 1.0
C      1  0.4842990000000  0.5757420000000  0.4697000000000 1.0
C      1  0.5340990000000  0.5757390000000  0.5015470000000 1.0
C      1  0.4816180000000  0.5757430000000  0.5287510000000 1.0
C      1  0.5480960000000  0.4876320000000  0.4759080000000 1.0
C      1  0.4968160000000  0.4876360000000  0.5536990000000 1.0
C      1  0.4550860000000  0.4876390000000  0.4703940000000 1.0
C      1  0.4826200000000  0.4778440000000  0.5079540000000 1.0
C      1  0.5018000000000  0.4778420000000  0.4809740000000 1.0
C      1  0.5155750000000  0.4778410000000  0.5110730000000 1.0
C      1  0.5023030000000  0.5313320000000  0.4802510000000 1.0
C      1  0.5159550000000  0.5313310000000  0.5118660000000 1.0
C      1  0.4817490000000  0.5313330000000  0.5078820000000 1.0
C      1  0.5599800000000  0.5250480000000  0.5063150000000 1.0
C      1  0.4645440000000  0.5250560000000  0.5487850000000 1.0
C      1  0.4754820000000  0.5250540000000  0.4449000000000 1.0
C      1  0.5650910000000  0.4460820000000  0.4813360000000 1.0
C      1  0.4836120000000  0.4460880000000  0.5657070000000 1.0
C      1  0.4512850000000  0.4460890000000  0.4529590000000 1.0
C      1  0.4564320000000  0.5351980000000  0.4680770000000 1.0
C      1  0.5494330000000  0.5351910000000  0.4782280000000 1.0
C      1  0.4941420000000  0.5351960000000  0.5536940000000 1.0
C      1  0.4706930000000  0.4411970000000  0.4913720000000 1.0
C      1  0.5221200000000  0.4411940000000  0.4789370000000 1.0
C      1  0.5071750000000  0.4411950000000  0.5296920000000 1.0
C      1  0.4674390000000  0.5042310000000  0.5118230000000 1.0
C      1  0.5060420000000  0.5042280000000  0.4658900000000 1.0
C      1  0.5265200000000  0.5042270000000  0.5222880000000 1.0
C      1  0.5583000000000  0.4694480000000  0.5274840000000 1.0
C      1  0.4470450000000  0.4694550000000  0.5367500000000 1.0
C      1  0.4946480000000  0.4694510000000  0.4357670000000 1.0
C      1  0.4796170000000  0.4939650000000  0.4491770000000 1.0
C      1  0.5542050000000  0.4939610000000  0.5077600000000 1.0
C      1  0.4661770000000  0.4939670000000  0.5430630000000 1.0
C      1  0.5254500000000  0.5234800000000  0.4340310000000 1.0
C      1  0.5444080000000  0.5234800000000  0.5550230000000 1.0
C      1  0.4301470000000  0.5234870000000  0.5109450000000 1.0
C      1  0.4471930000000  0.4595350000000  0.4816250000000 1.0
C      1  0.5423120000000  0.4595280000000  0.4634580000000 1.0
C      1  0.5104860000000  0.4595310000000  0.5549170000000 1.0
C      1  0.5419580000000  0.4673010000000  0.5534320000000 1.0
C      1  0.4327440000000  0.4673090000000  0.5096230000000 1.0
C      1  0.5252910000000  0.4673010000000  0.4369460000000 1.0
END
