TITL C-3985254-1270-109 0.000129227405306691 125000 -314.8961480922 0 0 60 (C1) n - 1
REM
REM in /home/nfs/bkarasulu/CARBON/AIRSS/Generating-Clusters/TERSOFF/Higher-Symm/Only-C60
REM
REM
REM
REM
REM
REM ./C.cell (28575a23ae977d3b5fae324c64b13b57)
REM
REM compiler GCC version 9.2.1 20190827 (Red Hat 9.2.1-1)
REM options -cpp -mtune=generic -march=x86-64 -g -O0 -fpre-include=/usr/include/finclude/math-vector-fortran.h
REM seed -1545809218 820598688 76960427 728781907 -1182898251 1132727817 1750567531 -1279456231 -2121000438 2014719445 -58772423 -425368008 1692028543 -1131601561 -1484378646 -602247428 563472819 1365405804 -936428209 -479810109 1392704215 1753910169 1338057096 1247127790 -153768777 2005917338 -995701701 -1946004926 -1242453999 -367393474 2067958204 -1640026021 -247262331
REM
CELL 1.54180   50.00000   50.00000   50.00000   90.00000   90.00000   90.00000
LATT -1
SFAC C  
C      1  0.4682130000000  0.5603380000000  0.4856220000000 1.0
C      1  0.4730630000000  0.4639820000000  0.5269610000000 1.0
C      1  0.5290320000000  0.4990010000000  0.4941050000000 1.0
C      1  0.4961400000000  0.5294950000000  0.4893450000000 1.0
C      1  0.5067800000000  0.4727790000000  0.5335690000000 1.0
C      1  0.5630990000000  0.5275720000000  0.5521190000000 1.0
C      1  0.5520240000000  0.4658770000000  0.4735550000000 1.0
C      1  0.5389450000000  0.5237570000000  0.4803120000000 1.0
C      1  0.4469630000000  0.4986430000000  0.5558530000000 1.0
C      1  0.4994110000000  0.5134740000000  0.5600790000000 1.0
C      1  0.4876050000000  0.5587460000000  0.5400470000000 1.0
C      1  0.4909280000000  0.5655220000000  0.5102870000000 1.0
C      1  0.4273760000000  0.5220160000000  0.4869870000000 1.0
C      1  0.4874460000000  0.4673260000000  0.4380590000000 1.0
C      1  0.5815660000000  0.4963260000000  0.5167480000000 1.0
C      1  0.4758990000000  0.4759810000000  0.4950480000000 1.0
C      1  0.5773360000000  0.5095510000000  0.4894910000000 1.0
C      1  0.4553640000000  0.5297150000000  0.4793900000000 1.0
C      1  0.5001820000000  0.4993090000000  0.5017630000000 1.0
C      1  0.4741160000000  0.5003290000000  0.4693080000000 1.0
C      1  0.4580940000000  0.4399850000000  0.4827570000000 1.0
C      1  0.4522880000000  0.4714390000000  0.5466290000000 1.0
C      1  0.4565950000000  0.5461740000000  0.5359590000000 1.0
C      1  0.4729770000000  0.5267520000000  0.5172790000000 1.0
C      1  0.4946990000000  0.4214550000000  0.5166960000000 1.0
C      1  0.5229420000000  0.4733420000000  0.4775410000000 1.0
C      1  0.5277000000000  0.5332920000000  0.4522130000000 1.0
C      1  0.5633020000000  0.5379270000000  0.4930620000000 1.0
C      1  0.5414880000000  0.5479530000000  0.5144490000000 1.0
C      1  0.4255430000000  0.4803880000000  0.5084810000000 1.0
C      1  0.4429540000000  0.4699570000000  0.4865210000000 1.0
C      1  0.5449380000000  0.4316920000000  0.5067240000000 1.0
C      1  0.4353620000000  0.4796330000000  0.4551400000000 1.0
C      1  0.5616890000000  0.4735700000000  0.5225510000000 1.0
C      1  0.4880430000000  0.5024710000000  0.5342610000000 1.0
C      1  0.5054600000000  0.4868980000000  0.4559110000000 1.0
C      1  0.5618350000000  0.4538530000000  0.4985060000000 1.0
C      1  0.5157620000000  0.4945320000000  0.5751110000000 1.0
C      1  0.5099460000000  0.5399070000000  0.5529840000000 1.0
C      1  0.5193550000000  0.5630360000000  0.4681530000000 1.0
C      1  0.4945080000000  0.5329810000000  0.4527730000000 1.0
C      1  0.5339300000000  0.5020020000000  0.4448440000000 1.0
C      1  0.5217610000000  0.4678750000000  0.5630350000000 1.0
C      1  0.5432900000000  0.4544190000000  0.5425630000000 1.0
C      1  0.4867860000000  0.4914300000000  0.4185900000000 1.0
C      1  0.4614470000000  0.4570670000000  0.4511520000000 1.0
C      1  0.5627990000000  0.4925410000000  0.4643240000000 1.0
C      1  0.4872680000000  0.5640190000000  0.4608490000000 1.0
C      1  0.5183700000000  0.4406400000000  0.5197320000000 1.0
C      1  0.4241570000000  0.5096350000000  0.5141020000000 1.0
C      1  0.5855700000000  0.5140480000000  0.5398040000000 1.0
C      1  0.4374520000000  0.5202100000000  0.5386360000000 1.0
C      1  0.5049300000000  0.4577030000000  0.4944090000000 1.0
C      1  0.5367130000000  0.5289550000000  0.5376610000000 1.0
C      1  0.5345560000000  0.4949680000000  0.5253120000000 1.0
C      1  0.4164160000000  0.5029730000000  0.4668170000000 1.0
C      1  0.4776560000000  0.5172300000000  0.4311090000000 1.0
C      1  0.5170480000000  0.5547220000000  0.4983330000000 1.0
C      1  0.4522800000000  0.5056020000000  0.4451510000000 1.0
C      1  0.4706040000000  0.4369870000000  0.5112290000000 1.0
END
