TITL C-3985247-764-415 0.00100042460468748 125000 -326.201432485764 0 0 60 (Cs) n - 1
REM
REM in /home/nfs/bkarasulu/CARBON/AIRSS/Generating-Clusters/TERSOFF/Higher-Symm/Only-C60
REM
REM
REM
REM
REM
REM ./C.cell (28575a23ae977d3b5fae324c64b13b57)
REM
REM compiler GCC version 9.2.1 20190827 (Red Hat 9.2.1-1)
REM options -cpp -mtune=generic -march=x86-64 -g -O0 -fpre-include=/usr/include/finclude/math-vector-fortran.h
REM seed 442326991 347317156 -207691930 1703481935 1318776246 -175241848 536393968 1180239893 -906453018 145757562 955610591 -899461385 -487623210 407679673 956084101 1765024744 -68015136 1356435595 -1206765726 -1806091506 -1753394273 -2137954345 1306472638 559769799 118604041 -2043832581 -1311066019 1843774831 -606661705 -1896212748 -56367453 -1070976242 -2131811404
REM
CELL 1.54180   50.00000   50.00000   50.00000   90.00000   90.00000   90.00000
LATT -1
SFAC C  
C      1  0.4683490000000  0.5765450000000  0.5061560000000 1.0
C      1  0.5833610000000  0.4918060000000  0.5057460000000 1.0
C      1  0.4504760000000  0.4322070000000  0.5049610000000 1.0
C      1  0.5316630000000  0.5765600000000  0.5061570000000 1.0
C      1  0.4166200000000  0.4918420000000  0.5057380000000 1.0
C      1  0.5495260000000  0.4322040000000  0.5049640000000 1.0
C      1  0.4855050000000  0.5721890000000  0.4804900000000 1.0
C      1  0.5708480000000  0.4765340000000  0.4813210000000 1.0
C      1  0.4444140000000  0.4517950000000  0.4813290000000 1.0
C      1  0.5144990000000  0.5721890000000  0.4804970000000 1.0
C      1  0.4291620000000  0.4765530000000  0.4813300000000 1.0
C      1  0.5555840000000  0.4517860000000  0.4813250000000 1.0
C      1  0.5150100000000  0.5259930000000  0.5584970000000 1.0
C      1  0.5148700000000  0.4743590000000  0.5588990000000 1.0
C      1  0.4701250000000  0.5003510000000  0.5587760000000 1.0
C      1  0.4850010000000  0.5259930000000  0.5585060000000 1.0
C      1  0.4851310000000  0.4743570000000  0.5589010000000 1.0
C      1  0.5298810000000  0.5003510000000  0.5587680000000 1.0
C      1  0.4752170000000  0.4588640000000  0.4840970000000 1.0
C      1  0.4756680000000  0.5425190000000  0.4812940000000 1.0
C      1  0.5489660000000  0.4990930000000  0.4828640000000 1.0
C      1  0.5247860000000  0.4588570000000  0.4840960000000 1.0
C      1  0.5243170000000  0.5425070000000  0.4813350000000 1.0
C      1  0.4510440000000  0.4991060000000  0.4828800000000 1.0
C      1  0.5307150000000  0.5005170000000  0.5080980000000 1.0
C      1  0.4850390000000  0.4742010000000  0.5080890000000 1.0
C      1  0.4845330000000  0.5264060000000  0.5073590000000 1.0
C      1  0.4692940000000  0.5005220000000  0.5080990000000 1.0
C      1  0.5149710000000  0.4741980000000  0.5080870000000 1.0
C      1  0.5154620000000  0.5264010000000  0.5073730000000 1.0
C      1  0.4837610000000  0.4338100000000  0.4516420000000 1.0
C      1  0.4542490000000  0.5371170000000  0.4445140000000 1.0
C      1  0.5708310000000  0.5323070000000  0.4594900000000 1.0
C      1  0.5162420000000  0.4338000000000  0.4516440000000 1.0
C      1  0.5457210000000  0.5372160000000  0.4445610000000 1.0
C      1  0.4291480000000  0.5322420000000  0.4594560000000 1.0
C      1  0.5303610000000  0.4978960000000  0.4596290000000 1.0
C      1  0.4842990000000  0.4702010000000  0.4553790000000 1.0
C      1  0.4822440000000  0.5254270000000  0.4540740000000 1.0
C      1  0.4696270000000  0.4978980000000  0.4596420000000 1.0
C      1  0.5156960000000  0.4701910000000  0.4553800000000 1.0
C      1  0.5177240000000  0.5254310000000  0.4540870000000 1.0
C      1  0.5465510000000  0.4987260000000  0.5339680000000 1.0
C      1  0.4757270000000  0.4608100000000  0.5338310000000 1.0
C      1  0.4783060000000  0.5414120000000  0.5336470000000 1.0
C      1  0.4534630000000  0.4987330000000  0.5339680000000 1.0
C      1  0.5242760000000  0.4608090000000  0.5338300000000 1.0
C      1  0.5217110000000  0.5414110000000  0.5336470000000 1.0
C      1  0.4463970000000  0.5494050000000  0.4971560000000 1.0
C      1  0.5713830000000  0.5224160000000  0.4894080000000 1.0
C      1  0.4819320000000  0.4266420000000  0.4869910000000 1.0
C      1  0.5536100000000  0.5494090000000  0.4971470000000 1.0
C      1  0.4286130000000  0.5224370000000  0.4893820000000 1.0
C      1  0.5180690000000  0.4266380000000  0.4869940000000 1.0
C      1  0.5521590000000  0.4506090000000  0.5302770000000 1.0
C      1  0.4310790000000  0.4790970000000  0.5307420000000 1.0
C      1  0.5156140000000  0.5707070000000  0.5312270000000 1.0
C      1  0.4478400000000  0.4506140000000  0.5302720000000 1.0
C      1  0.5689230000000  0.4790750000000  0.5307530000000 1.0
C      1  0.4844080000000  0.5707070000000  0.5312290000000 1.0
END
