TITL C-3985245-9316-50 2.24199288528038e-07 125000 -339.80140152121 0 0 60 (C5) n - 1
REM
REM in /home/nfs/bkarasulu/CARBON/AIRSS/Generating-Clusters/TERSOFF/Higher-Symm/Only-C60
REM
REM
REM
REM
REM
REM ./C.cell (28575a23ae977d3b5fae324c64b13b57)
REM
REM compiler GCC version 9.2.1 20190827 (Red Hat 9.2.1-1)
REM options -cpp -mtune=generic -march=x86-64 -g -O0 -fpre-include=/usr/include/finclude/math-vector-fortran.h
REM seed 1716164051 1454996571 266264401 1408967218 1141101865 -1014354893 -760371330 -1172143648 1585967808 -1069835361 1130468493 -2139327639 1844455316 -577144345 -1622804714 202144569 595981858 224375571 1455400271 -1647547036 -614087852 1463194276 1126495427 688301610 1032121204 1016893704 540014822 -746996625 1841492303 487589115 433438581 1586781196 2061639206
REM
CELL 1.54180   50.00000   50.00000   50.00000   90.00000   90.00000   90.00000
LATT -1
SFAC C  
C      1  0.5547780000000  0.4497950000000  0.5300310000000 1.0
C      1  0.4691680000000  0.4323820000000  0.5300050000000 1.0
C      1  0.4261540000000  0.5084210000000  0.5299800000000 1.0
C      1  0.4851780000000  0.5728270000000  0.5299910000000 1.0
C      1  0.5646720000000  0.5365950000000  0.5300220000000 1.0
C      1  0.4477310000000  0.5278000000000  0.5341230000000 1.0
C      1  0.5102760000000  0.5582940000000  0.5341400000000 1.0
C      1  0.5586040000000  0.5082340000000  0.5341620000000 1.0
C      1  0.5259280000000  0.4468010000000  0.5341600000000 1.0
C      1  0.4574050000000  0.4588940000000  0.5341350000000 1.0
C      1  0.5062780000000  0.5301670000000  0.5474550000000 1.0
C      1  0.5306140000000  0.5033410000000  0.5474670000000 1.0
C      1  0.5126210000000  0.4719070000000  0.5474650000000 1.0
C      1  0.4771650000000  0.4793050000000  0.5474520000000 1.0
C      1  0.4732450000000  0.5153120000000  0.5474460000000 1.0
C      1  0.4410670000000  0.4952380000000  0.5078500000000 1.0
C      1  0.4772570000000  0.5545750000000  0.5078540000000 1.0
C      1  0.5448730000000  0.5384930000000  0.5078790000000 1.0
C      1  0.5504730000000  0.4692160000000  0.5078900000000 1.0
C      1  0.4863170000000  0.4424830000000  0.5078720000000 1.0
C      1  0.5141600000000  0.4343320000000  0.5089560000000 1.0
C      1  0.4419180000000  0.4662390000000  0.5089280000000 1.0
C      1  0.4499390000000  0.5448040000000  0.5089200000000 1.0
C      1  0.5271390000000  0.5614540000000  0.5089430000000 1.0
C      1  0.5668290000000  0.4931780000000  0.5089660000000 1.0
C      1  0.5307260000000  0.5421320000000  0.4628200000000 1.0
C      1  0.5495780000000  0.4838050000000  0.4628340000000 1.0
C      1  0.4999320000000  0.4478520000000  0.4628220000000 1.0
C      1  0.4503970000000  0.4839590000000  0.4628010000000 1.0
C      1  0.4694290000000  0.5422270000000  0.4628000000000 1.0
C      1  0.5264730000000  0.4914750000000  0.4462830000000 1.0
C      1  0.5000910000000  0.4722000000000  0.4462770000000 1.0
C      1  0.4736080000000  0.4913340000000  0.4462660000000 1.0
C      1  0.4836220000000  0.5224340000000  0.4462650000000 1.0
C      1  0.5162940000000  0.5225210000000  0.4462750000000 1.0
C      1  0.5634020000000  0.5047320000000  0.4802060000000 1.0
C      1  0.5241000000000  0.4411680000000  0.4802020000000 1.0
C      1  0.4515010000000  0.4589040000000  0.4801750000000 1.0
C      1  0.4459350000000  0.5334300000000  0.4801630000000 1.0
C      1  0.5150940000000  0.5617540000000  0.4801830000000 1.0
C      1  0.4857020000000  0.5612630000000  0.4797440000000 1.0
C      1  0.5538540000000  0.5325340000000  0.4797700000000 1.0
C      1  0.5475900000000  0.4588400000000  0.4797780000000 1.0
C      1  0.4755680000000  0.4420240000000  0.4797560000000 1.0
C      1  0.4373190000000  0.5053250000000  0.4797350000000 1.0
C      1  0.5264340000000  0.5028270000000  0.5805200000000 1.0
C      1  0.5108290000000  0.4757160000000  0.5805190000000 1.0
C      1  0.4802220000000  0.4821790000000  0.5805070000000 1.0
C      1  0.4769120000000  0.5132850000000  0.5805020000000 1.0
C      1  0.5054720000000  0.5260460000000  0.5805100000000 1.0
C      1  0.5000900000000  0.4726140000000  0.4128220000000 1.0
C      1  0.4740140000000  0.4914710000000  0.4128110000000 1.0
C      1  0.4838890000000  0.5220980000000  0.4128100000000 1.0
C      1  0.5160690000000  0.5221700000000  0.4128210000000 1.0
C      1  0.5260820000000  0.4915880000000  0.4128280000000 1.0
C      1  0.5202980000000  0.5172150000000  0.5092240000000 1.0
C      1  0.5226410000000  0.4860130000000  0.5092290000000 1.0
C      1  0.4936910000000  0.4741420000000  0.5092210000000 1.0
C      1  0.4734550000000  0.4980080000000  0.5092110000000 1.0
C      1  0.4898990000000  0.5246280000000  0.5092130000000 1.0
END
