TITL C-3985257-5396-122 9.28000380750266e-08 125000 -289.818337062755 0 0 60 (Td) n - 1
REM
REM in /home/nfs/bkarasulu/CARBON/AIRSS/Generating-Clusters/TERSOFF/Higher-Symm/Only-C60
REM
REM
REM
REM
REM
REM ./C.cell (28575a23ae977d3b5fae324c64b13b57)
REM
REM compiler GCC version 9.2.1 20190827 (Red Hat 9.2.1-1)
REM options -cpp -mtune=generic -march=x86-64 -g -O0 -fpre-include=/usr/include/finclude/math-vector-fortran.h
REM seed -561236927 -1288898210 1067215475 -1920254309 -1539576680 620763384 1941630943 -1570494787 -2028091636 -849924277 -1710552967 437412729 1250048226 442710893 213048374 -383444372 -1163307458 198698485 1184769249 -1710374071 -730379473 -520147124 1714781084 -1738188658 253297698 2168622 -1269643605 1842328435 -1777121752 195198137 -1717218783 1115631087 1189413387
REM
CELL 1.54180   50.00000   50.00000   50.00000   90.00000   90.00000   90.00000
LATT -1
SFAC C  
C      1  0.5284560000000  0.5055130000000  0.4404070000000 1.0
C      1  0.5055130000000  0.4404070000000  0.5284560000000 1.0
C      1  0.4404070000000  0.5284560000000  0.5055130000000 1.0
C      1  0.4715440000000  0.5055130000000  0.5595930000000 1.0
C      1  0.4715440000000  0.4944870000000  0.4404070000000 1.0
C      1  0.5284560000000  0.4944870000000  0.5595930000000 1.0
C      1  0.4944870000000  0.4404070000000  0.4715440000000 1.0
C      1  0.4944870000000  0.5595930000000  0.5284560000000 1.0
C      1  0.5055130000000  0.5595930000000  0.4715440000000 1.0
C      1  0.5595930000000  0.5284560000000  0.4944870000000 1.0
C      1  0.5595930000000  0.4715440000000  0.5055130000000 1.0
C      1  0.4404070000000  0.4715440000000  0.4944870000000 1.0
C      1  0.4404070000000  0.5055130000000  0.5284560000000 1.0
C      1  0.5284560000000  0.4404070000000  0.5055130000000 1.0
C      1  0.5055130000000  0.5284560000000  0.4404070000000 1.0
C      1  0.5595930000000  0.5055130000000  0.4715440000000 1.0
C      1  0.4404070000000  0.4944870000000  0.4715440000000 1.0
C      1  0.5595930000000  0.4944870000000  0.5284560000000 1.0
C      1  0.4715440000000  0.4404070000000  0.4944870000000 1.0
C      1  0.5284560000000  0.5595930000000  0.4944870000000 1.0
C      1  0.4715440000000  0.5595930000000  0.5055130000000 1.0
C      1  0.4944870000000  0.5284560000000  0.5595930000000 1.0
C      1  0.5055130000000  0.4715440000000  0.5595930000000 1.0
C      1  0.4944870000000  0.4715440000000  0.4404070000000 1.0
C      1  0.4570210000000  0.4779830000000  0.5645730000000 1.0
C      1  0.4779830000000  0.5645730000000  0.4570210000000 1.0
C      1  0.5645730000000  0.4570210000000  0.4779830000000 1.0
C      1  0.5429790000000  0.4779830000000  0.4354270000000 1.0
C      1  0.5429790000000  0.5220170000000  0.5645730000000 1.0
C      1  0.4570210000000  0.5220170000000  0.4354270000000 1.0
C      1  0.5220170000000  0.5645730000000  0.5429790000000 1.0
C      1  0.5220170000000  0.4354270000000  0.4570210000000 1.0
C      1  0.4779830000000  0.4354270000000  0.5429790000000 1.0
C      1  0.4354270000000  0.4570210000000  0.5220170000000 1.0
C      1  0.4354270000000  0.5429790000000  0.4779830000000 1.0
C      1  0.5645730000000  0.5429790000000  0.5220170000000 1.0
C      1  0.5645730000000  0.4779830000000  0.4570210000000 1.0
C      1  0.4570210000000  0.5645730000000  0.4779830000000 1.0
C      1  0.4779830000000  0.4570210000000  0.5645730000000 1.0
C      1  0.4354270000000  0.4779830000000  0.5429790000000 1.0
C      1  0.5645730000000  0.5220170000000  0.5429790000000 1.0
C      1  0.4354270000000  0.5220170000000  0.4570210000000 1.0
C      1  0.5429790000000  0.5645730000000  0.5220170000000 1.0
C      1  0.4570210000000  0.4354270000000  0.5220170000000 1.0
C      1  0.5429790000000  0.4354270000000  0.4779830000000 1.0
C      1  0.5220170000000  0.4570210000000  0.4354270000000 1.0
C      1  0.4779830000000  0.5429790000000  0.4354270000000 1.0
C      1  0.5220170000000  0.5429790000000  0.5645730000000 1.0
C      1  0.5258440000000  0.4998880000000  0.5258440000000 1.0
C      1  0.4741560000000  0.4998880000000  0.4741560000000 1.0
C      1  0.4741560000000  0.5001120000000  0.5258440000000 1.0
C      1  0.5258440000000  0.5001120000000  0.4741560000000 1.0
C      1  0.5001120000000  0.5258440000000  0.4741560000000 1.0
C      1  0.5001120000000  0.4741560000000  0.5258440000000 1.0
C      1  0.4998880000000  0.5258440000000  0.5258440000000 1.0
C      1  0.4998880000000  0.4741560000000  0.4741560000000 1.0
C      1  0.4741560000000  0.5258440000000  0.5001120000000 1.0
C      1  0.5258440000000  0.4741560000000  0.5001120000000 1.0
C      1  0.5258440000000  0.5258440000000  0.4998880000000 1.0
C      1  0.4741560000000  0.4741560000000  0.4998880000000 1.0
END
