TITL C-3985245-9316-238 1.35093610079463e-05 125000 -302.440641733911 0 0 60 (C2h) n - 1
REM
REM in /home/nfs/bkarasulu/CARBON/AIRSS/Generating-Clusters/TERSOFF/Higher-Symm/Only-C60
REM
REM
REM
REM
REM
REM ./C.cell (28575a23ae977d3b5fae324c64b13b57)
REM
REM compiler GCC version 9.2.1 20190827 (Red Hat 9.2.1-1)
REM options -cpp -mtune=generic -march=x86-64 -g -O0 -fpre-include=/usr/include/finclude/math-vector-fortran.h
REM seed 1117514200 2099663119 675432152 -114352112 -2130351235 486564567 2087196415 -674485882 1895938188 163656578 486725374 -1292061659 -1278627547 -782076563 274798031 -12333850 446494700 -398701408 1939107101 680661280 479521157 -863387715 1155041681 162108552 1694402887 1184847399 -786472254 951265579 1400916569 -1416080823 387629698 1829250041 1425609626
REM
CELL 1.54180   50.00000   50.00000   50.00000   90.00000   90.00000   90.00000
LATT -1
SFAC C  
C      1  0.5115890000000  0.5295670000000  0.4355130000000 1.0
C      1  0.4884110000000  0.5295670000000  0.5644870000000 1.0
C      1  0.5115900000000  0.4704330000000  0.4355130000000 1.0
C      1  0.4884100000000  0.4704330000000  0.5644870000000 1.0
C      1  0.4438830000000  0.4481420000000  0.4891510000000 1.0
C      1  0.5561170000000  0.4481420000000  0.5108490000000 1.0
C      1  0.4438830000000  0.5518580000000  0.4891520000000 1.0
C      1  0.5561170000000  0.5518580000000  0.5108480000000 1.0
C      1  0.4845320000000  0.4852080000000  0.4383940000000 1.0
C      1  0.5154680000000  0.4852080000000  0.5616060000000 1.0
C      1  0.4845320000000  0.5147920000000  0.4383940000000 1.0
C      1  0.5154680000000  0.5147920000000  0.5616050000000 1.0
C      1  0.4648170000000  0.4848340000000  0.5491630000000 1.0
C      1  0.5351840000000  0.4848340000000  0.4508370000000 1.0
C      1  0.4648170000000  0.5151660000000  0.5491630000000 1.0
C      1  0.5351840000000  0.5151660000000  0.4508370000000 1.0
C      1  0.5059050000000  0.4429120000000  0.4489880000000 1.0
C      1  0.4940950000000  0.4429120000000  0.5510120000000 1.0
C      1  0.5059040000000  0.5570880000000  0.4489880000000 1.0
C      1  0.4940950000000  0.5570880000000  0.5510120000000 1.0
C      1  0.4952620000000  0.5142050000000  0.5204240000000 1.0
C      1  0.5047380000000  0.5142050000000  0.4795760000000 1.0
C      1  0.4952620000000  0.4857950000000  0.5204240000000 1.0
C      1  0.5047380000000  0.4857950000000  0.4795760000000 1.0
C      1  0.4814100000000  0.4669080000000  0.5932300000000 1.0
C      1  0.5185900000000  0.4669080000000  0.4067700000000 1.0
C      1  0.4814100000000  0.5330920000000  0.5932300000000 1.0
C      1  0.5185900000000  0.5330920000000  0.4067700000000 1.0
C      1  0.4661160000000  0.4722740000000  0.4580800000000 1.0
C      1  0.5338840000000  0.4722750000000  0.5419200000000 1.0
C      1  0.4661150000000  0.5277260000000  0.4580790000000 1.0
C      1  0.5338850000000  0.5277250000000  0.5419200000000 1.0
C      1  0.5259140000000  0.4218060000000  0.4792320000000 1.0
C      1  0.4740860000000  0.4218060000000  0.5207680000000 1.0
C      1  0.5259130000000  0.5781940000000  0.4792320000000 1.0
C      1  0.4740860000000  0.5781940000000  0.5207680000000 1.0
C      1  0.5593200000000  0.4836740000000  0.5059710000000 1.0
C      1  0.4406800000000  0.4836740000000  0.4940290000000 1.0
C      1  0.5593200000000  0.5163260000000  0.5059710000000 1.0
C      1  0.4406800000000  0.5163260000000  0.4940290000000 1.0
C      1  0.4656270000000  0.4333620000000  0.4738730000000 1.0
C      1  0.5343730000000  0.4333620000000  0.5261270000000 1.0
C      1  0.4656270000000  0.5666380000000  0.4738730000000 1.0
C      1  0.5343730000000  0.5666380000000  0.5261270000000 1.0
C      1  0.4645160000000  0.4718510000000  0.5169730000000 1.0
C      1  0.5354840000000  0.4718510000000  0.4830270000000 1.0
C      1  0.4645160000000  0.5281490000000  0.5169730000000 1.0
C      1  0.5354840000000  0.5281490000000  0.4830270000000 1.0
C      1  0.4796360000000  0.5284170000000  0.4841800000000 1.0
C      1  0.5203640000000  0.5284170000000  0.5158200000000 1.0
C      1  0.4796360000000  0.4715830000000  0.4841800000000 1.0
C      1  0.5203640000000  0.4715830000000  0.5158200000000 1.0
C      1  0.4530850000000  0.4415150000000  0.5182390000000 1.0
C      1  0.5469150000000  0.4415150000000  0.4817610000000 1.0
C      1  0.4530850000000  0.5584850000000  0.5182390000000 1.0
C      1  0.5469150000000  0.5584850000000  0.4817610000000 1.0
C      1  0.4965080000000  0.5667240000000  0.4821130000000 1.0
C      1  0.5034920000000  0.5667240000000  0.5178870000000 1.0
C      1  0.4965080000000  0.4332760000000  0.4821130000000 1.0
C      1  0.5034920000000  0.4332760000000  0.5178870000000 1.0
END
