TITL C-3985254-1270-504 -1.12491419885876e-06 125000 -302.123509627584 0 0 60 (D4) n - 1
REM
REM in /home/nfs/bkarasulu/CARBON/AIRSS/Generating-Clusters/TERSOFF/Higher-Symm/Only-C60
REM
REM
REM
REM
REM
REM ./C.cell (28575a23ae977d3b5fae324c64b13b57)
REM
REM compiler GCC version 9.2.1 20190827 (Red Hat 9.2.1-1)
REM options -cpp -mtune=generic -march=x86-64 -g -O0 -fpre-include=/usr/include/finclude/math-vector-fortran.h
REM seed 148712380 -1623363015 -333607115 -455388046 1521783341 1425142764 -1800589433 1194626171 -1229277917 46306618 54255750 -149983206 798233279 1319185534 -1667297576 -1141454264 1616642213 1798657581 -488219651 901959009 1842645145 -293755971 -730931443 -1106380923 -2079301801 905286058 -406517054 -946821460 983931812 -43351213 -434756769 1071971850 2065605030
REM
CELL 1.54180   50.00000   50.00000   50.00000   90.00000   90.00000   90.00000
LATT -1
SFAC C  
C      1  0.4559080000000  0.4697570000000  0.4525120000000 1.0
C      1  0.4525120000000  0.4697570000000  0.5440920000000 1.0
C      1  0.5440920000000  0.4697570000000  0.5474880000000 1.0
C      1  0.5474880000000  0.4697570000000  0.4559080000000 1.0
C      1  0.4559080000000  0.5323150000000  0.5474880000000 1.0
C      1  0.4525120000000  0.5323150000000  0.4559080000000 1.0
C      1  0.5440920000000  0.5323150000000  0.4525120000000 1.0
C      1  0.5474880000000  0.5323150000000  0.5440920000000 1.0
C      1  0.4786410000000  0.5271270000000  0.4934460000000 1.0
C      1  0.4934460000000  0.5271270000000  0.5213590000000 1.0
C      1  0.5213590000000  0.5271270000000  0.5065540000000 1.0
C      1  0.5065540000000  0.5271270000000  0.4786410000000 1.0
C      1  0.4786410000000  0.4749450000000  0.5065540000000 1.0
C      1  0.4934460000000  0.4749450000000  0.4786410000000 1.0
C      1  0.5213590000000  0.4749450000000  0.4934460000000 1.0
C      1  0.5065540000000  0.4749450000000  0.5213590000000 1.0
C      1  0.5433890000000  0.5498980000000  0.5116570000000 1.0
C      1  0.5116570000000  0.5498980000000  0.4566110000000 1.0
C      1  0.4566110000000  0.5498980000000  0.4883430000000 1.0
C      1  0.4883430000000  0.5498980000000  0.5433890000000 1.0
C      1  0.5433890000000  0.4521740000000  0.4883430000000 1.0
C      1  0.5116570000000  0.4521740000000  0.5433890000000 1.0
C      1  0.4566110000000  0.4521740000000  0.5116570000000 1.0
C      1  0.4883430000000  0.4521740000000  0.4566110000000 1.0
C      1  0.4776880000000  0.5721890000000  0.4937470000000 1.0
C      1  0.4937470000000  0.5721890000000  0.5223120000000 1.0
C      1  0.5223120000000  0.5721890000000  0.5062530000000 1.0
C      1  0.5062530000000  0.5721890000000  0.4776880000000 1.0
C      1  0.4776880000000  0.4298830000000  0.5062540000000 1.0
C      1  0.4937460000000  0.4298830000000  0.4776880000000 1.0
C      1  0.5223120000000  0.4298830000000  0.4937460000000 1.0
C      1  0.5062540000000  0.4298830000000  0.5223120000000 1.0
C      1  0.4367400000000  0.5066150000000  0.5131760000000 1.0
C      1  0.5131760000000  0.5066150000000  0.5632600000000 1.0
C      1  0.5632600000000  0.5066150000000  0.4868240000000 1.0
C      1  0.4868240000000  0.5066150000000  0.4367400000000 1.0
C      1  0.4367410000000  0.4954570000000  0.4868240000000 1.0
C      1  0.5131760000000  0.4954570000000  0.4367410000000 1.0
C      1  0.5632590000000  0.4954570000000  0.5131760000000 1.0
C      1  0.4868240000000  0.4954570000000  0.5632590000000 1.0
C      1  0.4412330000000  0.5366940000000  0.5162110000000 1.0
C      1  0.5162110000000  0.5366940000000  0.5587670000000 1.0
C      1  0.5587670000000  0.5366940000000  0.4837890000000 1.0
C      1  0.4837890000000  0.5366940000000  0.4412330000000 1.0
C      1  0.4412330000000  0.4653780000000  0.4837900000000 1.0
C      1  0.5162100000000  0.4653780000000  0.4412330000000 1.0
C      1  0.5587670000000  0.4653780000000  0.5162100000000 1.0
C      1  0.4837900000000  0.4653780000000  0.5587670000000 1.0
C      1  0.4606690000000  0.5097950000000  0.4767140000000 1.0
C      1  0.4767140000000  0.5097950000000  0.5393310000000 1.0
C      1  0.5393310000000  0.5097950000000  0.5232860000000 1.0
C      1  0.5232860000000  0.5097950000000  0.4606690000000 1.0
C      1  0.4606680000000  0.4922770000000  0.5232860000000 1.0
C      1  0.4767140000000  0.4922770000000  0.4606680000000 1.0
C      1  0.5393320000000  0.4922770000000  0.4767140000000 1.0
C      1  0.5232860000000  0.4922770000000  0.5393320000000 1.0
C      1  0.4408550000000  0.5010360000000  0.5591450000000 1.0
C      1  0.5591450000000  0.5010360000000  0.4408550000000 1.0
C      1  0.5591450000000  0.5010360000000  0.5591450000000 1.0
C      1  0.4408550000000  0.5010360000000  0.4408550000000 1.0
END
