TITL C-3985247-764-838 0.005025736178517 125000 -313.365507635754 0 0 60 (C1) n - 1
REM
REM in /home/nfs/bkarasulu/CARBON/AIRSS/Generating-Clusters/TERSOFF/Higher-Symm/Only-C60
REM
REM
REM
REM
REM
REM ./C.cell (28575a23ae977d3b5fae324c64b13b57)
REM
REM compiler GCC version 9.2.1 20190827 (Red Hat 9.2.1-1)
REM options -cpp -mtune=generic -march=x86-64 -g -O0 -fpre-include=/usr/include/finclude/math-vector-fortran.h
REM seed 1373625696 -1144734461 1842873857 1359757826 246667690 1068530435 1147672004 -720596714 -2137353989 981230280 1445533071 -1537125729 1175899426 1554192265 768570479 1026852126 -1919691804 -1558711260 2029056581 942711126 -1438314827 -1616262513 -1631712462 -506302558 -1905606978 -2018293979 -1001245105 1042601807 -1398592531 -1619101826 1557346514 -927581239 -1003502890
REM
CELL 1.54180   50.00000   50.00000   50.00000   90.00000   90.00000   90.00000
LATT -1
SFAC C  
C      1  0.4983150000000  0.5299080000000  0.5813060000000 1.0
C      1  0.5281940000000  0.4861590000000  0.5856450000000 1.0
C      1  0.4739480000000  0.4833260000000  0.5836850000000 1.0
C      1  0.5007930000000  0.4661920000000  0.4816390000000 1.0
C      1  0.4699880000000  0.5165110000000  0.4819470000000 1.0
C      1  0.5288690000000  0.5177020000000  0.4812780000000 1.0
C      1  0.5433130000000  0.5074910000000  0.5245690000000 1.0
C      1  0.4855610000000  0.4605850000000  0.5257270000000 1.0
C      1  0.4722100000000  0.5323930000000  0.5270280000000 1.0
C      1  0.4755750000000  0.4842250000000  0.4318970000000 1.0
C      1  0.4985290000000  0.5290430000000  0.4318930000000 1.0
C      1  0.5258800000000  0.4867280000000  0.4318760000000 1.0
C      1  0.4471150000000  0.5269780000000  0.4385780000000 1.0
C      1  0.5497990000000  0.5323770000000  0.4386610000000 1.0
C      1  0.5031070000000  0.4406930000000  0.4386520000000 1.0
C      1  0.5642210000000  0.5220830000000  0.5093870000000 1.0
C      1  0.4872420000000  0.4350480000000  0.5107890000000 1.0
C      1  0.4500670000000  0.5441530000000  0.5102900000000 1.0
C      1  0.5332110000000  0.4487360000000  0.5235470000000 1.0
C      1  0.4374550000000  0.4979510000000  0.5230560000000 1.0
C      1  0.5285790000000  0.5548950000000  0.5229990000000 1.0
C      1  0.5545870000000  0.5479770000000  0.4986760000000 1.0
C      1  0.5141080000000  0.4295330000000  0.4994080000000 1.0
C      1  0.4317420000000  0.5238120000000  0.4983850000000 1.0
C      1  0.5632700000000  0.4830460000000  0.4940460000000 1.0
C      1  0.4535580000000  0.4538560000000  0.4942750000000 1.0
C      1  0.4833880000000  0.5636860000000  0.4939090000000 1.0
C      1  0.5215480000000  0.5462870000000  0.4725030000000 1.0
C      1  0.5292320000000  0.4582780000000  0.4727160000000 1.0
C      1  0.4491530000000  0.4956460000000  0.4726570000000 1.0
C      1  0.4999370000000  0.4660760000000  0.5826650000000 1.0
C      1  0.4686920000000  0.5190250000000  0.5830650000000 1.0
C      1  0.5288100000000  0.5182040000000  0.5807960000000 1.0
C      1  0.5019050000000  0.5126530000000  0.5489100000000 1.0
C      1  0.5226990000000  0.4858530000000  0.5539660000000 1.0
C      1  0.4738430000000  0.4905230000000  0.5528550000000 1.0
C      1  0.4978410000000  0.4804800000000  0.5064580000000 1.0
C      1  0.4835670000000  0.5119710000000  0.5069540000000 1.0
C      1  0.5186120000000  0.5080390000000  0.5063920000000 1.0
C      1  0.5348670000000  0.5278290000000  0.5464820000000 1.0
C      1  0.5074220000000  0.4582730000000  0.5480610000000 1.0
C      1  0.4559090000000  0.5166170000000  0.5488850000000 1.0
C      1  0.5501660000000  0.5516040000000  0.4638200000000 1.0
C      1  0.5193050000000  0.4308490000000  0.4640610000000 1.0
C      1  0.4305030000000  0.5180220000000  0.4638010000000 1.0
C      1  0.4729140000000  0.5449430000000  0.4718020000000 1.0
C      1  0.5523860000000  0.5011350000000  0.4716010000000 1.0
C      1  0.4747210000000  0.4541770000000  0.4718580000000 1.0
C      1  0.4609390000000  0.4747920000000  0.4543800000000 1.0
C      1  0.4976280000000  0.5465150000000  0.4542640000000 1.0
C      1  0.5414310000000  0.4787950000000  0.4543050000000 1.0
C      1  0.5250700000000  0.5162480000000  0.4289690000000 1.0
C      1  0.5015550000000  0.4701650000000  0.4289720000000 1.0
C      1  0.4734030000000  0.5136200000000  0.4289260000000 1.0
C      1  0.5469170000000  0.4583600000000  0.4967140000000 1.0
C      1  0.4399890000000  0.4804010000000  0.4965420000000 1.0
C      1  0.5129230000000  0.5617920000000  0.4964320000000 1.0
C      1  0.5465920000000  0.4794450000000  0.5355500000000 1.0
C      1  0.4585180000000  0.4718920000000  0.5342450000000 1.0
C      1  0.4983760000000  0.5464070000000  0.5372430000000 1.0
END
