TITL C-3985252-168-473 -1.78600057673916e-05 125000 -335.576887659044 0 0 60 (C1) n - 1
REM
REM in /home/nfs/bkarasulu/CARBON/AIRSS/Generating-Clusters/TERSOFF/Higher-Symm/Only-C60
REM
REM
REM
REM
REM
REM ./C.cell (28575a23ae977d3b5fae324c64b13b57)
REM
REM compiler GCC version 9.2.1 20190827 (Red Hat 9.2.1-1)
REM options -cpp -mtune=generic -march=x86-64 -g -O0 -fpre-include=/usr/include/finclude/math-vector-fortran.h
REM seed 1204707022 1509499625 -20059341 1620535631 -1187431989 1116323390 -254019380 795483801 -1179231787 -1011795052 -516798782 565684416 -1159994975 533588772 -726774928 -1507421889 -1790105016 1977912748 714214925 1186164114 -1105719311 69147163 -1205835711 1910485626 -1741295559 194144023 1426065189 -1717371550 -1772100353 1570578550 1019970289 1911063185 -352193298
REM
CELL 1.54180   50.00000   50.00000   50.00000   90.00000   90.00000   90.00000
LATT -1
SFAC C  
C      1  0.5205010000000  0.4813860000000  0.5510020000000 1.0
C      1  0.5114760000000  0.4409210000000  0.4785840000000 1.0
C      1  0.5112930000000  0.5315180000000  0.4593930000000 1.0
C      1  0.5143870000000  0.5636560000000  0.4999340000000 1.0
C      1  0.4426420000000  0.4601210000000  0.5028780000000 1.0
C      1  0.5483950000000  0.5322750000000  0.4946840000000 1.0
C      1  0.5145980000000  0.5387330000000  0.5592500000000 1.0
C      1  0.4758760000000  0.5683910000000  0.4542400000000 1.0
C      1  0.5300180000000  0.4592270000000  0.4567430000000 1.0
C      1  0.5682010000000  0.4947380000000  0.5112200000000 1.0
C      1  0.4915020000000  0.5007130000000  0.4337840000000 1.0
C      1  0.4841200000000  0.4711190000000  0.4684190000000 1.0
C      1  0.5566730000000  0.5472800000000  0.4684650000000 1.0
C      1  0.4713990000000  0.5531920000000  0.4804440000000 1.0
C      1  0.5579610000000  0.4625270000000  0.4704540000000 1.0
C      1  0.4620100000000  0.5062190000000  0.5259760000000 1.0
C      1  0.5600550000000  0.5167090000000  0.5319080000000 1.0
C      1  0.4821360000000  0.4290160000000  0.4752720000000 1.0
C      1  0.4761670000000  0.4880640000000  0.5696440000000 1.0
C      1  0.4412770000000  0.4953400000000  0.5075800000000 1.0
C      1  0.5503690000000  0.4695180000000  0.5149300000000 1.0
C      1  0.4670720000000  0.4363230000000  0.5511780000000 1.0
C      1  0.5231160000000  0.5602600000000  0.4692010000000 1.0
C      1  0.4897560000000  0.5280830000000  0.4833860000000 1.0
C      1  0.4831090000000  0.5406880000000  0.5600440000000 1.0
C      1  0.4665140000000  0.4482140000000  0.4576970000000 1.0
C      1  0.5197570000000  0.4845630000000  0.4412950000000 1.0
C      1  0.5144390000000  0.5026240000000  0.5279730000000 1.0
C      1  0.5710610000000  0.4920770000000  0.4760670000000 1.0
C      1  0.4639740000000  0.4582010000000  0.5301710000000 1.0
C      1  0.5298040000000  0.5275210000000  0.5363840000000 1.0
C      1  0.5367760000000  0.4599580000000  0.5397470000000 1.0
C      1  0.4627720000000  0.4842350000000  0.5444360000000 1.0
C      1  0.5343900000000  0.5476190000000  0.5147250000000 1.0
C      1  0.4957760000000  0.5304800000000  0.4324270000000 1.0
C      1  0.5308940000000  0.5080740000000  0.4562290000000 1.0
C      1  0.4955280000000  0.4411350000000  0.5597530000000 1.0
C      1  0.4530760000000  0.5532880000000  0.5181080000000 1.0
C      1  0.5296770000000  0.4306650000000  0.5015550000000 1.0
C      1  0.4354890000000  0.5130330000000  0.4848660000000 1.0
C      1  0.5621760000000  0.5162680000000  0.4565080000000 1.0
C      1  0.4923750000000  0.4534330000000  0.5179170000000 1.0
C      1  0.4836870000000  0.5687570000000  0.5099080000000 1.0
C      1  0.5024210000000  0.4679290000000  0.4934290000000 1.0
C      1  0.5162400000000  0.4364320000000  0.5334440000000 1.0
C      1  0.4885570000000  0.5100150000000  0.5112470000000 1.0
C      1  0.4749100000000  0.4956700000000  0.4576610000000 1.0
C      1  0.4778340000000  0.5160170000000  0.5791060000000 1.0
C      1  0.4427840000000  0.5420550000000  0.4890140000000 1.0
C      1  0.4840680000000  0.5678470000000  0.5424230000000 1.0
C      1  0.4613840000000  0.4317870000000  0.4976430000000 1.0
C      1  0.5037930000000  0.5791130000000  0.4551640000000 1.0
C      1  0.4425690000000  0.4653220000000  0.4699350000000 1.0
C      1  0.4997720000000  0.4707280000000  0.5689270000000 1.0
C      1  0.4594620000000  0.5329730000000  0.5384240000000 1.0
C      1  0.4744220000000  0.5502440000000  0.4311690000000 1.0
C      1  0.4446420000000  0.4963420000000  0.4615930000000 1.0
C      1  0.5253250000000  0.4865860000000  0.5036660000000 1.0
C      1  0.5559030000000  0.4466400000000  0.4966070000000 1.0
C      1  0.5336380000000  0.5081390000000  0.4861700000000 1.0
END
