TITL C-3985253-1688-6 -0.000319694961362401 125000 -330.278782970545 0 0 60 (C1) n - 1
REM
REM in /home/nfs/bkarasulu/CARBON/AIRSS/Generating-Clusters/TERSOFF/Higher-Symm/Only-C60
REM
REM
REM
REM
REM
REM ./C.cell (28575a23ae977d3b5fae324c64b13b57)
REM
REM compiler GCC version 9.2.1 20190827 (Red Hat 9.2.1-1)
REM options -cpp -mtune=generic -march=x86-64 -g -O0 -fpre-include=/usr/include/finclude/math-vector-fortran.h
REM seed -1219166601 912580307 1279795842 -1026203277 -1463816938 -230040736 -1052964053 -2128209456 -764985658 1420614343 568761904 -1652770428 -1381018647 -699829409 1699250516 269792965 1940658620 295692690 1858780128 -1217857521 1167326496 968870497 -1884716518 641837812 558426893 -60368958 266766121 -486123697 1718962109 761675797 -2029254720 -658726710 -129391564
REM
CELL 1.54180   50.00000   50.00000   50.00000   90.00000   90.00000   90.00000
LATT -1
SFAC C  
C      1  0.5439860000000  0.4591040000000  0.5289010000000 1.0
C      1  0.4839780000000  0.5490960000000  0.4668000000000 1.0
C      1  0.5437110000000  0.4499410000000  0.5006110000000 1.0
C      1  0.4907440000000  0.5804310000000  0.4845710000000 1.0
C      1  0.4398550000000  0.5136750000000  0.4822720000000 1.0
C      1  0.4740330000000  0.5010070000000  0.5242180000000 1.0
C      1  0.5378730000000  0.4666830000000  0.4313050000000 1.0
C      1  0.5093160000000  0.4581860000000  0.4331320000000 1.0
C      1  0.5169590000000  0.5192060000000  0.4334180000000 1.0
C      1  0.5171830000000  0.5830640000000  0.4987690000000 1.0
C      1  0.5057350000000  0.4780660000000  0.5090260000000 1.0
C      1  0.4926310000000  0.5219110000000  0.5413950000000 1.0
C      1  0.4337670000000  0.4737100000000  0.5159070000000 1.0
C      1  0.5245450000000  0.5320810000000  0.5019340000000 1.0
C      1  0.5095980000000  0.4246350000000  0.4722110000000 1.0
C      1  0.5252660000000  0.5039930000000  0.4798300000000 1.0
C      1  0.4924110000000  0.4845800000000  0.5848110000000 1.0
C      1  0.4466380000000  0.5222340000000  0.5354670000000 1.0
C      1  0.4550140000000  0.4760280000000  0.4472760000000 1.0
C      1  0.4885540000000  0.5517810000000  0.5526250000000 1.0
C      1  0.4435440000000  0.4836400000000  0.4887280000000 1.0
C      1  0.4659340000000  0.5745530000000  0.5093330000000 1.0
C      1  0.5154590000000  0.4838980000000  0.5663780000000 1.0
C      1  0.4725530000000  0.4582220000000  0.4659890000000 1.0
C      1  0.5200690000000  0.5593890000000  0.5462770000000 1.0
C      1  0.5567420000000  0.5038700000000  0.5239260000000 1.0
C      1  0.5203040000000  0.4323860000000  0.4980820000000 1.0
C      1  0.4742770000000  0.4647570000000  0.4969640000000 1.0
C      1  0.4786730000000  0.4722630000000  0.5404730000000 1.0
C      1  0.5639680000000  0.4788190000000  0.5357610000000 1.0
C      1  0.5384170000000  0.5434790000000  0.4745390000000 1.0
C      1  0.4894850000000  0.5061250000000  0.4232560000000 1.0
C      1  0.5123450000000  0.4587920000000  0.5445850000000 1.0
C      1  0.4730230000000  0.5454100000000  0.4986930000000 1.0
C      1  0.5571820000000  0.4648880000000  0.4769200000000 1.0
C      1  0.5187260000000  0.5094600000000  0.5510520000000 1.0
C      1  0.4802500000000  0.5053150000000  0.4889970000000 1.0
C      1  0.5402530000000  0.4974700000000  0.4376830000000 1.0
C      1  0.4525270000000  0.5086020000000  0.5642970000000 1.0
C      1  0.5141880000000  0.5400790000000  0.4552980000000 1.0
C      1  0.5035460000000  0.4339340000000  0.5231050000000 1.0
C      1  0.4617380000000  0.5052880000000  0.4384700000000 1.0
C      1  0.4576410000000  0.5254920000000  0.4593080000000 1.0
C      1  0.5559700000000  0.4525170000000  0.4497810000000 1.0
C      1  0.5263290000000  0.5048350000000  0.5217210000000 1.0
C      1  0.5506090000000  0.4958390000000  0.4671210000000 1.0
C      1  0.5729190000000  0.5179960000000  0.5042000000000 1.0
C      1  0.4269330000000  0.4968490000000  0.5327470000000 1.0
C      1  0.5323310000000  0.5350210000000  0.5601800000000 1.0
C      1  0.4972090000000  0.4833750000000  0.4426700000000 1.0
C      1  0.4950300000000  0.4424760000000  0.4545730000000 1.0
C      1  0.5628650000000  0.5224350000000  0.4769050000000 1.0
C      1  0.4577020000000  0.4539690000000  0.5244890000000 1.0
C      1  0.4617290000000  0.5551160000000  0.5378880000000 1.0
C      1  0.4749030000000  0.4288170000000  0.5221400000000 1.0
C      1  0.4686670000000  0.4843310000000  0.5675010000000 1.0
C      1  0.5006610000000  0.4937300000000  0.4705410000000 1.0
C      1  0.4490170000000  0.5302010000000  0.5044520000000 1.0
C      1  0.4961490000000  0.5350720000000  0.5139280000000 1.0
C      1  0.5283350000000  0.5618760000000  0.5165660000000 1.0
END
