TITL C-3985251-913-232 3.48702470469139e-07 125000 -273.341732573741 0 0 60 (C4h) n - 1
REM
REM in /home/nfs/bkarasulu/CARBON/AIRSS/Generating-Clusters/TERSOFF/Higher-Symm/Only-C60
REM
REM
REM
REM
REM
REM ./C.cell (28575a23ae977d3b5fae324c64b13b57)
REM
REM compiler GCC version 9.2.1 20190827 (Red Hat 9.2.1-1)
REM options -cpp -mtune=generic -march=x86-64 -g -O0 -fpre-include=/usr/include/finclude/math-vector-fortran.h
REM seed -1319939812 1220296463 -670985049 1459185097 -438676753 -559589988 1897646814 143798082 1062441294 -1701351843 1918368614 311035156 1350365002 -2078395665 1237474027 -677727014 7446404 1505399674 1782681898 794595271 -1321266997 -234292016 1496268158 -1836053814 -1622596775 161491171 -1433134125 -1821443692 -885313733 -2120303621 -965884757 -458250605 1811667046
REM
CELL 1.54180   50.00000   50.00000   50.00000   90.00000   90.00000   90.00000
LATT -1
SFAC C  
C      1  0.4394460000000  0.5430350000000  0.4837940000000 1.0
C      1  0.5430350000000  0.5605540000000  0.4837940000000 1.0
C      1  0.5605540000000  0.4569650000000  0.4837940000000 1.0
C      1  0.4569650000000  0.4394460000000  0.4837940000000 1.0
C      1  0.4394460000000  0.5430350000000  0.5165200000000 1.0
C      1  0.5430350000000  0.5605540000000  0.5165200000000 1.0
C      1  0.5605540000000  0.4569650000000  0.5165200000000 1.0
C      1  0.4569650000000  0.4394460000000  0.5165200000000 1.0
C      1  0.5582270000000  0.5102210000000  0.4517090000000 1.0
C      1  0.5102210000000  0.4417730000000  0.4517090000000 1.0
C      1  0.4417730000000  0.4897790000000  0.4517090000000 1.0
C      1  0.4897790000000  0.5582270000000  0.4517090000000 1.0
C      1  0.5582270000000  0.5102210000000  0.5486050000000 1.0
C      1  0.5102210000000  0.4417730000000  0.5486050000000 1.0
C      1  0.4417730000000  0.4897790000000  0.5486050000000 1.0
C      1  0.4897790000000  0.5582270000000  0.5486050000000 1.0
C      1  0.4711360000000  0.5512240000000  0.5180320000000 1.0
C      1  0.5512240000000  0.5288640000000  0.5180320000000 1.0
C      1  0.5288640000000  0.4487760000000  0.5180320000000 1.0
C      1  0.4487760000000  0.4711360000000  0.5180320000000 1.0
C      1  0.4711360000000  0.5512240000000  0.4822820000000 1.0
C      1  0.5512240000000  0.5288640000000  0.4822820000000 1.0
C      1  0.5288640000000  0.4487760000000  0.4822820000000 1.0
C      1  0.4487760000000  0.4711360000000  0.4822820000000 1.0
C      1  0.4880470000000  0.4350710000000  0.5247440000000 1.0
C      1  0.4350710000000  0.5119530000000  0.5247440000000 1.0
C      1  0.5119530000000  0.5649290000000  0.5247440000000 1.0
C      1  0.5649290000000  0.4880470000000  0.5247440000000 1.0
C      1  0.4880470000000  0.4350710000000  0.4755710000000 1.0
C      1  0.4350710000000  0.5119530000000  0.4755710000000 1.0
C      1  0.5119530000000  0.5649290000000  0.4755710000000 1.0
C      1  0.5649290000000  0.4880470000000  0.4755710000000 1.0
C      1  0.5173380000000  0.5164860000000  0.5211250000000 1.0
C      1  0.5164860000000  0.4826620000000  0.5211250000000 1.0
C      1  0.4826620000000  0.4835140000000  0.5211250000000 1.0
C      1  0.4835140000000  0.5173380000000  0.5211250000000 1.0
C      1  0.5173380000000  0.5164860000000  0.4791890000000 1.0
C      1  0.5164860000000  0.4826620000000  0.4791890000000 1.0
C      1  0.4826620000000  0.4835140000000  0.4791890000000 1.0
C      1  0.4835140000000  0.5173380000000  0.4791890000000 1.0
C      1  0.5447290000000  0.4853810000000  0.4370290000000 1.0
C      1  0.4853810000000  0.4552710000000  0.4370290000000 1.0
C      1  0.4552710000000  0.5146190000000  0.4370290000000 1.0
C      1  0.5146190000000  0.5447290000000  0.4370290000000 1.0
C      1  0.5447290000000  0.4853810000000  0.5632850000000 1.0
C      1  0.4853810000000  0.4552710000000  0.5632850000000 1.0
C      1  0.4552710000000  0.5146190000000  0.5632850000000 1.0
C      1  0.5146190000000  0.5447290000000  0.5632850000000 1.0
C      1  0.4788730000000  0.5264660000000  0.4493760000000 1.0
C      1  0.5264660000000  0.5211270000000  0.4493760000000 1.0
C      1  0.5211270000000  0.4735340000000  0.4493760000000 1.0
C      1  0.4735340000000  0.4788730000000  0.4493760000000 1.0
C      1  0.4788730000000  0.5264660000000  0.5509390000000 1.0
C      1  0.5264660000000  0.5211270000000  0.5509390000000 1.0
C      1  0.5211270000000  0.4735340000000  0.5509390000000 1.0
C      1  0.4735340000000  0.4788730000000  0.5509390000000 1.0
C      1  0.5438870000000  0.4918380000000  0.5001570000000 1.0
C      1  0.4918380000000  0.4561130000000  0.5001570000000 1.0
C      1  0.4561130000000  0.5081620000000  0.5001570000000 1.0
C      1  0.5081620000000  0.5438870000000  0.5001570000000 1.0
END
