TITL C-3985254-1270-526 -0.000120578827707223 125000 -323.867409193332 0 0 60 (C1) n - 1
REM
REM in /home/nfs/bkarasulu/CARBON/AIRSS/Generating-Clusters/TERSOFF/Higher-Symm/Only-C60
REM
REM
REM
REM
REM
REM ./C.cell (28575a23ae977d3b5fae324c64b13b57)
REM
REM compiler GCC version 9.2.1 20190827 (Red Hat 9.2.1-1)
REM options -cpp -mtune=generic -march=x86-64 -g -O0 -fpre-include=/usr/include/finclude/math-vector-fortran.h
REM seed -895302852 240864678 -838373534 1455810240 253058680 -1386071287 -929760185 -1679252201 327501811 -158858379 -1561836269 925405535 -943999271 922491714 -609357570 -2060594324 -1242295686 410792114 -331244304 -1004825873 -1684550428 384418706 -777017026 508068736 -671565312 935637734 1270231243 -1662896942 1752644482 2125055557 196742343 1618938323 749146029
REM
CELL 1.54180   50.00000   50.00000   50.00000   90.00000   90.00000   90.00000
LATT -1
SFAC C  
C      1  0.5408260000000  0.4296810000000  0.5091700000000 1.0
C      1  0.5358800000000  0.4829950000000  0.5699750000000 1.0
C      1  0.5368020000000  0.5631510000000  0.5354530000000 1.0
C      1  0.5407450000000  0.5498840000000  0.4516340000000 1.0
C      1  0.5361770000000  0.4717650000000  0.4333690000000 1.0
C      1  0.5409060000000  0.5493560000000  0.4809650000000 1.0
C      1  0.5386350000000  0.4987340000000  0.4450600000000 1.0
C      1  0.5417460000000  0.4473890000000  0.4856500000000 1.0
C      1  0.5383460000000  0.4674560000000  0.5452240000000 1.0
C      1  0.5383030000000  0.5347600000000  0.5435800000000 1.0
C      1  0.4945890000000  0.5337150000000  0.5426040000000 1.0
C      1  0.4919970000000  0.5502590000000  0.4830150000000 1.0
C      1  0.4951220000000  0.5013900000000  0.4475320000000 1.0
C      1  0.4966260000000  0.4522430000000  0.4846860000000 1.0
C      1  0.4960040000000  0.4683010000000  0.5420250000000 1.0
C      1  0.5136000000000  0.5801590000000  0.4619410000000 1.0
C      1  0.5146930000000  0.5142310000000  0.4027650000000 1.0
C      1  0.5127030000000  0.4121470000000  0.4834480000000 1.0
C      1  0.5139060000000  0.4300650000000  0.5706600000000 1.0
C      1  0.5145780000000  0.5478830000000  0.5862210000000 1.0
C      1  0.4573790000000  0.5378190000000  0.4519560000000 1.0
C      1  0.4611770000000  0.4667800000000  0.4501550000000 1.0
C      1  0.4595590000000  0.4422530000000  0.5165850000000 1.0
C      1  0.4604660000000  0.4971210000000  0.5608700000000 1.0
C      1  0.4600630000000  0.5584530000000  0.5203740000000 1.0
C      1  0.4511650000000  0.5559490000000  0.4907980000000 1.0
C      1  0.4537750000000  0.5083540000000  0.4457590000000 1.0
C      1  0.4556380000000  0.4510620000000  0.4757390000000 1.0
C      1  0.4546690000000  0.4615690000000  0.5393180000000 1.0
C      1  0.4542220000000  0.5253350000000  0.5502290000000 1.0
C      1  0.5163540000000  0.5660500000000  0.4907940000000 1.0
C      1  0.5156410000000  0.5188110000000  0.4322820000000 1.0
C      1  0.5173210000000  0.4397230000000  0.4666120000000 1.0
C      1  0.5153080000000  0.4436800000000  0.5442280000000 1.0
C      1  0.5151950000000  0.5282410000000  0.5640450000000 1.0
C      1  0.5469990000000  0.5232930000000  0.4919180000000 1.0
C      1  0.5472450000000  0.4991620000000  0.4741500000000 1.0
C      1  0.5468770000000  0.4751690000000  0.4929140000000 1.0
C      1  0.5456590000000  0.4845610000000  0.5215760000000 1.0
C      1  0.5460360000000  0.5155830000000  0.5215090000000 1.0
C      1  0.4430770000000  0.4693250000000  0.4997150000000 1.0
C      1  0.4444830000000  0.4904630000000  0.5290420000000 1.0
C      1  0.4457120000000  0.5251810000000  0.5188040000000 1.0
C      1  0.4428990000000  0.5252910000000  0.4826160000000 1.0
C      1  0.4438460000000  0.4910340000000  0.4708200000000 1.0
C      1  0.4876290000000  0.5240150000000  0.4929910000000 1.0
C      1  0.4943890000000  0.5015820000000  0.4763250000000 1.0
C      1  0.5009390000000  0.4788680000000  0.4925210000000 1.0
C      1  0.4990870000000  0.4867680000000  0.5201940000000 1.0
C      1  0.4900150000000  0.5150820000000  0.5211510000000 1.0
C      1  0.4880770000000  0.5609180000000  0.5328500000000 1.0
C      1  0.4832330000000  0.5520080000000  0.4553510000000 1.0
C      1  0.4881980000000  0.4736260000000  0.4392270000000 1.0
C      1  0.4858500000000  0.4355440000000  0.5055670000000 1.0
C      1  0.4874950000000  0.4847240000000  0.5653100000000 1.0
C      1  0.5115860000000  0.4206850000000  0.5188010000000 1.0
C      1  0.5124180000000  0.4999600000000  0.5734180000000 1.0
C      1  0.5134690000000  0.5725520000000  0.5199390000000 1.0
C      1  0.5117970000000  0.5527020000000  0.4382040000000 1.0
C      1  0.5128710000000  0.4551400000000  0.4403650000000 1.0
END
