TITL C-3985244-725-219 1.25761765792069e-07 125000 -319.580208716413 0 0 60 (Td) n - 1
REM
REM in /home/nfs/bkarasulu/CARBON/AIRSS/Generating-Clusters/TERSOFF/Higher-Symm/Only-C60
REM
REM
REM
REM
REM
REM ./C.cell (28575a23ae977d3b5fae324c64b13b57)
REM
REM compiler GCC version 9.2.1 20190827 (Red Hat 9.2.1-1)
REM options -cpp -mtune=generic -march=x86-64 -g -O0 -fpre-include=/usr/include/finclude/math-vector-fortran.h
REM seed 409023649 -1925379377 -764791311 1784243791 1807494729 -266797093 404683861 929257985 -790976296 -1924669524 897451860 -1128668478 1271884858 -1573013100 -1238627986 1243319365 -1881640663 199316044 543602812 -1649867966 822472964 -2134956442 -1235696705 1386673192 -828540258 -2673465 384998251 -895097773 -540019253 -389754097 -1616630162 877734250 1049433911
REM
CELL 1.54180   50.00000   50.00000   50.00000   90.00000   90.00000   90.00000
LATT -1
SFAC C  
C      1  0.5452390000000  0.5003620000000  0.4770210000000 1.0
C      1  0.5003620000000  0.4770210000000  0.5452390000000 1.0
C      1  0.4770210000000  0.5452390000000  0.5003620000000 1.0
C      1  0.5452390000000  0.4996380000000  0.5229790000000 1.0
C      1  0.4547610000000  0.5003620000000  0.5229790000000 1.0
C      1  0.4547610000000  0.4996380000000  0.4770210000000 1.0
C      1  0.5003620000000  0.5229790000000  0.4547610000000 1.0
C      1  0.4996380000000  0.4770210000000  0.4547610000000 1.0
C      1  0.4996380000000  0.5229790000000  0.5452390000000 1.0
C      1  0.4770210000000  0.4547610000000  0.4996380000000 1.0
C      1  0.5229790000000  0.5452390000000  0.4996380000000 1.0
C      1  0.5229790000000  0.4547610000000  0.5003620000000 1.0
C      1  0.5452390000000  0.4770210000000  0.5003620000000 1.0
C      1  0.5003620000000  0.5452390000000  0.4770210000000 1.0
C      1  0.4770210000000  0.5003620000000  0.5452390000000 1.0
C      1  0.5452390000000  0.5229790000000  0.4996380000000 1.0
C      1  0.4547610000000  0.5229790000000  0.5003620000000 1.0
C      1  0.4547610000000  0.4770210000000  0.4996380000000 1.0
C      1  0.5003620000000  0.4547610000000  0.5229790000000 1.0
C      1  0.4996380000000  0.4547610000000  0.4770210000000 1.0
C      1  0.4996380000000  0.5452390000000  0.5229790000000 1.0
C      1  0.4770210000000  0.4996380000000  0.4547610000000 1.0
C      1  0.5229790000000  0.4996380000000  0.5452390000000 1.0
C      1  0.5229790000000  0.5003620000000  0.4547610000000 1.0
C      1  0.5675410000000  0.4553810000000  0.4907170000000 1.0
C      1  0.4553810000000  0.4907170000000  0.5675410000000 1.0
C      1  0.4907170000000  0.5675410000000  0.4553810000000 1.0
C      1  0.5675410000000  0.5446190000000  0.5092830000000 1.0
C      1  0.4324590000000  0.4553810000000  0.5092830000000 1.0
C      1  0.4324590000000  0.5446190000000  0.4907170000000 1.0
C      1  0.4553810000000  0.5092830000000  0.4324590000000 1.0
C      1  0.5446190000000  0.4907170000000  0.4324590000000 1.0
C      1  0.5446190000000  0.5092830000000  0.5675410000000 1.0
C      1  0.4907170000000  0.4324590000000  0.5446190000000 1.0
C      1  0.5092830000000  0.5675410000000  0.5446190000000 1.0
C      1  0.5092830000000  0.4324590000000  0.4553810000000 1.0
C      1  0.5675410000000  0.4907170000000  0.4553810000000 1.0
C      1  0.4553810000000  0.5675410000000  0.4907170000000 1.0
C      1  0.4907170000000  0.4553810000000  0.5675410000000 1.0
C      1  0.5675410000000  0.5092830000000  0.5446190000000 1.0
C      1  0.4324590000000  0.5092830000000  0.4553810000000 1.0
C      1  0.4324590000000  0.4907170000000  0.5446190000000 1.0
C      1  0.4553810000000  0.4324590000000  0.5092830000000 1.0
C      1  0.5446190000000  0.4324590000000  0.4907170000000 1.0
C      1  0.5446190000000  0.5675410000000  0.5092830000000 1.0
C      1  0.4907170000000  0.5446190000000  0.4324590000000 1.0
C      1  0.5092830000000  0.5446190000000  0.5675410000000 1.0
C      1  0.5092830000000  0.4553810000000  0.4324590000000 1.0
C      1  0.5339980000000  0.5795430000000  0.5339980000000 1.0
C      1  0.5795430000000  0.5339980000000  0.5339980000000 1.0
C      1  0.5339980000000  0.5339980000000  0.5795430000000 1.0
C      1  0.5339980000000  0.4204570000000  0.4660020000000 1.0
C      1  0.4660020000000  0.5795430000000  0.4660020000000 1.0
C      1  0.4660020000000  0.4204570000000  0.5339980000000 1.0
C      1  0.5795430000000  0.4660020000000  0.4660020000000 1.0
C      1  0.4204570000000  0.5339980000000  0.4660020000000 1.0
C      1  0.4204570000000  0.4660020000000  0.5339980000000 1.0
C      1  0.5339980000000  0.4660020000000  0.4204570000000 1.0
C      1  0.4660020000000  0.5339980000000  0.4204570000000 1.0
C      1  0.4660020000000  0.4660020000000  0.5795430000000 1.0
END
