TITL C-3985250-725-688 5.49429884881501e-09 125000 -209.47245327039 0 0 60 (Th) n - 1
REM
REM in /home/nfs/bkarasulu/CARBON/AIRSS/Generating-Clusters/TERSOFF/Higher-Symm/Only-C60
REM
REM
REM
REM
REM
REM ./C.cell (28575a23ae977d3b5fae324c64b13b57)
REM
REM compiler GCC version 9.2.1 20190827 (Red Hat 9.2.1-1)
REM options -cpp -mtune=generic -march=x86-64 -g -O0 -fpre-include=/usr/include/finclude/math-vector-fortran.h
REM seed -1695645763 2056739485 213751172 651511525 1828521168 1904659338 153175998 -1229519700 1430492840 -185355275 2030078033 -441133850 1906072910 867941816 1714639446 232881686 1990364770 1615939958 1051314622 -802198538 449726621 -220297523 -1941813534 -1850428886 -1955810321 -460420784 -143834417 -1880605604 -439843756 -1817687031 1828443376 1159148267 2007208393
REM
CELL 1.54180   50.00000   50.00000   50.00000   90.00000   90.00000   90.00000
LATT -1
SFAC C  
C      1  0.5456130000000  0.4543990000000  0.5182680000000 1.0
C      1  0.4543990000000  0.5182680000000  0.5456130000000 1.0
C      1  0.5182680000000  0.5456130000000  0.4543990000000 1.0
C      1  0.4543870000000  0.4543990000000  0.4817320000000 1.0
C      1  0.4543870000000  0.5456010000000  0.5182680000000 1.0
C      1  0.5456130000000  0.5456010000000  0.4817320000000 1.0
C      1  0.5456010000000  0.5182680000000  0.4543870000000 1.0
C      1  0.5456010000000  0.4817320000000  0.5456130000000 1.0
C      1  0.4543990000000  0.4817320000000  0.4543870000000 1.0
C      1  0.4817320000000  0.5456130000000  0.5456010000000 1.0
C      1  0.4817320000000  0.4543870000000  0.4543990000000 1.0
C      1  0.5182680000000  0.4543870000000  0.5456010000000 1.0
C      1  0.5456130000000  0.5456010000000  0.5182680000000 1.0
C      1  0.4543990000000  0.4817320000000  0.5456130000000 1.0
C      1  0.5182680000000  0.4543870000000  0.4543990000000 1.0
C      1  0.4543870000000  0.5456010000000  0.4817320000000 1.0
C      1  0.4543870000000  0.4543990000000  0.5182680000000 1.0
C      1  0.5456130000000  0.4543990000000  0.4817320000000 1.0
C      1  0.5456010000000  0.4817320000000  0.4543870000000 1.0
C      1  0.5456010000000  0.5182680000000  0.5456130000000 1.0
C      1  0.4543990000000  0.5182680000000  0.4543870000000 1.0
C      1  0.4817320000000  0.4543870000000  0.5456010000000 1.0
C      1  0.4817320000000  0.5456130000000  0.4543990000000 1.0
C      1  0.5182680000000  0.5456130000000  0.5456010000000 1.0
C      1  0.4826940000000  0.5681010000000  0.4829510000000 1.0
C      1  0.5681010000000  0.4829510000000  0.4826940000000 1.0
C      1  0.4829510000000  0.4826940000000  0.5681010000000 1.0
C      1  0.5173060000000  0.5681010000000  0.5170490000000 1.0
C      1  0.5173060000000  0.4318990000000  0.4829510000000 1.0
C      1  0.4826940000000  0.4318990000000  0.5170490000000 1.0
C      1  0.4318990000000  0.4829510000000  0.5173060000000 1.0
C      1  0.4318990000000  0.5170490000000  0.4826940000000 1.0
C      1  0.5681010000000  0.5170490000000  0.5173060000000 1.0
C      1  0.5170490000000  0.4826940000000  0.4318990000000 1.0
C      1  0.5170490000000  0.5173060000000  0.5681010000000 1.0
C      1  0.4829510000000  0.5173060000000  0.4318990000000 1.0
C      1  0.4826940000000  0.4318990000000  0.4829510000000 1.0
C      1  0.5681010000000  0.5170490000000  0.4826940000000 1.0
C      1  0.4829510000000  0.5173060000000  0.5681010000000 1.0
C      1  0.5173060000000  0.4318990000000  0.5170490000000 1.0
C      1  0.5173060000000  0.5681010000000  0.4829510000000 1.0
C      1  0.4826940000000  0.5681010000000  0.5170490000000 1.0
C      1  0.4318990000000  0.5170490000000  0.5173060000000 1.0
C      1  0.4318990000000  0.4829510000000  0.4826940000000 1.0
C      1  0.5681010000000  0.4829510000000  0.5173060000000 1.0
C      1  0.5170490000000  0.5173060000000  0.4318990000000 1.0
C      1  0.5170490000000  0.4826940000000  0.5681010000000 1.0
C      1  0.4829510000000  0.4826940000000  0.4318990000000 1.0
C      1  0.5000000000000  0.4700740000000  0.5183850000000 1.0
C      1  0.4700740000000  0.5183850000000  0.5000000000000 1.0
C      1  0.5183850000000  0.5000000000000  0.4700740000000 1.0
C      1  0.5000000000000  0.4700740000000  0.4816150000000 1.0
C      1  0.5000000000000  0.5299260000000  0.5183850000000 1.0
C      1  0.5000000000000  0.5299260000000  0.4816150000000 1.0
C      1  0.5299260000000  0.5183850000000  0.5000000000000 1.0
C      1  0.5299260000000  0.4816150000000  0.5000000000000 1.0
C      1  0.4700740000000  0.4816150000000  0.5000000000000 1.0
C      1  0.4816150000000  0.5000000000000  0.5299260000000 1.0
C      1  0.4816150000000  0.5000000000000  0.4700740000000 1.0
C      1  0.5183850000000  0.5000000000000  0.5299260000000 1.0
END
