TITL C-3985253-1688-765 -0.00209022499495895 125000 -324.785609673613 0 0 60 (D2) n - 1
REM
REM in /home/nfs/bkarasulu/CARBON/AIRSS/Generating-Clusters/TERSOFF/Higher-Symm/Only-C60
REM
REM
REM
REM
REM
REM ./C.cell (28575a23ae977d3b5fae324c64b13b57)
REM
REM compiler GCC version 9.2.1 20190827 (Red Hat 9.2.1-1)
REM options -cpp -mtune=generic -march=x86-64 -g -O0 -fpre-include=/usr/include/finclude/math-vector-fortran.h
REM seed 949357356 -78730609 -971473977 473161325 1933235445 1871976744 1195074112 -454264804 206323962 1353425927 -510160705 -1747071259 -475220107 656786809 -1601392021 -1092736083 -475650809 328533281 627741987 -2146128348 1860859945 854558028 1071165555 599519587 558535230 55019478 1805651351 110356366 -679208497 21571845 -239113738 966261568 -535190849
REM
CELL 1.54180   50.00000   50.00000   50.00000   90.00000   90.00000   90.00000
LATT -1
SFAC C  
C      1  0.4855040000000  0.4208760000000  0.5338080000000 1.0
C      1  0.5144960000000  0.4208760000000  0.4661920000000 1.0
C      1  0.5144960000000  0.5791240000000  0.5338080000000 1.0
C      1  0.4855040000000  0.5791240000000  0.4661920000000 1.0
C      1  0.5443680000000  0.4524410000000  0.5363290000000 1.0
C      1  0.4556320000000  0.4524410000000  0.4636710000000 1.0
C      1  0.4556320000000  0.5475590000000  0.5363290000000 1.0
C      1  0.5443680000000  0.5475590000000  0.4636710000000 1.0
C      1  0.4444920000000  0.5038450000000  0.4692630000000 1.0
C      1  0.5555080000000  0.5038450000000  0.5307370000000 1.0
C      1  0.5555080000000  0.4961550000000  0.4692630000000 1.0
C      1  0.4444920000000  0.4961550000000  0.5307370000000 1.0
C      1  0.4716520000000  0.4336220000000  0.4462900000000 1.0
C      1  0.5283480000000  0.4336220000000  0.5537100000000 1.0
C      1  0.5283480000000  0.5663780000000  0.4462900000000 1.0
C      1  0.4716520000000  0.5663780000000  0.5537100000000 1.0
C      1  0.5038660000000  0.4823400000000  0.5277280000000 1.0
C      1  0.4961340000000  0.4823400000000  0.4722720000000 1.0
C      1  0.4961340000000  0.5176600000000  0.5277280000000 1.0
C      1  0.5038660000000  0.5176600000000  0.4722720000000 1.0
C      1  0.4928280000000  0.4802820000000  0.5772660000000 1.0
C      1  0.5071720000000  0.4802820000000  0.4227340000000 1.0
C      1  0.5071720000000  0.5197180000000  0.5772660000000 1.0
C      1  0.4928280000000  0.5197180000000  0.4227340000000 1.0
C      1  0.4864530000000  0.5703290000000  0.4935450000000 1.0
C      1  0.5135470000000  0.5703290000000  0.5064550000000 1.0
C      1  0.5135470000000  0.4296710000000  0.4935450000000 1.0
C      1  0.4864530000000  0.4296710000000  0.5064550000000 1.0
C      1  0.5205150000000  0.5156020000000  0.5042340000000 1.0
C      1  0.4794850000000  0.5156020000000  0.4957660000000 1.0
C      1  0.4794850000000  0.4843980000000  0.5042340000000 1.0
C      1  0.5205150000000  0.4843980000000  0.4957660000000 1.0
C      1  0.5627140000000  0.4760830000000  0.5179520000000 1.0
C      1  0.4372860000000  0.4760830000000  0.4820480000000 1.0
C      1  0.4372860000000  0.5239170000000  0.5179520000000 1.0
C      1  0.5627140000000  0.5239170000000  0.4820480000000 1.0
C      1  0.5230540000000  0.4921250000000  0.5748000000000 1.0
C      1  0.4769460000000  0.4921250000000  0.4252000000000 1.0
C      1  0.4769460000000  0.5078750000000  0.5748000000000 1.0
C      1  0.5230540000000  0.5078750000000  0.4252000000000 1.0
C      1  0.5077000000000  0.4647080000000  0.4476850000000 1.0
C      1  0.4923000000000  0.4647080000000  0.5523150000000 1.0
C      1  0.4923000000000  0.5352920000000  0.4476850000000 1.0
C      1  0.5077000000000  0.5352920000000  0.5523150000000 1.0
C      1  0.5483870000000  0.5272820000000  0.5108400000000 1.0
C      1  0.4516130000000  0.5272820000000  0.4891600000000 1.0
C      1  0.4516130000000  0.4727180000000  0.5108400000000 1.0
C      1  0.5483870000000  0.4727180000000  0.4891600000000 1.0
C      1  0.4632700000000  0.5538940000000  0.5041970000000 1.0
C      1  0.5367300000000  0.5538940000000  0.4958030000000 1.0
C      1  0.5367300000000  0.4461060000000  0.5041970000000 1.0
C      1  0.4632700000000  0.4461060000000  0.4958030000000 1.0
C      1  0.5326770000000  0.4852530000000  0.5457770000000 1.0
C      1  0.4673230000000  0.4852530000000  0.4542230000000 1.0
C      1  0.4673230000000  0.5147470000000  0.5457770000000 1.0
C      1  0.5326770000000  0.5147470000000  0.4542230000000 1.0
C      1  0.4994240000000  0.4363620000000  0.5533520000000 1.0
C      1  0.5005760000000  0.4363620000000  0.4466480000000 1.0
C      1  0.5005760000000  0.5636380000000  0.5533520000000 1.0
C      1  0.4994240000000  0.5636380000000  0.4466480000000 1.0
END
