TITL C-3985245-9316-756 -0.00386278116715868 125000 -319.220002555663 0 0 60 (C1) n - 1
REM
REM in /home/nfs/bkarasulu/CARBON/AIRSS/Generating-Clusters/TERSOFF/Higher-Symm/Only-C60
REM
REM
REM
REM
REM
REM ./C.cell (28575a23ae977d3b5fae324c64b13b57)
REM
REM compiler GCC version 9.2.1 20190827 (Red Hat 9.2.1-1)
REM options -cpp -mtune=generic -march=x86-64 -g -O0 -fpre-include=/usr/include/finclude/math-vector-fortran.h
REM seed 1009066844 1016086213 1204473420 25163757 1321681415 -442165417 -1087069456 -1561442221 997088361 -2077140580 216956129 1330438222 -1771145979 500997500 2074998470 115885384 1443729006 -1954323512 -855051305 -1678699805 1101142367 704325861 -300180812 -1758820207 -867011820 475232969 116072143 611091590 -371183641 -268244066 -1129933828 -1055929558 -1201536260
REM
CELL 1.54180   50.00000   50.00000   50.00000   90.00000   90.00000   90.00000
LATT -1
SFAC C  
C      1  0.5316870000000  0.5462070000000  0.5512960000000 1.0
C      1  0.5474550000000  0.5562020000000  0.5235240000000 1.0
C      1  0.5512770000000  0.5207670000000  0.5506360000000 1.0
C      1  0.4758860000000  0.5455980000000  0.4434090000000 1.0
C      1  0.4872290000000  0.4469680000000  0.5591610000000 1.0
C      1  0.5168040000000  0.4649940000000  0.4711370000000 1.0
C      1  0.4597450000000  0.5353620000000  0.4826940000000 1.0
C      1  0.4473340000000  0.4518120000000  0.5235630000000 1.0
C      1  0.5459190000000  0.4545920000000  0.4751600000000 1.0
C      1  0.4526250000000  0.5238280000000  0.4546800000000 1.0
C      1  0.4438060000000  0.4737950000000  0.5472970000000 1.0
C      1  0.5565240000000  0.4761770000000  0.4508220000000 1.0
C      1  0.5170440000000  0.4637540000000  0.5309810000000 1.0
C      1  0.5460620000000  0.4538580000000  0.5242840000000 1.0
C      1  0.5575640000000  0.4733520000000  0.5498650000000 1.0
C      1  0.4890660000000  0.4482760000000  0.4405450000000 1.0
C      1  0.4798700000000  0.5450900000000  0.5469460000000 1.0
C      1  0.5232150000000  0.5451050000000  0.4425840000000 1.0
C      1  0.4472530000000  0.4530300000000  0.4754120000000 1.0
C      1  0.4532260000000  0.5489630000000  0.5294600000000 1.0
C      1  0.5480220000000  0.5480820000000  0.4785150000000 1.0
C      1  0.4429320000000  0.4743310000000  0.4512080000000 1.0
C      1  0.4448320000000  0.5223190000000  0.5512370000000 1.0
C      1  0.5514130000000  0.5301580000000  0.4531390000000 1.0
C      1  0.5141780000000  0.5211020000000  0.5701380000000 1.0
C      1  0.5245430000000  0.5725000000000  0.5110070000000 1.0
C      1  0.5673730000000  0.5153210000000  0.5274610000000 1.0
C      1  0.4844490000000  0.5204630000000  0.4274560000000 1.0
C      1  0.4886000000000  0.4761360000000  0.5670680000000 1.0
C      1  0.5124490000000  0.4859560000000  0.4520740000000 1.0
C      1  0.4786170000000  0.5561430000000  0.4856300000000 1.0
C      1  0.4722640000000  0.4400110000000  0.5139780000000 1.0
C      1  0.5264400000000  0.4262560000000  0.4839770000000 1.0
C      1  0.4238590000000  0.5159180000000  0.4731290000000 1.0
C      1  0.4234140000000  0.4862030000000  0.5264620000000 1.0
C      1  0.5735700000000  0.4861770000000  0.4744470000000 1.0
C      1  0.5132550000000  0.4821650000000  0.5523940000000 1.0
C      1  0.5265230000000  0.4263070000000  0.5145490000000 1.0
C      1  0.5727620000000  0.4862860000000  0.5253180000000 1.0
C      1  0.4898300000000  0.4775360000000  0.4356760000000 1.0
C      1  0.4854040000000  0.5214210000000  0.5621970000000 1.0
C      1  0.5143580000000  0.5208120000000  0.4257550000000 1.0
C      1  0.4723380000000  0.4407170000000  0.4851620000000 1.0
C      1  0.4781930000000  0.5684370000000  0.5122590000000 1.0
C      1  0.5250800000000  0.5645930000000  0.4825980000000 1.0
C      1  0.4222420000000  0.4865320000000  0.4719420000000 1.0
C      1  0.4270880000000  0.5148350000000  0.5275650000000 1.0
C      1  0.5740440000000  0.5153890000000  0.4754260000000 1.0
C      1  0.5366290000000  0.5000170000000  0.4401860000000 1.0
C      1  0.4646450000000  0.4956510000000  0.5620610000000 1.0
C      1  0.4347950000000  0.5322810000000  0.5030030000000 1.0
C      1  0.4966160000000  0.4385850000000  0.5302250000000 1.0
C      1  0.5658080000000  0.5352480000000  0.5040580000000 1.0
C      1  0.5654670000000  0.4682280000000  0.4997820000000 1.0
C      1  0.4255570000000  0.4671770000000  0.4993560000000 1.0
C      1  0.4966310000000  0.4395580000000  0.4692230000000 1.0
C      1  0.5040080000000  0.5629140000000  0.5347260000000 1.0
C      1  0.5002140000000  0.5607520000000  0.4632410000000 1.0
C      1  0.4644900000000  0.4942420000000  0.4377920000000 1.0
C      1  0.5374760000000  0.4955070000000  0.5651270000000 1.0
END
