TITL C-3985245-9316-873 1.74286025938385e-07 125000 -286.45544860706 0 0 60 (C3i) n - 1
REM
REM in /home/nfs/bkarasulu/CARBON/AIRSS/Generating-Clusters/TERSOFF/Higher-Symm/Only-C60
REM
REM
REM
REM
REM
REM ./C.cell (28575a23ae977d3b5fae324c64b13b57)
REM
REM compiler GCC version 9.2.1 20190827 (Red Hat 9.2.1-1)
REM options -cpp -mtune=generic -march=x86-64 -g -O0 -fpre-include=/usr/include/finclude/math-vector-fortran.h
REM seed 830399707 -2094941731 1517416918 1840908951 -1390806011 -1532842294 -1013348597 490069349 1843162043 1405522083 1981685264 2015230716 -1778734551 -592093386 1065174772 -11704623 388060451 -1770375576 1537536164 -1822328219 -1045792382 -272662635 -1695420480 1664281963 1261309631 -57062370 1597496927 -90623874 2139134420 -863320255 870663338 827545318 1937869490
REM
CELL 1.54180   50.00000   50.00000   50.00000   90.00000   90.00000   90.00000
LATT -1
SFAC C  
C      1  0.4728530000000  0.5692540000000  0.4856090000000 1.0
C      1  0.4739630000000  0.4307460000000  0.5163150000000 1.0
C      1  0.5011110000000  0.5692540000000  0.5307060000000 1.0
C      1  0.5271470000000  0.4307460000000  0.5143910000000 1.0
C      1  0.5260370000000  0.5692540000000  0.4836850000000 1.0
C      1  0.4988890000000  0.4307460000000  0.4692940000000 1.0
C      1  0.5543410000000  0.4544070000000  0.5144290000000 1.0
C      1  0.5396660000000  0.5455930000000  0.4601540000000 1.0
C      1  0.4853250000000  0.4544070000000  0.4457250000000 1.0
C      1  0.4456590000000  0.5455930000000  0.4855710000000 1.0
C      1  0.4603340000000  0.4544070000000  0.5398460000000 1.0
C      1  0.5146750000000  0.5455930000000  0.5542750000000 1.0
C      1  0.5202290000000  0.5385590000000  0.5029920000000 1.0
C      1  0.5127060000000  0.4614410000000  0.4839770000000 1.0
C      1  0.4924760000000  0.5385590000000  0.4809850000000 1.0
C      1  0.4797710000000  0.4614410000000  0.4970080000000 1.0
C      1  0.4872940000000  0.5385590000000  0.5160230000000 1.0
C      1  0.5075240000000  0.4614410000000  0.5190150000000 1.0
C      1  0.4984250000000  0.5783080000000  0.4688750000000 1.0
C      1  0.4722570000000  0.4216920000000  0.4858020000000 1.0
C      1  0.4738320000000  0.5783080000000  0.5169270000000 1.0
C      1  0.5015750000000  0.4216920000000  0.5311250000000 1.0
C      1  0.5277430000000  0.5783080000000  0.5141980000000 1.0
C      1  0.5261680000000  0.4216920000000  0.4830730000000 1.0
C      1  0.5567790000000  0.4724780000000  0.4640920000000 1.0
C      1  0.4972920000000  0.5275220000000  0.4328740000000 1.0
C      1  0.4405130000000  0.4724780000000  0.4687820000000 1.0
C      1  0.4432210000000  0.5275220000000  0.5359080000000 1.0
C      1  0.5027080000000  0.4724780000000  0.5671260000000 1.0
C      1  0.5594870000000  0.5275220000000  0.5312180000000 1.0
C      1  0.5104980000000  0.4927890000000  0.5251570000000 1.0
C      1  0.5270350000000  0.5072110000000  0.5034870000000 1.0
C      1  0.5165370000000  0.4927890000000  0.4783300000000 1.0
C      1  0.4895020000000  0.5072110000000  0.4748430000000 1.0
C      1  0.4729650000000  0.4927890000000  0.4965130000000 1.0
C      1  0.4834630000000  0.5072110000000  0.5216700000000 1.0
C      1  0.5687470000000  0.4794490000000  0.4933730000000 1.0
C      1  0.5286350000000  0.5205510000000  0.4371500000000 1.0
C      1  0.4598870000000  0.4794490000000  0.4437760000000 1.0
C      1  0.4312530000000  0.5205510000000  0.5066270000000 1.0
C      1  0.4713650000000  0.4794490000000  0.5628500000000 1.0
C      1  0.5401130000000  0.5205510000000  0.5562240000000 1.0
C      1  0.4409250000000  0.4924930000000  0.4941770000000 1.0
C      1  0.4654190000000  0.5075070000000  0.5482490000000 1.0
C      1  0.5244950000000  0.4924930000000  0.5540720000000 1.0
C      1  0.5590750000000  0.5075070000000  0.5058230000000 1.0
C      1  0.5345810000000  0.4924930000000  0.4517510000000 1.0
C      1  0.4755050000000  0.5075070000000  0.4459280000000 1.0
C      1  0.4560250000000  0.5516910000000  0.5197020000000 1.0
C      1  0.4950750000000  0.4483090000000  0.5479350000000 1.0
C      1  0.5390500000000  0.5516910000000  0.5282320000000 1.0
C      1  0.5439750000000  0.4483090000000  0.4802980000000 1.0
C      1  0.5049250000000  0.5516910000000  0.4520650000000 1.0
C      1  0.4609500000000  0.4483090000000  0.4717680000000 1.0
C      1  0.4491210000000  0.5167470000000  0.4688360000000 1.0
C      1  0.4475720000000  0.4832530000000  0.5284800000000 1.0
C      1  0.4984510000000  0.5167470000000  0.5596440000000 1.0
C      1  0.5508790000000  0.4832530000000  0.5311640000000 1.0
C      1  0.5524280000000  0.5167470000000  0.4715200000000 1.0
C      1  0.5015490000000  0.4832530000000  0.4403560000000 1.0
END
