TITL C-3985253-1688-706 0.00016161771321506 125000 -307.761766316242 0 0 60 (C1) n - 1
REM
REM in /home/nfs/bkarasulu/CARBON/AIRSS/Generating-Clusters/TERSOFF/Higher-Symm/Only-C60
REM
REM
REM
REM
REM
REM ./C.cell (28575a23ae977d3b5fae324c64b13b57)
REM
REM compiler GCC version 9.2.1 20190827 (Red Hat 9.2.1-1)
REM options -cpp -mtune=generic -march=x86-64 -g -O0 -fpre-include=/usr/include/finclude/math-vector-fortran.h
REM seed 1525279010 -850375957 -1492788924 -92582476 -677698201 450279416 -98585591 1268228750 1840301255 1279250838 -1807207064 1494943243 7435539 -409117312 1842412557 -1271836051 -1576295016 -413871404 1015626894 -1568859299 -555830029 1518487991 421423121 -2110689372 65066700 1060713855 1185270730 941656176 -1168324070 566485925 1925424453 1789021093 983186809
REM
CELL 1.54180   50.00000   50.00000   50.00000   90.00000   90.00000   90.00000
LATT -1
SFAC C  
C      1  0.5078810000000  0.4456300000000  0.4651450000000 1.0
C      1  0.5165630000000  0.4785760000000  0.4405970000000 1.0
C      1  0.5368190000000  0.5519370000000  0.5340790000000 1.0
C      1  0.4820390000000  0.4534620000000  0.4810510000000 1.0
C      1  0.5632490000000  0.5012570000000  0.5208330000000 1.0
C      1  0.4349570000000  0.4731020000000  0.4706000000000 1.0
C      1  0.4317430000000  0.4945760000000  0.5149290000000 1.0
C      1  0.5227890000000  0.5578950000000  0.4658640000000 1.0
C      1  0.5049510000000  0.4906470000000  0.5621570000000 1.0
C      1  0.4733140000000  0.4299940000000  0.5037150000000 1.0
C      1  0.4967520000000  0.4569950000000  0.4337670000000 1.0
C      1  0.5585920000000  0.4830380000000  0.4473250000000 1.0
C      1  0.4533820000000  0.5436450000000  0.5207710000000 1.0
C      1  0.4806890000000  0.5398100000000  0.4987390000000 1.0
C      1  0.5238830000000  0.5314680000000  0.5554300000000 1.0
C      1  0.5412310000000  0.5768030000000  0.5099760000000 1.0
C      1  0.4368400000000  0.5221920000000  0.4713190000000 1.0
C      1  0.4635220000000  0.4720550000000  0.4645600000000 1.0
C      1  0.4717910000000  0.4732280000000  0.4357960000000 1.0
C      1  0.5154350000000  0.5741170000000  0.4910380000000 1.0
C      1  0.4848460000000  0.4651950000000  0.5629220000000 1.0
C      1  0.4719580000000  0.5236550000000  0.5794540000000 1.0
C      1  0.4732670000000  0.5013510000000  0.4722270000000 1.0
C      1  0.4274880000000  0.4972270000000  0.4848680000000 1.0
C      1  0.4326660000000  0.4639220000000  0.5233990000000 1.0
C      1  0.5808370000000  0.4872800000000  0.4668050000000 1.0
C      1  0.5597330000000  0.5537960000000  0.4989220000000 1.0
C      1  0.5451720000000  0.5160620000000  0.4694750000000 1.0
C      1  0.5029180000000  0.4303850000000  0.5156110000000 1.0
C      1  0.5376290000000  0.4693550000000  0.5075590000000 1.0
C      1  0.5056890000000  0.5548460000000  0.5159090000000 1.0
C      1  0.5302380000000  0.5105810000000  0.5308390000000 1.0
C      1  0.4791840000000  0.5347660000000  0.4671380000000 1.0
C      1  0.5235990000000  0.4333170000000  0.4913130000000 1.0
C      1  0.5445010000000  0.5098320000000  0.4395140000000 1.0
C      1  0.4868000000000  0.4689070000000  0.5113180000000 1.0
C      1  0.4383040000000  0.5209780000000  0.5363540000000 1.0
C      1  0.5065020000000  0.4428530000000  0.5446820000000 1.0
C      1  0.5076430000000  0.4984010000000  0.5118880000000 1.0
C      1  0.5353790000000  0.4689760000000  0.4653350000000 1.0
C      1  0.4527230000000  0.5085880000000  0.5621900000000 1.0
C      1  0.4894920000000  0.5091660000000  0.5408010000000 1.0
C      1  0.5640000000000  0.5340760000000  0.5225420000000 1.0
C      1  0.5302480000000  0.4944250000000  0.4882260000000 1.0
C      1  0.5095700000000  0.5131800000000  0.4339970000000 1.0
C      1  0.4496360000000  0.5207750000000  0.4408840000000 1.0
C      1  0.5763830000000  0.4793930000000  0.4952910000000 1.0
C      1  0.4956300000000  0.5396940000000  0.5688520000000 1.0
C      1  0.4750970000000  0.5030110000000  0.4303840000000 1.0
C      1  0.5465390000000  0.5436690000000  0.4750790000000 1.0
C      1  0.5546290000000  0.4504900000000  0.4902510000000 1.0
C      1  0.4588830000000  0.4497270000000  0.5243710000000 1.0
C      1  0.4610000000000  0.4805150000000  0.5527460000000 1.0
C      1  0.4401140000000  0.5456790000000  0.4896440000000 1.0
C      1  0.4644650000000  0.4913050000000  0.5225040000000 1.0
C      1  0.5025810000000  0.5403750000000  0.4515350000000 1.0
C      1  0.4840360000000  0.5437590000000  0.5401390000000 1.0
C      1  0.4802690000000  0.5087830000000  0.5000330000000 1.0
C      1  0.5253110000000  0.4680360000000  0.5521480000000 1.0
C      1  0.5486160000000  0.4732370000000  0.5351600000000 1.0
END
