TITL C-3985245-9316-736 0.00291324316808092 125000 -338.050776242415 0 0 60 (C1) n - 1
REM
REM in /home/nfs/bkarasulu/CARBON/AIRSS/Generating-Clusters/TERSOFF/Higher-Symm/Only-C60
REM
REM
REM
REM
REM
REM ./C.cell (28575a23ae977d3b5fae324c64b13b57)
REM
REM compiler GCC version 9.2.1 20190827 (Red Hat 9.2.1-1)
REM options -cpp -mtune=generic -march=x86-64 -g -O0 -fpre-include=/usr/include/finclude/math-vector-fortran.h
REM seed -480730125 -36119280 983613950 283395444 1840853985 -1124521814 -1794393381 -1714593580 -597826282 -231614541 -1492311343 544788931 481952475 -1519208602 663250049 -558768852 480314685 1220549023 -1893377551 -1405812688 959496096 -89714444 1667143142 -445918067 930519350 699838218 254843100 -1658463105 330912394 334076061 -186894316 1337513757 1008255721
REM
CELL 1.54180   50.00000   50.00000   50.00000   90.00000   90.00000   90.00000
LATT -1
SFAC C  
C      1  0.5601980000000  0.5015240000000  0.5550320000000 1.0
C      1  0.5377440000000  0.5494950000000  0.5566630000000 1.0
C      1  0.4849300000000  0.5597310000000  0.5569140000000 1.0
C      1  0.4459100000000  0.5239150000000  0.5538490000000 1.0
C      1  0.4489210000000  0.4717970000000  0.5513970000000 1.0
C      1  0.4954470000000  0.4385360000000  0.5513760000000 1.0
C      1  0.5453270000000  0.4544470000000  0.5633270000000 1.0
C      1  0.4361850000000  0.5000840000000  0.4876390000000 1.0
C      1  0.4603900000000  0.4504480000000  0.4862540000000 1.0
C      1  0.5125900000000  0.4401680000000  0.4883180000000 1.0
C      1  0.5483920000000  0.4684660000000  0.4963070000000 1.0
C      1  0.5570120000000  0.5259940000000  0.4917950000000 1.0
C      1  0.5150600000000  0.5614640000000  0.4915420000000 1.0
C      1  0.4594380000000  0.5507290000000  0.4899590000000 1.0
C      1  0.5434550000000  0.4379700000000  0.5389700000000 1.0
C      1  0.5601870000000  0.4951450000000  0.5270230000000 1.0
C      1  0.5453270000000  0.5485230000000  0.5285310000000 1.0
C      1  0.4889750000000  0.5658910000000  0.5285600000000 1.0
C      1  0.4442270000000  0.5314430000000  0.5256690000000 1.0
C      1  0.4423230000000  0.4761450000000  0.5234910000000 1.0
C      1  0.5170270000000  0.4257980000000  0.5352720000000 1.0
C      1  0.5214590000000  0.5284320000000  0.5695860000000 1.0
C      1  0.4921740000000  0.5334260000000  0.5687680000000 1.0
C      1  0.4705320000000  0.5130280000000  0.5664620000000 1.0
C      1  0.4726770000000  0.4830300000000  0.5643550000000 1.0
C      1  0.4972070000000  0.4659290000000  0.5634800000000 1.0
C      1  0.5245330000000  0.4744350000000  0.5713770000000 1.0
C      1  0.5353190000000  0.5020580000000  0.5702720000000 1.0
C      1  0.5359790000000  0.5411760000000  0.4497080000000 1.0
C      1  0.4881240000000  0.5584520000000  0.4493010000000 1.0
C      1  0.4478870000000  0.5273310000000  0.4467270000000 1.0
C      1  0.4475380000000  0.4755220000000  0.4442510000000 1.0
C      1  0.4860470000000  0.4401530000000  0.4447550000000 1.0
C      1  0.5366380000000  0.4496700000000  0.4497030000000 1.0
C      1  0.5585110000000  0.4953100000000  0.4528940000000 1.0
C      1  0.4613480000000  0.4956130000000  0.5055180000000 1.0
C      1  0.4778850000000  0.4712810000000  0.4974230000000 1.0
C      1  0.5065370000000  0.4664710000000  0.4982620000000 1.0
C      1  0.5303490000000  0.4891340000000  0.5133000000000 1.0
C      1  0.5323100000000  0.5252320000000  0.5109300000000 1.0
C      1  0.5004210000000  0.5419430000000  0.5118020000000 1.0
C      1  0.4704160000000  0.5275970000000  0.5078870000000 1.0
C      1  0.4407570000000  0.5011790000000  0.4585030000000 1.0
C      1  0.4613450000000  0.4520580000000  0.4568890000000 1.0
C      1  0.5121820000000  0.4367980000000  0.4591980000000 1.0
C      1  0.5506470000000  0.4699000000000  0.4658980000000 1.0
C      1  0.5530420000000  0.5219760000000  0.4636960000000 1.0
C      1  0.5142560000000  0.5564910000000  0.4624510000000 1.0
C      1  0.4631100000000  0.5484720000000  0.4607910000000 1.0
C      1  0.4234210000000  0.5208760000000  0.5059840000000 1.0
C      1  0.4367570000000  0.4529710000000  0.5046550000000 1.0
C      1  0.5117990000000  0.4187840000000  0.5075000000000 1.0
C      1  0.5576160000000  0.4460120000000  0.5136210000000 1.0
C      1  0.5766430000000  0.5102370000000  0.5075420000000 1.0
C      1  0.5391730000000  0.5699190000000  0.5074210000000 1.0
C      1  0.4673620000000  0.5739560000000  0.5081700000000 1.0
C      1  0.4833460000000  0.4996350000000  0.4670510000000 1.0
C      1  0.4997630000000  0.5010790000000  0.5210540000000 1.0
C      1  0.4917540000000  0.4943640000000  0.4395500000000 1.0
C      1  0.5015060000000  0.5071010000000  0.4885350000000 1.0
END
