TITL C-3985250-725-964 -0.000136157142996471 125000 -336.333668630132 0 0 60 (C1) n - 1
REM
REM in /home/nfs/bkarasulu/CARBON/AIRSS/Generating-Clusters/TERSOFF/Higher-Symm/Only-C60
REM
REM
REM
REM
REM
REM ./C.cell (28575a23ae977d3b5fae324c64b13b57)
REM
REM compiler GCC version 9.2.1 20190827 (Red Hat 9.2.1-1)
REM options -cpp -mtune=generic -march=x86-64 -g -O0 -fpre-include=/usr/include/finclude/math-vector-fortran.h
REM seed -1803607472 1396757843 -1165155386 -329930572 -932500326 1529674776 -371732364 965514815 286995300 -1601606371 -1413062749 429063390 639248078 1039765719 324511799 -482169856 -1569788861 151812530 2109347216 -960778094 2135779389 -1901773407 812577335 1698054305 1668212879 1089046357 1383161815 -1934667368 692345073 -1859486341 -777400671 24295203 1202774924
REM
CELL 1.54180   50.00000   50.00000   50.00000   90.00000   90.00000   90.00000
LATT -1
SFAC C  
C      1  0.5383910000000  0.4403990000000  0.4921730000000 1.0
C      1  0.4954610000000  0.5357940000000  0.4946750000000 1.0
C      1  0.5504170000000  0.5304800000000  0.4827200000000 1.0
C      1  0.5194110000000  0.5701360000000  0.4741710000000 1.0
C      1  0.5235370000000  0.4737680000000  0.4562810000000 1.0
C      1  0.4696450000000  0.4871760000000  0.5565460000000 1.0
C      1  0.4527260000000  0.5288180000000  0.5409120000000 1.0
C      1  0.5014370000000  0.5852250000000  0.4925770000000 1.0
C      1  0.5448790000000  0.5173930000000  0.4551140000000 1.0
C      1  0.5176610000000  0.5265700000000  0.4449650000000 1.0
C      1  0.4430810000000  0.5376790000000  0.4780580000000 1.0
C      1  0.4351350000000  0.4653320000000  0.4851920000000 1.0
C      1  0.5029150000000  0.5208150000000  0.5643070000000 1.0
C      1  0.5621670000000  0.4580270000000  0.4944940000000 1.0
C      1  0.4969820000000  0.5605940000000  0.5366720000000 1.0
C      1  0.4428740000000  0.5038420000000  0.5552750000000 1.0
C      1  0.5474200000000  0.4973250000000  0.5574440000000 1.0
C      1  0.5112750000000  0.4880420000000  0.5275610000000 1.0
C      1  0.4747600000000  0.4610290000000  0.4506580000000 1.0
C      1  0.4998990000000  0.4785290000000  0.4367800000000 1.0
C      1  0.5451910000000  0.5662710000000  0.5182550000000 1.0
C      1  0.4739750000000  0.4361620000000  0.4969800000000 1.0
C      1  0.4737450000000  0.5211120000000  0.4406020000000 1.0
C      1  0.4845170000000  0.5016350000000  0.5318280000000 1.0
C      1  0.5268380000000  0.5556650000000  0.5393780000000 1.0
C      1  0.4979190000000  0.4911600000000  0.5701650000000 1.0
C      1  0.4304630000000  0.4892350000000  0.5063290000000 1.0
C      1  0.4475290000000  0.5117860000000  0.4587830000000 1.0
C      1  0.5296870000000  0.5264290000000  0.5502670000000 1.0
C      1  0.5309280000000  0.5089610000000  0.5208460000000 1.0
C      1  0.5500570000000  0.4874590000000  0.4537690000000 1.0
C      1  0.4313250000000  0.4921640000000  0.4431010000000 1.0
C      1  0.5193520000000  0.4470900000000  0.4703730000000 1.0
C      1  0.4660770000000  0.4936850000000  0.4846980000000 1.0
C      1  0.4878580000000  0.5047800000000  0.4674450000000 1.0
C      1  0.5242640000000  0.5185450000000  0.4941060000000 1.0
C      1  0.4704260000000  0.5486740000000  0.4577020000000 1.0
C      1  0.4741960000000  0.5151130000000  0.5070180000000 1.0
C      1  0.4348200000000  0.4799940000000  0.5342920000000 1.0
C      1  0.5022490000000  0.5459780000000  0.4633640000000 1.0
C      1  0.5434030000000  0.5594370000000  0.4890550000000 1.0
C      1  0.4618150000000  0.4611740000000  0.5402560000000 1.0
C      1  0.5708310000000  0.5176960000000  0.5012780000000 1.0
C      1  0.5698680000000  0.4744580000000  0.4711910000000 1.0
C      1  0.5654020000000  0.4691570000000  0.5214020000000 1.0
C      1  0.4834810000000  0.4525350000000  0.5207570000000 1.0
C      1  0.4939330000000  0.4760030000000  0.5000150000000 1.0
C      1  0.4994260000000  0.5076130000000  0.4272980000000 1.0
C      1  0.4437190000000  0.5227600000000  0.5068830000000 1.0
C      1  0.5278780000000  0.4306440000000  0.5175920000000 1.0
C      1  0.4808910000000  0.5392420000000  0.5510640000000 1.0
C      1  0.5625020000000  0.4988140000000  0.5247340000000 1.0
C      1  0.5130160000000  0.4931140000000  0.4781780000000 1.0
C      1  0.4912420000000  0.5625830000000  0.5086090000000 1.0
C      1  0.4450280000000  0.4397810000000  0.4951250000000 1.0
C      1  0.4449290000000  0.4698870000000  0.4573210000000 1.0
C      1  0.5225310000000  0.4709680000000  0.5543990000000 1.0
C      1  0.5501100000000  0.4570810000000  0.5436020000000 1.0
C      1  0.5096770000000  0.4462240000000  0.5341600000000 1.0
C      1  0.4888290000000  0.4419600000000  0.4712050000000 1.0
END
