TITL C-3985254-1270-1092 -0.000451278544507487 125000 -329.166154251158 0 0 60 (Cs) n - 1
REM
REM in /home/nfs/bkarasulu/CARBON/AIRSS/Generating-Clusters/TERSOFF/Higher-Symm/Only-C60
REM
REM
REM
REM
REM
REM ./C.cell (28575a23ae977d3b5fae324c64b13b57)
REM
REM compiler GCC version 9.2.1 20190827 (Red Hat 9.2.1-1)
REM options -cpp -mtune=generic -march=x86-64 -g -O0 -fpre-include=/usr/include/finclude/math-vector-fortran.h
REM seed 860007676 -679131206 571224526 -951692528 -345525837 612693735 -1353626742 106392814 212854099 -645543623 -2037757642 -1058723676 -1914739588 -703291968 121343439 119158802 -302896444 1861427542 -1337656271 -2051843368 1720728796 912964017 -802837794 2133443774 -384595535 -1568557609 -628796001 -270287665 913050748 -90381353 -1817313315 -1834518278 2109282926
REM
CELL 1.54180   50.00000   50.00000   50.00000   90.00000   90.00000   90.00000
LATT -1
SFAC C  
C      1  0.5418660000000  0.5288390000000  0.5046800000000 1.0
C      1  0.5418610000000  0.4711650000000  0.5046810000000 1.0
C      1  0.4834310000000  0.5742120000000  0.4618660000000 1.0
C      1  0.4834330000000  0.4257950000000  0.4618660000000 1.0
C      1  0.4068620000000  0.4850540000000  0.4761340000000 1.0
C      1  0.4067480000000  0.5150120000000  0.4762230000000 1.0
C      1  0.5444790000000  0.4674970000000  0.4336200000000 1.0
C      1  0.5444950000000  0.5324950000000  0.4336200000000 1.0
C      1  0.4957690000000  0.4819690000000  0.4308080000000 1.0
C      1  0.4957720000000  0.5180330000000  0.4308020000000 1.0
C      1  0.5537250000000  0.5159080000000  0.4554350000000 1.0
C      1  0.5537200000000  0.4840970000000  0.4554290000000 1.0
C      1  0.5620630000000  0.4855430000000  0.5233260000000 1.0
C      1  0.5620640000000  0.5144590000000  0.5233220000000 1.0
C      1  0.4701880000000  0.5633420000000  0.5072740000000 1.0
C      1  0.4701900000000  0.4366400000000  0.5072880000000 1.0
C      1  0.5192200000000  0.5729820000000  0.5211840000000 1.0
C      1  0.5192170000000  0.4270170000000  0.5211890000000 1.0
C      1  0.5133840000000  0.5290130000000  0.5215560000000 1.0
C      1  0.5133620000000  0.4709740000000  0.5215600000000 1.0
C      1  0.4940290000000  0.5567420000000  0.5274580000000 1.0
C      1  0.4940370000000  0.4432590000000  0.5274620000000 1.0
C      1  0.4212140000000  0.4670870000000  0.4947920000000 1.0
C      1  0.4211890000000  0.5329630000000  0.4948240000000 1.0
C      1  0.4568570000000  0.4703610000000  0.5436370000000 1.0
C      1  0.4568590000000  0.5296250000000  0.5436290000000 1.0
C      1  0.5480870000000  0.5608460000000  0.5334660000000 1.0
C      1  0.5480910000000  0.4391570000000  0.5334660000000 1.0
C      1  0.4631230000000  0.5228170000000  0.5155680000000 1.0
C      1  0.4630990000000  0.4771590000000  0.5155940000000 1.0
C      1  0.4592880000000  0.5298910000000  0.4663710000000 1.0
C      1  0.4593090000000  0.4700750000000  0.4664010000000 1.0
C      1  0.5169680000000  0.4582090000000  0.4347210000000 1.0
C      1  0.5169610000000  0.5417680000000  0.4347230000000 1.0
C      1  0.5520910000000  0.4424410000000  0.5002600000000 1.0
C      1  0.5520950000000  0.5575570000000  0.5002440000000 1.0
C      1  0.4823180000000  0.5397930000000  0.5550240000000 1.0
C      1  0.4823200000000  0.4601950000000  0.5550370000000 1.0
C      1  0.5329110000000  0.5157440000000  0.4798620000000 1.0
C      1  0.5329100000000  0.4842640000000  0.4798720000000 1.0
C      1  0.4380730000000  0.5142550000000  0.5591410000000 1.0
C      1  0.4380750000000  0.4857330000000  0.5591560000000 1.0
C      1  0.5071010000000  0.5295390000000  0.4736070000000 1.0
C      1  0.5071080000000  0.4704700000000  0.4736480000000 1.0
C      1  0.5091420000000  0.4402390000000  0.4650000000000 1.0
C      1  0.5091320000000  0.5597680000000  0.4650220000000 1.0
C      1  0.5241870000000  0.4839450000000  0.5482300000000 1.0
C      1  0.5241930000000  0.5160580000000  0.5482230000000 1.0
C      1  0.4841350000000  0.5155640000000  0.4608360000000 1.0
C      1  0.4841260000000  0.4844250000000  0.4608340000000 1.0
C      1  0.4903800000000  0.4861340000000  0.5104050000000 1.0
C      1  0.4903490000000  0.5138660000000  0.5103730000000 1.0
C      1  0.5001850000000  0.4818620000000  0.5682140000000 1.0
C      1  0.5001880000000  0.5181440000000  0.5682150000000 1.0
C      1  0.5273860000000  0.5728180000000  0.4871040000000 1.0
C      1  0.5273950000000  0.4271920000000  0.4870900000000 1.0
C      1  0.4505720000000  0.4610630000000  0.4933500000000 1.0
C      1  0.4505610000000  0.5389200000000  0.4933590000000 1.0
C      1  0.5510490000000  0.4676580000000  0.5469610000000 1.0
C      1  0.5510580000000  0.5323490000000  0.5469610000000 1.0
END
