TITL C-3985250-725-1097 -1.33797307035319e-07 125000 -306.212110294027 0 0 60 (C4v) n - 1
REM
REM in /home/nfs/bkarasulu/CARBON/AIRSS/Generating-Clusters/TERSOFF/Higher-Symm/Only-C60
REM
REM
REM
REM
REM
REM ./C.cell (28575a23ae977d3b5fae324c64b13b57)
REM
REM compiler GCC version 9.2.1 20190827 (Red Hat 9.2.1-1)
REM options -cpp -mtune=generic -march=x86-64 -g -O0 -fpre-include=/usr/include/finclude/math-vector-fortran.h
REM seed -2050112010 1082110925 -1940885097 -603185966 934580094 -1051561706 -1987669205 46301903 -393183968 -480148643 -1498363369 10960697 1116363960 2109838202 2125700836 412478118 -59220905 1238221308 256249918 -669683725 -1036696878 -2107059272 -2093812592 146176926 -667816264 -2914828 -69588450 -1809233724 1899059370 -141304987 466249749 -964803874 -301516620
REM
CELL 1.54180   50.00000   50.00000   50.00000   90.00000   90.00000   90.00000
LATT -1
SFAC C  
C      1  0.4836860000000  0.5632150000000  0.4724220000000 1.0
C      1  0.4836860000000  0.5275780000000  0.5632150000000 1.0
C      1  0.4836860000000  0.4367850000000  0.5275780000000 1.0
C      1  0.4836860000000  0.4724220000000  0.4367850000000 1.0
C      1  0.4836860000000  0.5632150000000  0.5275780000000 1.0
C      1  0.4836860000000  0.5275780000000  0.4367850000000 1.0
C      1  0.4836860000000  0.4367850000000  0.4724220000000 1.0
C      1  0.4836860000000  0.4724220000000  0.5632150000000 1.0
C      1  0.4379320000000  0.5373240000000  0.4836680000000 1.0
C      1  0.4379320000000  0.5163320000000  0.5373240000000 1.0
C      1  0.4379320000000  0.4626760000000  0.5163320000000 1.0
C      1  0.4379320000000  0.4836680000000  0.4626760000000 1.0
C      1  0.4379320000000  0.5373240000000  0.5163320000000 1.0
C      1  0.4379320000000  0.5163320000000  0.4626760000000 1.0
C      1  0.4379320000000  0.4626760000000  0.4836680000000 1.0
C      1  0.4379320000000  0.4836680000000  0.5373240000000 1.0
C      1  0.4867720000000  0.5542080000000  0.5743800000000 1.0
C      1  0.4867720000000  0.4256200000000  0.5542080000000 1.0
C      1  0.4867720000000  0.4457920000000  0.4256200000000 1.0
C      1  0.4867720000000  0.5743800000000  0.4457920000000 1.0
C      1  0.4867720000000  0.5542080000000  0.4256200000000 1.0
C      1  0.4867720000000  0.4256200000000  0.4457920000000 1.0
C      1  0.4867720000000  0.4457920000000  0.5743800000000 1.0
C      1  0.4867720000000  0.5743800000000  0.5542080000000 1.0
C      1  0.4574930000000  0.4847720000000  0.5628310000000 1.0
C      1  0.4574930000000  0.4371690000000  0.4847720000000 1.0
C      1  0.4574930000000  0.5152280000000  0.4371690000000 1.0
C      1  0.4574930000000  0.5628310000000  0.5152280000000 1.0
C      1  0.4574930000000  0.4847720000000  0.4371690000000 1.0
C      1  0.4574930000000  0.4371690000000  0.5152280000000 1.0
C      1  0.4574930000000  0.5152280000000  0.5628310000000 1.0
C      1  0.4574930000000  0.5628310000000  0.4847720000000 1.0
C      1  0.5326730000000  0.5155290000000  0.4419350000000 1.0
C      1  0.5326730000000  0.5580650000000  0.5155290000000 1.0
C      1  0.5326730000000  0.4844710000000  0.5580650000000 1.0
C      1  0.5326730000000  0.4419350000000  0.4844710000000 1.0
C      1  0.5326730000000  0.5155290000000  0.5580650000000 1.0
C      1  0.5326730000000  0.5580650000000  0.4844710000000 1.0
C      1  0.5326730000000  0.4844710000000  0.4419350000000 1.0
C      1  0.5326730000000  0.4419350000000  0.5155290000000 1.0
C      1  0.5613680000000  0.5427350000000  0.4819960000000 1.0
C      1  0.5613680000000  0.5180040000000  0.5427350000000 1.0
C      1  0.5613680000000  0.4572650000000  0.5180040000000 1.0
C      1  0.5613680000000  0.4819960000000  0.4572650000000 1.0
C      1  0.5613680000000  0.5427350000000  0.5180040000000 1.0
C      1  0.5613680000000  0.5180040000000  0.4572650000000 1.0
C      1  0.5613680000000  0.4572650000000  0.4819960000000 1.0
C      1  0.5613680000000  0.4819960000000  0.5427350000000 1.0
C      1  0.5044950000000  0.5421630000000  0.5182320000000 1.0
C      1  0.5044950000000  0.4817680000000  0.5421630000000 1.0
C      1  0.5044950000000  0.4578370000000  0.4817680000000 1.0
C      1  0.5044950000000  0.5182320000000  0.4578370000000 1.0
C      1  0.5044950000000  0.5421630000000  0.4817680000000 1.0
C      1  0.5044950000000  0.4817680000000  0.4578370000000 1.0
C      1  0.5044950000000  0.4578370000000  0.5182320000000 1.0
C      1  0.5044950000000  0.5182320000000  0.5421630000000 1.0
C      1  0.5375710000000  0.4838210000000  0.5161790000000 1.0
C      1  0.5375710000000  0.4838210000000  0.4838210000000 1.0
C      1  0.5375710000000  0.5161790000000  0.4838210000000 1.0
C      1  0.5375710000000  0.5161790000000  0.5161790000000 1.0
END
