TITL C-3985251-913-447 0.0224627083948465 125000 -300.228455934494 0 0 60 (D2) n - 1
REM
REM in /home/nfs/bkarasulu/CARBON/AIRSS/Generating-Clusters/TERSOFF/Higher-Symm/Only-C60
REM
REM
REM
REM
REM
REM ./C.cell (28575a23ae977d3b5fae324c64b13b57)
REM
REM compiler GCC version 9.2.1 20190827 (Red Hat 9.2.1-1)
REM options -cpp -mtune=generic -march=x86-64 -g -O0 -fpre-include=/usr/include/finclude/math-vector-fortran.h
REM seed 315172392 1055984341 1046862229 1006757819 507251178 -1149264926 1609293021 -1514621054 1200147154 -1562754090 -1085728341 -778332461 1649940904 -2094936118 128341088 -25188415 2119967135 -1378405247 233092681 -562592746 809295449 2135649913 -750867170 633454000 1680695817 1022202698 984029776 -141914834 -1243694502 -1955390480 463914698 319907275 1691215980
REM
CELL 1.54180   50.00000   50.00000   50.00000   90.00000   90.00000   90.00000
LATT -1
SFAC C  
C      1  0.4695870000000  0.4795320000000  0.4205610000000 1.0
C      1  0.5304130000000  0.5204680000000  0.4205610000000 1.0
C      1  0.4695870000000  0.5204680000000  0.5794390000000 1.0
C      1  0.5304130000000  0.4795320000000  0.5794390000000 1.0
C      1  0.4807090000000  0.4505800000000  0.5414720000000 1.0
C      1  0.5192910000000  0.5494200000000  0.5414720000000 1.0
C      1  0.4807090000000  0.5494200000000  0.4585280000000 1.0
C      1  0.5192910000000  0.4505810000000  0.4585280000000 1.0
C      1  0.4929410000000  0.5152500000000  0.5362520000000 1.0
C      1  0.5070500000000  0.4847430000000  0.5362600000000 1.0
C      1  0.4929490000000  0.4847440000000  0.4637410000000 1.0
C      1  0.5070570000000  0.5152530000000  0.4637450000000 1.0
C      1  0.4901440000000  0.5581830000000  0.5344660000000 1.0
C      1  0.5098570000000  0.4418160000000  0.5344660000000 1.0
C      1  0.4901430000000  0.4418170000000  0.4655340000000 1.0
C      1  0.5098560000000  0.5581840000000  0.4655340000000 1.0
C      1  0.5037710000000  0.5151480000000  0.4312410000000 1.0
C      1  0.4962290000000  0.4848530000000  0.4312440000000 1.0
C      1  0.5037710000000  0.4848530000000  0.5687560000000 1.0
C      1  0.4962290000000  0.5151480000000  0.5687570000000 1.0
C      1  0.4673390000000  0.5071710000000  0.4882980000000 1.0
C      1  0.5326330000000  0.4928430000000  0.4883020000000 1.0
C      1  0.4673080000000  0.4928100000000  0.5117310000000 1.0
C      1  0.5326600000000  0.5071720000000  0.5117030000000 1.0
C      1  0.5537600000000  0.5104750000000  0.4343280000000 1.0
C      1  0.4462400000000  0.4895250000000  0.4343280000000 1.0
C      1  0.5537600000000  0.4895250000000  0.5656720000000 1.0
C      1  0.4462400000000  0.5104750000000  0.5656720000000 1.0
C      1  0.5181300000000  0.5357160000000  0.5675240000000 1.0
C      1  0.4818710000000  0.4642840000000  0.5675240000000 1.0
C      1  0.5181290000000  0.4642840000000  0.4324760000000 1.0
C      1  0.4818700000000  0.5357170000000  0.4324760000000 1.0
C      1  0.5645340000000  0.4727930000000  0.4697260000000 1.0
C      1  0.4354900000000  0.5271920000000  0.4697400000000 1.0
C      1  0.5645110000000  0.5271930000000  0.5302600000000 1.0
C      1  0.4355280000000  0.4728310000000  0.5302380000000 1.0
C      1  0.5455920000000  0.5491470000000  0.5240570000000 1.0
C      1  0.4544080000000  0.4508530000000  0.5240570000000 1.0
C      1  0.5455930000000  0.4508520000000  0.4759420000000 1.0
C      1  0.4544070000000  0.5491480000000  0.4759430000000 1.0
C      1  0.5382460000000  0.5559390000000  0.4962980000000 1.0
C      1  0.4617540000000  0.4440610000000  0.4962980000000 1.0
C      1  0.5382460000000  0.4440620000000  0.5037020000000 1.0
C      1  0.4617540000000  0.5559390000000  0.5037020000000 1.0
C      1  0.5108360000000  0.4721920000000  0.4857600000000 1.0
C      1  0.4891630000000  0.5278100000000  0.4857580000000 1.0
C      1  0.5108370000000  0.5278100000000  0.5142420000000 1.0
C      1  0.4891630000000  0.4721910000000  0.5142420000000 1.0
C      1  0.4463740000000  0.4975930000000  0.4641700000000 1.0
C      1  0.5536260000000  0.5024060000000  0.4641730000000 1.0
C      1  0.4463740000000  0.5024070000000  0.5358290000000 1.0
C      1  0.5536260000000  0.4975930000000  0.5358300000000 1.0
C      1  0.5347310000000  0.4679600000000  0.5287580000000 1.0
C      1  0.4652700000000  0.5320400000000  0.5287580000000 1.0
C      1  0.5347290000000  0.5320390000000  0.4712410000000 1.0
C      1  0.4652690000000  0.4679600000000  0.4712420000000 1.0
C      1  0.4879930000000  0.4250970000000  0.4910330000000 1.0
C      1  0.5120070000000  0.5749030000000  0.4910330000000 1.0
C      1  0.4879930000000  0.5749030000000  0.5089670000000 1.0
C      1  0.5120070000000  0.4250970000000  0.5089670000000 1.0
END
