TITL C-3985250-725-91 -7.56960712812379e-06 125000 -350.875680987604 0 0 60 (C5) n - 1
REM
REM in /home/nfs/bkarasulu/CARBON/AIRSS/Generating-Clusters/TERSOFF/Higher-Symm/Only-C60
REM
REM
REM
REM
REM
REM ./C.cell (28575a23ae977d3b5fae324c64b13b57)
REM
REM compiler GCC version 9.2.1 20190827 (Red Hat 9.2.1-1)
REM options -cpp -mtune=generic -march=x86-64 -g -O0 -fpre-include=/usr/include/finclude/math-vector-fortran.h
REM seed 852573413 -2029635418 2058974828 872533420 666275987 1645171637 1877055543 -2077628248 383599208 277099820 -1816199744 -1518577166 -838142161 1486109161 -1710352240 447713480 -1037699553 -200865333 -1928074270 -433616714 -244106051 1739464892 -657582996 -259394208 -1126984078 1757894551 -1689703438 -515240928 -42625023 -897351673 1189891267 1395814272 -1963258594
REM
CELL 1.54180   50.00000   50.00000   50.00000   90.00000   90.00000   90.00000
LATT -1
SFAC C  
C      1  0.4321810000000  0.4452410000000  0.4963820000000 1.0
C      1  0.4321800000000  0.4795820000000  0.5509700000000 1.0
C      1  0.4321630000000  0.5421060000000  0.5351790000000 1.0
C      1  0.4321540000000  0.5464140000000  0.4708400000000 1.0
C      1  0.4321640000000  0.4865500000000  0.4468550000000 1.0
C      1  0.4569000000000  0.5519090000000  0.4564440000000 1.0
C      1  0.4569220000000  0.4745970000000  0.4371670000000 1.0
C      1  0.4569560000000  0.4323600000000  0.5047440000000 1.0
C      1  0.4569540000000  0.4835870000000  0.5657950000000 1.0
C      1  0.4569180000000  0.5574780000000  0.5359330000000 1.0
C      1  0.5088480000000  0.4774060000000  0.4451230000000 1.0
C      1  0.5088760000000  0.4408370000000  0.5045280000000 1.0
C      1  0.5088680000000  0.4860370000000  0.5576560000000 1.0
C      1  0.5088340000000  0.5505240000000  0.5310890000000 1.0
C      1  0.5088230000000  0.5451960000000  0.4615490000000 1.0
C      1  0.5113380000000  0.4575410000000  0.5494580000000 1.0
C      1  0.5113060000000  0.5339240000000  0.5556570000000 1.0
C      1  0.5112780000000  0.5634300000000  0.4849330000000 1.0
C      1  0.5112900000000  0.5052830000000  0.4350090000000 1.0
C      1  0.5113270000000  0.4398340000000  0.4748910000000 1.0
C      1  0.5744790000000  0.5186250000000  0.4827670000000 1.0
C      1  0.5744890000000  0.4894130000000  0.4769710000000 1.0
C      1  0.5745000000000  0.4748730000000  0.5029630000000 1.0
C      1  0.5744960000000  0.4950990000000  0.5248230000000 1.0
C      1  0.5744830000000  0.5221390000000  0.5123410000000 1.0
C      1  0.4760440000000  0.4989800000000  0.5253030000000 1.0
C      1  0.4760290000000  0.5237360000000  0.5087780000000 1.0
C      1  0.4760550000000  0.5156700000000  0.4801310000000 1.0
C      1  0.4760860000000  0.4859350000000  0.4789460000000 1.0
C      1  0.4760790000000  0.4756170000000  0.5068620000000 1.0
C      1  0.4803010000000  0.4696580000000  0.4542650000000 1.0
C      1  0.4803210000000  0.4471160000000  0.5147180000000 1.0
C      1  0.4803040000000  0.4976470000000  0.5548350000000 1.0
C      1  0.4802730000000  0.5514120000000  0.5191720000000 1.0
C      1  0.4802720000000  0.5341130000000  0.4570210000000 1.0
C      1  0.4859780000000  0.5243080000000  0.5657730000000 1.0
C      1  0.4859410000000  0.5700600000000  0.4971990000000 1.0
C      1  0.4859470000000  0.5189870000000  0.4324930000000 1.0
C      1  0.4859870000000  0.4416600000000  0.4610730000000 1.0
C      1  0.4860070000000  0.4449470000000  0.5434510000000 1.0
C      1  0.5356120000000  0.4582860000000  0.4574460000000 1.0
C      1  0.5356330000000  0.4466640000000  0.5265250000000 1.0
C      1  0.5356120000000  0.5087710000000  0.5589200000000 1.0
C      1  0.5355790000000  0.5587720000000  0.5098660000000 1.0
C      1  0.5355810000000  0.5275730000000  0.4471520000000 1.0
C      1  0.5583550000000  0.5426230000000  0.5257030000000 1.0
C      1  0.5583470000000  0.5376560000000  0.4674110000000 1.0
C      1  0.5583660000000  0.4806810000000  0.4541220000000 1.0
C      1  0.5583890000000  0.4504360000000  0.5042040000000 1.0
C      1  0.5583830000000  0.4887200000000  0.5484420000000 1.0
C      1  0.4267970000000  0.4741080000000  0.4983060000000 1.0
C      1  0.4267760000000  0.4903230000000  0.5241140000000 1.0
C      1  0.4267710000000  0.5198870000000  0.5166650000000 1.0
C      1  0.4267890000000  0.5219310000000  0.4862420000000 1.0
C      1  0.4268060000000  0.4936330000000  0.4749050000000 1.0
C      1  0.5531560000000  0.5030760000000  0.4366630000000 1.0
C      1  0.5531890000000  0.4407490000000  0.4775080000000 1.0
C      1  0.5531990000000  0.4603350000000  0.5494060000000 1.0
C      1  0.5531670000000  0.5347650000000  0.5529950000000 1.0
C      1  0.5531410000000  0.5611800000000  0.4833180000000 1.0
END
