TITL C-3985254-1270-1245 0.000902649472018524 125000 -295.019892265179 0 0 60 (D6h) n - 1
REM
REM in /home/nfs/bkarasulu/CARBON/AIRSS/Generating-Clusters/TERSOFF/Higher-Symm/Only-C60
REM
REM
REM
REM
REM
REM ./C.cell (28575a23ae977d3b5fae324c64b13b57)
REM
REM compiler GCC version 9.2.1 20190827 (Red Hat 9.2.1-1)
REM options -cpp -mtune=generic -march=x86-64 -g -O0 -fpre-include=/usr/include/finclude/math-vector-fortran.h
REM seed 2028640149 -692023620 -1232328253 1206556687 1998420571 243444037 1233329689 -539689009 408426326 -1688618125 -1064005551 655764315 -1503853080 1000208879 -585362688 -1086214851 1759273391 1378463783 -138366996 -1546355519 -1998714542 -2084724943 -902750052 -1570648459 -394699852 1401446523 456573123 1669752784 -939575258 2075724173 -1097167646 1718315607 1411681753
REM
CELL 1.54180   50.00000   50.00000   50.00000   90.00000   90.00000   90.00000
LATT -1
SFAC C  
C      1  0.4723000000000  0.5655830000000  0.4842260000000 1.0
C      1  0.4998190000000  0.5655910000000  0.4681450000000 1.0
C      1  0.5274810000000  0.5656120000000  0.4838880000000 1.0
C      1  0.5276820000000  0.5655780000000  0.5157780000000 1.0
C      1  0.5001850000000  0.5655910000000  0.5318530000000 1.0
C      1  0.4725040000000  0.5655830000000  0.5160940000000 1.0
C      1  0.5276900000000  0.4344140000000  0.4842210000000 1.0
C      1  0.5002020000000  0.4344070000000  0.4681420000000 1.0
C      1  0.4725040000000  0.4344040000000  0.4839250000000 1.0
C      1  0.4723110000000  0.4344000000000  0.5157500000000 1.0
C      1  0.4998430000000  0.4344070000000  0.5318550000000 1.0
C      1  0.5274960000000  0.4344110000000  0.5160980000000 1.0
C      1  0.5649370000000  0.5248750000000  0.5000250000000 1.0
C      1  0.5324640000000  0.5248540000000  0.5562150000000 1.0
C      1  0.4675720000000  0.5248590000000  0.5561840000000 1.0
C      1  0.4350820000000  0.5248260000000  0.4999990000000 1.0
C      1  0.4675530000000  0.5248510000000  0.4437890000000 1.0
C      1  0.5324510000000  0.5248410000000  0.4438000000000 1.0
C      1  0.4350670000000  0.4751300000000  0.5000090000000 1.0
C      1  0.4675250000000  0.4750830000000  0.5562430000000 1.0
C      1  0.5324400000000  0.4751580000000  0.5562260000000 1.0
C      1  0.5648880000000  0.4751580000000  0.4999990000000 1.0
C      1  0.5324540000000  0.4751620000000  0.4437660000000 1.0
C      1  0.4675410000000  0.4751110000000  0.4437910000000 1.0
C      1  0.5860070000000  0.4551840000000  0.4999690000000 1.0
C      1  0.5429880000000  0.4552150000000  0.5744930000000 1.0
C      1  0.4569970000000  0.4552350000000  0.5744920000000 1.0
C      1  0.4140120000000  0.4552130000000  0.5000240000000 1.0
C      1  0.4569970000000  0.4552390000000  0.4255020000000 1.0
C      1  0.5430060000000  0.4551920000000  0.4255050000000 1.0
C      1  0.4140050000000  0.5448150000000  0.4999920000000 1.0
C      1  0.4569970000000  0.5447850000000  0.5744750000000 1.0
C      1  0.5430130000000  0.5448070000000  0.5744830000000 1.0
C      1  0.5860000000000  0.5447780000000  0.5000770000000 1.0
C      1  0.5429990000000  0.5447760000000  0.4255190000000 1.0
C      1  0.4569630000000  0.5448160000000  0.4255170000000 1.0
C      1  0.4999820000000  0.4677390000000  0.5306580000000 1.0
C      1  0.4734500000000  0.4677250000000  0.5153140000000 1.0
C      1  0.4734540000000  0.4677430000000  0.4846940000000 1.0
C      1  0.5000120000000  0.4677390000000  0.4693540000000 1.0
C      1  0.5265220000000  0.4677460000000  0.4846590000000 1.0
C      1  0.5265150000000  0.4677530000000  0.5153300000000 1.0
C      1  0.5000310000000  0.5322450000000  0.5306090000000 1.0
C      1  0.5265460000000  0.5322610000000  0.5153180000000 1.0
C      1  0.5265620000000  0.5322650000000  0.4846950000000 1.0
C      1  0.4999980000000  0.5322550000000  0.4693810000000 1.0
C      1  0.4734550000000  0.5322550000000  0.4846860000000 1.0
C      1  0.4734720000000  0.5322440000000  0.5152820000000 1.0
C      1  0.4504710000000  0.5154650000000  0.5285930000000 1.0
C      1  0.4504380000000  0.5154680000000  0.4713850000000 1.0
C      1  0.4999750000000  0.5154730000000  0.4427870000000 1.0
C      1  0.5495980000000  0.5154800000000  0.4713910000000 1.0
C      1  0.5495690000000  0.5154580000000  0.5286070000000 1.0
C      1  0.5000100000000  0.5154800000000  0.5571820000000 1.0
C      1  0.5495770000000  0.4845340000000  0.5286050000000 1.0
C      1  0.5495660000000  0.4845480000000  0.4713900000000 1.0
C      1  0.4999950000000  0.4845360000000  0.4427440000000 1.0
C      1  0.4504260000000  0.4845450000000  0.4713660000000 1.0
C      1  0.4504190000000  0.4845500000000  0.5286490000000 1.0
C      1  0.4999810000000  0.4845520000000  0.5572510000000 1.0
END
