TITL C-3985250-725-1200 0.00247792810573818 125000 -319.362893342803 0 0 60 (C1) n - 1
REM
REM in /home/nfs/bkarasulu/CARBON/AIRSS/Generating-Clusters/TERSOFF/Higher-Symm/Only-C60
REM
REM
REM
REM
REM
REM ./C.cell (28575a23ae977d3b5fae324c64b13b57)
REM
REM compiler GCC version 9.2.1 20190827 (Red Hat 9.2.1-1)
REM options -cpp -mtune=generic -march=x86-64 -g -O0 -fpre-include=/usr/include/finclude/math-vector-fortran.h
REM seed -894572538 -241748643 1044960349 -996115749 1425227339 -116204197 1850572708 615464933 -856233400 1592642235 -1314209316 -1595875977 -1141518021 -1631116302 1068307776 1044435129 680216289 -56046754 -1776920124 -1819270097 -605067224 -1397355118 -247714074 2139261343 -387481033 1182882715 1916512766 -540909111 702310695 85430775 -1322804089 1395997593 -375928761
REM
CELL 1.54180   50.00000   50.00000   50.00000   90.00000   90.00000   90.00000
LATT -1
SFAC C  
C      1  0.5126360000000  0.5160100000000  0.4174130000000 1.0
C      1  0.5131100000000  0.4452310000000  0.4372400000000 1.0
C      1  0.5133740000000  0.4154210000000  0.5046030000000 1.0
C      1  0.5132620000000  0.4503610000000  0.5702870000000 1.0
C      1  0.5102370000000  0.5238850000000  0.5803400000000 1.0
C      1  0.5123450000000  0.5804050000000  0.5345280000000 1.0
C      1  0.5122680000000  0.5768270000000  0.4595640000000 1.0
C      1  0.4308060000000  0.5354860000000  0.5056320000000 1.0
C      1  0.4314440000000  0.5262430000000  0.4770670000000 1.0
C      1  0.4316230000000  0.4980100000000  0.4664850000000 1.0
C      1  0.4315650000000  0.4719890000000  0.4818550000000 1.0
C      1  0.4309650000000  0.4676220000000  0.5116320000000 1.0
C      1  0.4302060000000  0.4884130000000  0.5333800000000 1.0
C      1  0.4307470000000  0.5186510000000  0.5306390000000 1.0
C      1  0.4537720000000  0.4544530000000  0.4704400000000 1.0
C      1  0.4519900000000  0.4465230000000  0.5186640000000 1.0
C      1  0.4504500000000  0.4799640000000  0.5547700000000 1.0
C      1  0.4513740000000  0.5303080000000  0.5500400000000 1.0
C      1  0.4514240000000  0.5579010000000  0.5088430000000 1.0
C      1  0.4531650000000  0.5420650000000  0.4626360000000 1.0
C      1  0.4539610000000  0.4964350000000  0.4456850000000 1.0
C      1  0.4864560000000  0.5136770000000  0.5340200000000 1.0
C      1  0.4907730000000  0.5441380000000  0.5138670000000 1.0
C      1  0.4927560000000  0.5360480000000  0.4791130000000 1.0
C      1  0.4930230000000  0.5052740000000  0.4632890000000 1.0
C      1  0.4928820000000  0.4731870000000  0.4758870000000 1.0
C      1  0.4918600000000  0.4614150000000  0.5085570000000 1.0
C      1  0.4890200000000  0.4778530000000  0.5383800000000 1.0
C      1  0.4698270000000  0.5238260000000  0.4448540000000 1.0
C      1  0.4702200000000  0.4710380000000  0.4490980000000 1.0
C      1  0.4693800000000  0.4402260000000  0.4924580000000 1.0
C      1  0.4668030000000  0.4532750000000  0.5448010000000 1.0
C      1  0.4673880000000  0.5044080000000  0.5626300000000 1.0
C      1  0.4667900000000  0.5543870000000  0.5371510000000 1.0
C      1  0.4682330000000  0.5614770000000  0.4830200000000 1.0
C      1  0.5135970000000  0.4951080000000  0.4383380000000 1.0
C      1  0.5135830000000  0.4480840000000  0.4667170000000 1.0
C      1  0.5133100000000  0.4397410000000  0.5215340000000 1.0
C      1  0.5116800000000  0.4785960000000  0.5610450000000 1.0
C      1  0.5083220000000  0.5349960000000  0.5531670000000 1.0
C      1  0.5136110000000  0.5670140000000  0.5080310000000 1.0
C      1  0.5134280000000  0.5475180000000  0.4554900000000 1.0
C      1  0.4958050000000  0.5627830000000  0.5511280000000 1.0
C      1  0.4968920000000  0.5785370000000  0.4845610000000 1.0
C      1  0.4971150000000  0.5361460000000  0.4320050000000 1.0
C      1  0.4976460000000  0.4696020000000  0.4320540000000 1.0
C      1  0.4976450000000  0.4269310000000  0.4825880000000 1.0
C      1  0.4974220000000  0.4380010000000  0.5485190000000 1.0
C      1  0.4954630000000  0.4989230000000  0.5778570000000 1.0
C      1  0.5382140000000  0.4955660000000  0.4592390000000 1.0
C      1  0.5371490000000  0.4658470000000  0.4794570000000 1.0
C      1  0.5337480000000  0.4645570000000  0.5134670000000 1.0
C      1  0.5294340000000  0.4888720000000  0.5354200000000 1.0
C      1  0.5275740000000  0.5213890000000  0.5306370000000 1.0
C      1  0.5311780000000  0.5392080000000  0.5036600000000 1.0
C      1  0.5355540000000  0.5292010000000  0.4716980000000 1.0
C      1  0.5187590000000  0.4995090000000  0.4959230000000 1.0
C      1  0.5710330000000  0.4900630000000  0.4848570000000 1.0
C      1  0.4922720000000  0.5032060000000  0.5052090000000 1.0
C      1  0.5496770000000  0.5016290000000  0.5009390000000 1.0
END
