TITL C-3985259-1859-181 0.00373092081650967 125000 -348.802906048548 0 0 60 (C5) n - 1
REM
REM in /home/nfs/bkarasulu/CARBON/AIRSS/Generating-Clusters/TERSOFF/Higher-Symm/Only-C60
REM
REM
REM
REM
REM
REM ./C.cell (28575a23ae977d3b5fae324c64b13b57)
REM
REM compiler GCC version 9.2.1 20190827 (Red Hat 9.2.1-1)
REM options -cpp -mtune=generic -march=x86-64 -g -O0 -fpre-include=/usr/include/finclude/math-vector-fortran.h
REM seed 1061606558 1134007145 1597704662 1285331871 1321423631 -88222530 -1989133136 1516529650 788047644 1629044979 1834123020 -692462871 -264848777 -812010909 -1651563137 -679902204 -1608455635 1651437959 -1439920834 -1246148489 1162907972 -45416502 182888033 235999989 -139405821 -652874612 119829440 -1300579468 330347430 -1930455010 -1989143163 -134743770 1572952649
REM
CELL 1.54180   50.00000   50.00000   50.00000   90.00000   90.00000   90.00000
LATT -1
SFAC C  
C      1  0.4641640000000  0.4402650000000  0.4797750000000 1.0
C      1  0.4641680000000  0.5007730000000  0.4369410000000 1.0
C      1  0.4641670000000  0.5602110000000  0.4812550000000 1.0
C      1  0.4641590000000  0.5364290000000  0.5514790000000 1.0
C      1  0.4641560000000  0.4622980000000  0.5505590000000 1.0
C      1  0.5031820000000  0.4557690000000  0.4457910000000 1.0
C      1  0.5031790000000  0.5378890000000  0.4411840000000 1.0
C      1  0.5032270000000  0.5676680000000  0.5178460000000 1.0
C      1  0.5032540000000  0.5039490000000  0.5698800000000 1.0
C      1  0.5032060000000  0.4347710000000  0.5253270000000 1.0
C      1  0.4868000000000  0.4742360000000  0.5042480000000 1.0
C      1  0.4868030000000  0.4879960000000  0.4768080000000 1.0
C      1  0.4868030000000  0.5183470000000  0.4814160000000 1.0
C      1  0.4867950000000  0.5233390000000  0.5117070000000 1.0
C      1  0.4867920000000  0.4960770000000  0.5258120000000 1.0
C      1  0.5193250000000  0.4915370000000  0.4738710000000 1.0
C      1  0.5193250000000  0.5222350000000  0.4838770000000 1.0
C      1  0.5193240000000  0.5222080000000  0.5161670000000 1.0
C      1  0.5193230000000  0.4914870000000  0.5261190000000 1.0
C      1  0.5193240000000  0.4725330000000  0.4999750000000 1.0
C      1  0.5413960000000  0.5611820000000  0.4688560000000 1.0
C      1  0.5413980000000  0.5485270000000  0.5485660000000 1.0
C      1  0.5413980000000  0.4688050000000  0.5611590000000 1.0
C      1  0.5413960000000  0.4321950000000  0.4892330000000 1.0
C      1  0.5413960000000  0.4892860000000  0.4321880000000 1.0
C      1  0.4471510000000  0.5112110000000  0.5498180000000 1.0
C      1  0.4471600000000  0.4560820000000  0.5260570000000 1.0
C      1  0.4471650000000  0.4616460000000  0.4662870000000 1.0
C      1  0.4471660000000  0.5202090000000  0.4531050000000 1.0
C      1  0.4471570000000  0.5508440000000  0.5047290000000 1.0
C      1  0.5622380000000  0.4650100000000  0.5414700000000 1.0
C      1  0.5622380000000  0.4497470000000  0.4795370000000 1.0
C      1  0.5622380000000  0.5039330000000  0.4458830000000 1.0
C      1  0.5622380000000  0.5526820000000  0.4870160000000 1.0
C      1  0.5622400000000  0.5286290000000  0.5460930000000 1.0
C      1  0.4690170000000  0.5354710000000  0.4656670000000 1.0
C      1  0.4689890000000  0.5435800000000  0.5231250000000 1.0
C      1  0.4689730000000  0.4914680000000  0.5485760000000 1.0
C      1  0.4690020000000  0.4511380000000  0.5069160000000 1.0
C      1  0.4690160000000  0.4783090000000  0.4556570000000 1.0
C      1  0.4294340000000  0.4776440000000  0.5138830000000 1.0
C      1  0.4294350000000  0.4798890000000  0.4830270000000 1.0
C      1  0.4294360000000  0.5099270000000  0.4756280000000 1.0
C      1  0.4294330000000  0.5262460000000  0.5019080000000 1.0
C      1  0.4294310000000  0.5062970000000  0.5255510000000 1.0
C      1  0.5146090000000  0.5486600000000  0.4685510000000 1.0
C      1  0.5146140000000  0.5449570000000  0.5365610000000 1.0
C      1  0.5146180000000  0.4791200000000  0.5540580000000 1.0
C      1  0.5146130000000  0.4421440000000  0.4968420000000 1.0
C      1  0.5146100000000  0.4851280000000  0.4440030000000 1.0
C      1  0.5680630000000  0.5133650000000  0.5219740000000 1.0
C      1  0.5680630000000  0.4832310000000  0.5195020000000 1.0
C      1  0.5680640000000  0.4762720000000  0.4900780000000 1.0
C      1  0.5680650000000  0.5021040000000  0.4743670000000 1.0
C      1  0.5680640000000  0.5250290000000  0.4940800000000 1.0
C      1  0.4945940000000  0.4417380000000  0.4720010000000 1.0
C      1  0.4945950000000  0.5086260000000  0.4359390000000 1.0
C      1  0.4946040000000  0.5635990000000  0.4884050000000 1.0
C      1  0.4946070000000  0.5306860000000  0.5569070000000 1.0
C      1  0.4945960000000  0.4553660000000  0.5467630000000 1.0
END
