TITL C-3985259-1859-138 -0.000338612516862192 125000 -305.738252793965 0 0 60 (C5v) n - 1
REM
REM in /home/nfs/bkarasulu/CARBON/AIRSS/Generating-Clusters/TERSOFF/Higher-Symm/Only-C60
REM
REM
REM
REM
REM
REM ./C.cell (28575a23ae977d3b5fae324c64b13b57)
REM
REM compiler GCC version 9.2.1 20190827 (Red Hat 9.2.1-1)
REM options -cpp -mtune=generic -march=x86-64 -g -O0 -fpre-include=/usr/include/finclude/math-vector-fortran.h
REM seed 2105700045 -1837275150 -1137377539 -913626665 2080304007 540709465 1742519246 2011645998 -885053281 -1443234428 -729966644 -861021360 661378541 721130124 1588266672 -1724425767 -1429613298 -138307567 1776004373 -593215062 -1691831666 -492518433 85969407 -1757423458 -1137610980 1140134229 1537674899 -1234026315 -572496524 552091782 -1719043553 -1571390104 -1320692021
REM
CELL 1.54180   50.00000   50.00000   50.00000   90.00000   90.00000   90.00000
LATT -1
SFAC C  
C      1  0.5418130000000  0.4697790000000  0.4419320000000 1.0
C      1  0.4841890000000  0.4508840000000  0.4419110000000 1.0
C      1  0.4484410000000  0.4998810000000  0.4419200000000 1.0
C      1  0.4839220000000  0.5490170000000  0.4419340000000 1.0
C      1  0.5416730000000  0.5304720000000  0.4419630000000 1.0
C      1  0.4581870000000  0.4697790000000  0.4419320000000 1.0
C      1  0.5158110000000  0.4508840000000  0.4419110000000 1.0
C      1  0.5515590000000  0.4998810000000  0.4419200000000 1.0
C      1  0.5160780000000  0.5490170000000  0.4419340000000 1.0
C      1  0.4583270000000  0.5304720000000  0.4419630000000 1.0
C      1  0.4508760000000  0.5318870000000  0.5158390000000 1.0
C      1  0.5151500000000  0.5565710000000  0.5158340000000 1.0
C      1  0.5584780000000  0.5030710000000  0.5158240000000 1.0
C      1  0.5210120000000  0.4453280000000  0.5158290000000 1.0
C      1  0.4545100000000  0.4631270000000  0.5158200000000 1.0
C      1  0.5491240000000  0.5318870000000  0.5158390000000 1.0
C      1  0.4848500000000  0.5565710000000  0.5158340000000 1.0
C      1  0.4415220000000  0.5030710000000  0.5158240000000 1.0
C      1  0.4789880000000  0.4453280000000  0.5158290000000 1.0
C      1  0.5454900000000  0.4631270000000  0.5158200000000 1.0
C      1  0.4829600000000  0.4513200000000  0.5701110000000 1.0
C      1  0.4483810000000  0.5011600000000  0.5700790000000 1.0
C      1  0.4851780000000  0.5494170000000  0.5700690000000 1.0
C      1  0.5423450000000  0.5293250000000  0.5700900000000 1.0
C      1  0.5410160000000  0.4687720000000  0.5701110000000 1.0
C      1  0.5170400000000  0.4513200000000  0.5701110000000 1.0
C      1  0.5516190000000  0.5011600000000  0.5700790000000 1.0
C      1  0.5148220000000  0.5494170000000  0.5700690000000 1.0
C      1  0.4576550000000  0.5293250000000  0.5700900000000 1.0
C      1  0.4589840000000  0.4687720000000  0.5701110000000 1.0
C      1  0.4790260000000  0.4333440000000  0.4673200000000 1.0
C      1  0.4301520000000  0.4993610000000  0.4673350000000 1.0
C      1  0.4778200000000  0.5662680000000  0.4673420000000 1.0
C      1  0.5561700000000  0.5416180000000  0.4673530000000 1.0
C      1  0.5568980000000  0.4594370000000  0.4673360000000 1.0
C      1  0.5209740000000  0.4333440000000  0.4673200000000 1.0
C      1  0.5698480000000  0.4993610000000  0.4673350000000 1.0
C      1  0.5221800000000  0.5662680000000  0.4673420000000 1.0
C      1  0.4438300000000  0.5416180000000  0.4673530000000 1.0
C      1  0.4431020000000  0.4594370000000  0.4673360000000 1.0
C      1  0.5000000000000  0.5835980000000  0.4749070000000 1.0
C      1  0.5491520000000  0.4322680000000  0.4749060000000 1.0
C      1  0.4204430000000  0.5258990000000  0.4749180000000 1.0
C      1  0.4508480000000  0.4322680000000  0.4749060000000 1.0
C      1  0.5795570000000  0.5258990000000  0.4749180000000 1.0
C      1  0.4756420000000  0.4920970000000  0.4857150000000 1.0
C      1  0.5000000000000  0.4744090000000  0.4856660000000 1.0
C      1  0.5243580000000  0.4920970000000  0.4857150000000 1.0
C      1  0.5150550000000  0.5207320000000  0.4857800000000 1.0
C      1  0.4849450000000  0.5207320000000  0.4857800000000 1.0
C      1  0.5000000000000  0.4431990000000  0.4896330000000 1.0
C      1  0.4665820000000  0.5459980000000  0.4896520000000 1.0
C      1  0.5334180000000  0.5459980000000  0.4896520000000 1.0
C      1  0.4459420000000  0.4824260000000  0.4896110000000 1.0
C      1  0.5540580000000  0.4824260000000  0.4896110000000 1.0
C      1  0.4661850000000  0.5465220000000  0.5403970000000 1.0
C      1  0.4452860000000  0.4821970000000  0.5403870000000 1.0
C      1  0.5338150000000  0.5465220000000  0.5403970000000 1.0
C      1  0.5000000000000  0.4424350000000  0.5404230000000 1.0
C      1  0.5547140000000  0.4821970000000  0.5403870000000 1.0
END
