TITL C-3985245-9316-155 1.71511860383965e-05 125000 -383.203933190681 0 0 60 (C1) n - 1
REM
REM in /home/nfs/bkarasulu/CARBON/AIRSS/Generating-Clusters/TERSOFF/Higher-Symm/Only-C60
REM
REM
REM
REM
REM
REM ./C.cell (28575a23ae977d3b5fae324c64b13b57)
REM
REM compiler GCC version 9.2.1 20190827 (Red Hat 9.2.1-1)
REM options -cpp -mtune=generic -march=x86-64 -g -O0 -fpre-include=/usr/include/finclude/math-vector-fortran.h
REM seed 1564051236 1093924678 -1295299909 1326263778 -359351912 -130468239 -592235276 -1649428825 1990054141 -95209491 -1375872323 893499379 378421702 -1011675346 1706468604 -1228784363 122475220 -861842502 -1415772232 -136328087 1421284427 -76193054 -1054621451 1314981560 876847733 1531641558 1150404452 -1833416233 -725924023 1729578305 -687377989 1624557699 1202589366
REM
CELL 1.54180   50.00000   50.00000   50.00000   90.00000   90.00000   90.00000
LATT -1
SFAC C  
C      1  0.4510600000000  0.4457020000000  0.4851220000000 1.0
C      1  0.4782410000000  0.4491930000000  0.4438360000000 1.0
C      1  0.4444700000000  0.4850040000000  0.4524530000000 1.0
C      1  0.5481820000000  0.4449350000000  0.5144750000000 1.0
C      1  0.4515970000000  0.5547240000000  0.5147000000000 1.0
C      1  0.5510560000000  0.5586440000000  0.4788230000000 1.0
C      1  0.5205800000000  0.4490700000000  0.5559580000000 1.0
C      1  0.4787190000000  0.5501150000000  0.5562270000000 1.0
C      1  0.5202340000000  0.5496140000000  0.4422110000000 1.0
C      1  0.5581460000000  0.4784660000000  0.5506110000000 1.0
C      1  0.4411420000000  0.5207870000000  0.5509020000000 1.0
C      1  0.5586160000000  0.5203620000000  0.4497290000000 1.0
C      1  0.4519380000000  0.5537100000000  0.4851550000000 1.0
C      1  0.4783100000000  0.5501980000000  0.4435630000000 1.0
C      1  0.4445500000000  0.5145590000000  0.4523970000000 1.0
C      1  0.5512310000000  0.5587860000000  0.5207240000000 1.0
C      1  0.4507150000000  0.4447170000000  0.5147630000000 1.0
C      1  0.5481300000000  0.4450210000000  0.4850600000000 1.0
C      1  0.5206070000000  0.5502370000000  0.5574960000000 1.0
C      1  0.4786320000000  0.4492910000000  0.5559840000000 1.0
C      1  0.5202200000000  0.4496460000000  0.4437070000000 1.0
C      1  0.5581040000000  0.5203660000000  0.5498550000000 1.0
C      1  0.4410360000000  0.4788380000000  0.5509290000000 1.0
C      1  0.5586680000000  0.4784360000000  0.4490110000000 1.0
C      1  0.5239970000000  0.4372240000000  0.5293240000000 1.0
C      1  0.5325750000000  0.5238880000000  0.4365560000000 1.0
C      1  0.4348890000000  0.5316810000000  0.5247830000000 1.0
C      1  0.4748920000000  0.4374600000000  0.4703230000000 1.0
C      1  0.5246550000000  0.5635390000000  0.4677530000000 1.0
C      1  0.4759260000000  0.5618660000000  0.5295250000000 1.0
C      1  0.4675350000000  0.5242510000000  0.5630430000000 1.0
C      1  0.5318240000000  0.4748710000000  0.5629540000000 1.0
C      1  0.4684840000000  0.4755560000000  0.4374370000000 1.0
C      1  0.5645970000000  0.5328110000000  0.4753210000000 1.0
C      1  0.4359710000000  0.4703120000000  0.4764100000000 1.0
C      1  0.5638210000000  0.4687470000000  0.5239320000000 1.0
C      1  0.5248940000000  0.5639930000000  0.5318260000000 1.0
C      1  0.5325320000000  0.4748750000000  0.4363620000000 1.0
C      1  0.4344780000000  0.4680570000000  0.5248380000000 1.0
C      1  0.4757500000000  0.5616810000000  0.4702340000000 1.0
C      1  0.5237960000000  0.4376110000000  0.4702500000000 1.0
C      1  0.4750590000000  0.4372570000000  0.5294680000000 1.0
C      1  0.4674790000000  0.4751260000000  0.5628960000000 1.0
C      1  0.5318880000000  0.5239680000000  0.5627170000000 1.0
C      1  0.4685460000000  0.5238030000000  0.4372480000000 1.0
C      1  0.5639490000000  0.4687560000000  0.4757550000000 1.0
C      1  0.4363570000000  0.5293880000000  0.4763970000000 1.0
C      1  0.5644910000000  0.5328210000000  0.5243480000000 1.0
C      1  0.5006920000000  0.5681890000000  0.4846870000000 1.0
C      1  0.4994790000000  0.4308790000000  0.5146000000000 1.0
C      1  0.4267740000000  0.5146590000000  0.5009870000000 1.0
C      1  0.5713600000000  0.4867660000000  0.4998580000000 1.0
C      1  0.5007800000000  0.5683250000000  0.5149080000000 1.0
C      1  0.5150790000000  0.4994990000000  0.5671900000000 1.0
C      1  0.5698690000000  0.5168830000000  0.4998510000000 1.0
C      1  0.4994010000000  0.4310230000000  0.4850180000000 1.0
C      1  0.4864920000000  0.4995520000000  0.4299830000000 1.0
C      1  0.5165840000000  0.4994600000000  0.4313210000000 1.0
C      1  0.4843040000000  0.4996160000000  0.5672010000000 1.0
C      1  0.4266150000000  0.4851900000000  0.5010030000000 1.0
END
