TITL C-3985250-725-520 1.57589413241488e-07 125000 -359.791707518161 0 0 60 (C4h) n - 1
REM
REM in /home/nfs/bkarasulu/CARBON/AIRSS/Generating-Clusters/TERSOFF/Higher-Symm/Only-C60
REM
REM
REM
REM
REM
REM ./C.cell (28575a23ae977d3b5fae324c64b13b57)
REM
REM compiler GCC version 9.2.1 20190827 (Red Hat 9.2.1-1)
REM options -cpp -mtune=generic -march=x86-64 -g -O0 -fpre-include=/usr/include/finclude/math-vector-fortran.h
REM seed 1464790808 1152414634 -203375681 1247432193 -25682622 635571085 1822741315 -27823919 77468826 1751415879 685687977 1705167172 1528172759 55942241 1579682250 -1482454560 -364726674 -658285855 633302023 1437363636 1743054544 -616977796 1862086052 -261879384 214157601 -891009135 -50752367 1236360601 -1794430890 -106292674 -1914127062 -941007362 2146148452
REM
CELL 1.54180   50.00000   50.00000   50.00000   90.00000   90.00000   90.00000
LATT -1
SFAC C  
C      1  0.4926130000000  0.5810930000000  0.5279390000000 1.0
C      1  0.4189070000000  0.4926130000000  0.5279390000000 1.0
C      1  0.5073870000000  0.4189070000000  0.5279390000000 1.0
C      1  0.5810930000000  0.5073870000000  0.5279390000000 1.0
C      1  0.4926130000000  0.5810930000000  0.4689400000000 1.0
C      1  0.4189070000000  0.4926130000000  0.4689400000000 1.0
C      1  0.5073870000000  0.4189070000000  0.4689400000000 1.0
C      1  0.5810930000000  0.5073870000000  0.4689400000000 1.0
C      1  0.5077860000000  0.6013330000000  0.5129710000000 1.0
C      1  0.3986670000000  0.5077860000000  0.5129710000000 1.0
C      1  0.4922140000000  0.3986670000000  0.5129710000000 1.0
C      1  0.6013330000000  0.4922140000000  0.5129710000000 1.0
C      1  0.5077860000000  0.6013330000000  0.4839090000000 1.0
C      1  0.3986670000000  0.5077860000000  0.4839090000000 1.0
C      1  0.4922140000000  0.3986670000000  0.4839090000000 1.0
C      1  0.6013330000000  0.4922140000000  0.4839090000000 1.0
C      1  0.5616110000000  0.4927580000000  0.4530910000000 1.0
C      1  0.5072420000000  0.5616110000000  0.4530910000000 1.0
C      1  0.4383890000000  0.5072420000000  0.4530910000000 1.0
C      1  0.4927580000000  0.4383890000000  0.4530910000000 1.0
C      1  0.5616110000000  0.4927580000000  0.5437890000000 1.0
C      1  0.5072420000000  0.5616110000000  0.5437890000000 1.0
C      1  0.4383890000000  0.5072420000000  0.5437890000000 1.0
C      1  0.4927580000000  0.4383890000000  0.5437890000000 1.0
C      1  0.5311010000000  0.4280240000000  0.4835540000000 1.0
C      1  0.5719760000000  0.5311010000000  0.4835540000000 1.0
C      1  0.4688990000000  0.5719760000000  0.4835540000000 1.0
C      1  0.4280240000000  0.4688990000000  0.4835540000000 1.0
C      1  0.5311010000000  0.4280240000000  0.5133250000000 1.0
C      1  0.5719760000000  0.5311010000000  0.5133250000000 1.0
C      1  0.4688990000000  0.5719760000000  0.5133250000000 1.0
C      1  0.4280240000000  0.4688990000000  0.5133250000000 1.0
C      1  0.5515960000000  0.5511300000000  0.5233890000000 1.0
C      1  0.4488700000000  0.5515960000000  0.5233890000000 1.0
C      1  0.4484040000000  0.4488700000000  0.5233890000000 1.0
C      1  0.5511300000000  0.4484040000000  0.5233890000000 1.0
C      1  0.5515960000000  0.5511300000000  0.4734910000000 1.0
C      1  0.4488700000000  0.5515960000000  0.4734910000000 1.0
C      1  0.4484040000000  0.4488700000000  0.4734910000000 1.0
C      1  0.5511300000000  0.4484040000000  0.4734910000000 1.0
C      1  0.5123890000000  0.5204520000000  0.4812910000000 1.0
C      1  0.4795480000000  0.5123890000000  0.4812910000000 1.0
C      1  0.4876110000000  0.4795480000000  0.4812910000000 1.0
C      1  0.5204520000000  0.4876110000000  0.4812910000000 1.0
C      1  0.5123890000000  0.5204520000000  0.5155890000000 1.0
C      1  0.4795480000000  0.5123890000000  0.5155890000000 1.0
C      1  0.4876110000000  0.4795480000000  0.5155890000000 1.0
C      1  0.5204520000000  0.4876110000000  0.5155890000000 1.0
C      1  0.4583130000000  0.5249310000000  0.5320680000000 1.0
C      1  0.4750690000000  0.4583130000000  0.5320680000000 1.0
C      1  0.5416870000000  0.4750690000000  0.5320680000000 1.0
C      1  0.5249310000000  0.5416870000000  0.5320680000000 1.0
C      1  0.4583130000000  0.5249310000000  0.4648120000000 1.0
C      1  0.4750690000000  0.4583130000000  0.4648120000000 1.0
C      1  0.5416870000000  0.4750690000000  0.4648120000000 1.0
C      1  0.5249310000000  0.5416870000000  0.4648120000000 1.0
C      1  0.4317250000000  0.5502900000000  0.4984400000000 1.0
C      1  0.4497100000000  0.4317250000000  0.4984400000000 1.0
C      1  0.5682750000000  0.4497100000000  0.4984400000000 1.0
C      1  0.5502900000000  0.5682750000000  0.4984400000000 1.0
END
