TITL C-3985247-764-400 2.4024019622416e-07 125000 -317.138023634826 0 0 60 (Td) n - 1
REM
REM in /home/nfs/bkarasulu/CARBON/AIRSS/Generating-Clusters/TERSOFF/Higher-Symm/Only-C60
REM
REM
REM
REM
REM
REM ./C.cell (28575a23ae977d3b5fae324c64b13b57)
REM
REM compiler GCC version 9.2.1 20190827 (Red Hat 9.2.1-1)
REM options -cpp -mtune=generic -march=x86-64 -g -O0 -fpre-include=/usr/include/finclude/math-vector-fortran.h
REM seed -982123035 1832777160 -723477187 -608171343 -1791166794 -225115098 1262656730 -116806149 785295484 330474303 659985435 1018452670 2130536754 -2064701904 829856672 -545315671 -1831672502 1764022427 1024376075 165579320 -1571296119 845772298 1829392695 1413904621 1007956267 566321816 1069159126 -407048874 -137298540 514800553 -1831105107 -1514867015 955368933
REM
CELL 1.54180   50.00000   50.00000   50.00000   90.00000   90.00000   90.00000
LATT -1
SFAC C  
C      1  0.4510260000000  0.5714800000000  0.4734860000000 1.0
C      1  0.5714800000000  0.4734860000000  0.4510260000000 1.0
C      1  0.4734860000000  0.4510260000000  0.5714800000000 1.0
C      1  0.5489740000000  0.4285200000000  0.4734860000000 1.0
C      1  0.4510260000000  0.4285200000000  0.5265140000000 1.0
C      1  0.5489740000000  0.5714800000000  0.5265140000000 1.0
C      1  0.4285200000000  0.5265140000000  0.4510260000000 1.0
C      1  0.5714800000000  0.5265140000000  0.5489740000000 1.0
C      1  0.4285200000000  0.4734860000000  0.5489740000000 1.0
C      1  0.5265140000000  0.5489740000000  0.5714800000000 1.0
C      1  0.4734860000000  0.5489740000000  0.4285200000000 1.0
C      1  0.5265140000000  0.4510260000000  0.4285200000000 1.0
C      1  0.5714800000000  0.4510260000000  0.4734860000000 1.0
C      1  0.4734860000000  0.5714800000000  0.4510260000000 1.0
C      1  0.4510260000000  0.4734860000000  0.5714800000000 1.0
C      1  0.4285200000000  0.5489740000000  0.4734860000000 1.0
C      1  0.4285200000000  0.4510260000000  0.5265140000000 1.0
C      1  0.5714800000000  0.5489740000000  0.5265140000000 1.0
C      1  0.5265140000000  0.4285200000000  0.4510260000000 1.0
C      1  0.5265140000000  0.5714800000000  0.5489740000000 1.0
C      1  0.4734860000000  0.4285200000000  0.5489740000000 1.0
C      1  0.5489740000000  0.5265140000000  0.5714800000000 1.0
C      1  0.5489740000000  0.4734860000000  0.4285200000000 1.0
C      1  0.4510260000000  0.5265140000000  0.4285200000000 1.0
C      1  0.4702830000000  0.5524150000000  0.4931070000000 1.0
C      1  0.5524150000000  0.4931070000000  0.4702830000000 1.0
C      1  0.4931070000000  0.4702830000000  0.5524150000000 1.0
C      1  0.5297170000000  0.4475850000000  0.4931070000000 1.0
C      1  0.4702830000000  0.4475850000000  0.5068930000000 1.0
C      1  0.5297170000000  0.5524150000000  0.5068930000000 1.0
C      1  0.4475850000000  0.5068930000000  0.4702830000000 1.0
C      1  0.5524150000000  0.5068930000000  0.5297170000000 1.0
C      1  0.4475850000000  0.4931070000000  0.5297170000000 1.0
C      1  0.5068930000000  0.5297170000000  0.5524150000000 1.0
C      1  0.4931070000000  0.5297170000000  0.4475850000000 1.0
C      1  0.5068930000000  0.4702830000000  0.4475850000000 1.0
C      1  0.5524150000000  0.4702830000000  0.4931070000000 1.0
C      1  0.4931070000000  0.5524150000000  0.4702830000000 1.0
C      1  0.4702830000000  0.4931070000000  0.5524150000000 1.0
C      1  0.4475850000000  0.5297170000000  0.4931070000000 1.0
C      1  0.4475850000000  0.4702830000000  0.5068930000000 1.0
C      1  0.5524150000000  0.5297170000000  0.5068930000000 1.0
C      1  0.5068930000000  0.4475850000000  0.4702830000000 1.0
C      1  0.5068930000000  0.5524150000000  0.5297170000000 1.0
C      1  0.4931070000000  0.4475850000000  0.5297170000000 1.0
C      1  0.5297170000000  0.5068930000000  0.5524150000000 1.0
C      1  0.5297170000000  0.4931070000000  0.4475850000000 1.0
C      1  0.4702830000000  0.5068930000000  0.4475850000000 1.0
C      1  0.5193690000000  0.4394480000000  0.5193690000000 1.0
C      1  0.4394480000000  0.5193690000000  0.5193690000000 1.0
C      1  0.5193690000000  0.5193690000000  0.4394480000000 1.0
C      1  0.4806310000000  0.5605520000000  0.5193690000000 1.0
C      1  0.5605520000000  0.4806310000000  0.5193690000000 1.0
C      1  0.4394480000000  0.4806310000000  0.4806310000000 1.0
C      1  0.5605520000000  0.5193690000000  0.4806310000000 1.0
C      1  0.4806310000000  0.4806310000000  0.4394480000000 1.0
C      1  0.5193690000000  0.4806310000000  0.5605520000000 1.0
C      1  0.4806310000000  0.5193690000000  0.5605520000000 1.0
C      1  0.4806310000000  0.4394480000000  0.4806310000000 1.0
C      1  0.5193690000000  0.5605520000000  0.4806310000000 1.0
END
