TITL C-3985254-1270-1608 -0.000343862852105345 125000 -329.584448500865 0 0 60 (C1) n - 1
REM
REM in /home/nfs/bkarasulu/CARBON/AIRSS/Generating-Clusters/TERSOFF/Higher-Symm/Only-C60
REM
REM
REM
REM
REM
REM ./C.cell (28575a23ae977d3b5fae324c64b13b57)
REM
REM compiler GCC version 9.2.1 20190827 (Red Hat 9.2.1-1)
REM options -cpp -mtune=generic -march=x86-64 -g -O0 -fpre-include=/usr/include/finclude/math-vector-fortran.h
REM seed 76419904 -437690049 -1664934459 1552666325 171092207 407716279 -1640124112 1710736994 953762065 -1708623292 -1528512918 189988226 334323609 -1812904593 -1212144361 -377106378 148973767 -451059118 549218680 -768335990 -489253816 1068751692 -1147161323 -604675924 -1187713630 564569054 -533293533 -1146771023 1046512109 -1931405679 -1644007670 -2046265473 -1190114379
REM
CELL 1.54180   50.00000   50.00000   50.00000   90.00000   90.00000   90.00000
LATT -1
SFAC C  
C      1  0.4553470000000  0.4547740000000  0.4648570000000 1.0
C      1  0.5281490000000  0.5453300000000  0.4648440000000 1.0
C      1  0.4839210000000  0.4854100000000  0.4403860000000 1.0
C      1  0.4284720000000  0.4957010000000  0.4856520000000 1.0
C      1  0.5579850000000  0.5058090000000  0.5311310000000 1.0
C      1  0.5239550000000  0.4379170000000  0.5167620000000 1.0
C      1  0.4529830000000  0.5505120000000  0.4938610000000 1.0
C      1  0.4633160000000  0.4404620000000  0.5213000000000 1.0
C      1  0.5061290000000  0.5063660000000  0.5261100000000 1.0
C      1  0.5309900000000  0.4907320000000  0.4547630000000 1.0
C      1  0.5067000000000  0.5737740000000  0.5320050000000 1.0
C      1  0.5078990000000  0.5028720000000  0.4401430000000 1.0
C      1  0.4929850000000  0.4304330000000  0.5239510000000 1.0
C      1  0.5575880000000  0.4768340000000  0.5242570000000 1.0
C      1  0.5079200000000  0.4421160000000  0.4669140000000 1.0
C      1  0.4903000000000  0.5250330000000  0.5602000000000 1.0
C      1  0.4996280000000  0.5517950000000  0.4953780000000 1.0
C      1  0.4161400000000  0.5353840000000  0.5071750000000 1.0
C      1  0.4584390000000  0.4981170000000  0.4479020000000 1.0
C      1  0.4751890000000  0.5116690000000  0.5179220000000 1.0
C      1  0.5813940000000  0.4994110000000  0.4902630000000 1.0
C      1  0.5712390000000  0.4720550000000  0.4989650000000 1.0
C      1  0.5129260000000  0.4824580000000  0.5065310000000 1.0
C      1  0.4603580000000  0.5418820000000  0.5218190000000 1.0
C      1  0.4802450000000  0.4831230000000  0.5026760000000 1.0
C      1  0.5570370000000  0.5545460000000  0.5175760000000 1.0
C      1  0.4578760000000  0.4658600000000  0.5092700000000 1.0
C      1  0.4339380000000  0.4838580000000  0.5134300000000 1.0
C      1  0.4393400000000  0.4799840000000  0.4621310000000 1.0
C      1  0.5328250000000  0.4340510000000  0.4894300000000 1.0
C      1  0.5351540000000  0.4619910000000  0.4582640000000 1.0
C      1  0.5168880000000  0.5028960000000  0.4826430000000 1.0
C      1  0.5307210000000  0.4650600000000  0.5261020000000 1.0
C      1  0.4665330000000  0.4995340000000  0.5500390000000 1.0
C      1  0.4838380000000  0.5519680000000  0.5402940000000 1.0
C      1  0.4927730000000  0.4537560000000  0.5502810000000 1.0
C      1  0.5173480000000  0.4691030000000  0.5520010000000 1.0
C      1  0.4923050000000  0.4228650000000  0.4907260000000 1.0
C      1  0.5227000000000  0.5393820000000  0.5499050000000 1.0
C      1  0.5574470000000  0.4528290000000  0.4798260000000 1.0
C      1  0.5831840000000  0.5024880000000  0.4613810000000 1.0
C      1  0.5059060000000  0.5340160000000  0.4461480000000 1.0
C      1  0.4325430000000  0.5318590000000  0.5313950000000 1.0
C      1  0.4615830000000  0.5222550000000  0.4640150000000 1.0
C      1  0.5616470000000  0.5250860000000  0.5061360000000 1.0
C      1  0.5222780000000  0.5690290000000  0.4827670000000 1.0
C      1  0.5147140000000  0.4988670000000  0.5571050000000 1.0
C      1  0.4783490000000  0.5453140000000  0.4509410000000 1.0
C      1  0.5326910000000  0.5716530000000  0.5118630000000 1.0
C      1  0.5427020000000  0.5228630000000  0.4790800000000 1.0
C      1  0.5420930000000  0.5150000000000  0.5543630000000 1.0
C      1  0.4887480000000  0.5209850000000  0.4866610000000 1.0
C      1  0.4767300000000  0.3997790000000  0.4819720000000 1.0
C      1  0.4318820000000  0.5289120000000  0.4806470000000 1.0
C      1  0.4832580000000  0.4571050000000  0.4539270000000 1.0
C      1  0.4695540000000  0.4702150000000  0.5570950000000 1.0
C      1  0.4381500000000  0.5033510000000  0.5368690000000 1.0
C      1  0.4752960000000  0.5597510000000  0.4777770000000 1.0
C      1  0.5154440000000  0.5341260000000  0.5191550000000 1.0
C      1  0.5563310000000  0.5096910000000  0.4530190000000 1.0
END
