TITL C-3985259-1859-831 -0.000363847901564005 125000 -325.246333771791 0 0 60 (C2) n - 1
REM
REM in /home/nfs/bkarasulu/CARBON/AIRSS/Generating-Clusters/TERSOFF/Higher-Symm/Only-C60
REM
REM
REM
REM
REM
REM ./C.cell (28575a23ae977d3b5fae324c64b13b57)
REM
REM compiler GCC version 9.2.1 20190827 (Red Hat 9.2.1-1)
REM options -cpp -mtune=generic -march=x86-64 -g -O0 -fpre-include=/usr/include/finclude/math-vector-fortran.h
REM seed -1995644992 -995869884 370535464 720837759 1262237753 1208290784 -22861600 948086406 -465847367 1684449217 817168329 1262485608 -1897260861 -1018150697 1316598338 1406528487 988558168 -769377760 1476561784 578534632 627640523 1247394804 -1786522730 1550693955 1458144600 -786091664 1278718079 1868372014 1560326933 473837528 -1268319766 782919961 1058685489
REM
CELL 1.54180   50.00000   50.00000   50.00000   90.00000   90.00000   90.00000
LATT -1
SFAC C  
C      1  0.4424960000000  0.5265530000000  0.4893750000000 1.0
C      1  0.4424940000000  0.4734470000000  0.5106250000000 1.0
C      1  0.5591120000000  0.5291000000000  0.4729250000000 1.0
C      1  0.5591120000000  0.4709000000000  0.5270700000000 1.0
C      1  0.5590570000000  0.4817350000000  0.4529400000000 1.0
C      1  0.5590580000000  0.5182640000000  0.5470600000000 1.0
C      1  0.5052940000000  0.4604260000000  0.5522780000000 1.0
C      1  0.5052910000000  0.5395680000000  0.4477180000000 1.0
C      1  0.5474180000000  0.5563890000000  0.4747010000000 1.0
C      1  0.5474220000000  0.4436100000000  0.5253010000000 1.0
C      1  0.5256290000000  0.4968720000000  0.5266150000000 1.0
C      1  0.5256290000000  0.5031300000000  0.4733850000000 1.0
C      1  0.5411310000000  0.5627830000000  0.5052520000000 1.0
C      1  0.5411280000000  0.4372160000000  0.4947450000000 1.0
C      1  0.5086320000000  0.5129910000000  0.5479630000000 1.0
C      1  0.5086410000000  0.4870230000000  0.4520430000000 1.0
C      1  0.4385270000000  0.4961290000000  0.5298330000000 1.0
C      1  0.4385290000000  0.5038700000000  0.4701690000000 1.0
C      1  0.5184440000000  0.4384900000000  0.5376060000000 1.0
C      1  0.5184400000000  0.5615110000000  0.4623940000000 1.0
C      1  0.4315640000000  0.5210440000000  0.5159630000000 1.0
C      1  0.4315610000000  0.4789560000000  0.4840390000000 1.0
C      1  0.5203340000000  0.5390390000000  0.5395060000000 1.0
C      1  0.5203370000000  0.4609600000000  0.4604920000000 1.0
C      1  0.5105480000000  0.4308610000000  0.5078090000000 1.0
C      1  0.5105500000000  0.5691400000000  0.4921910000000 1.0
C      1  0.4791330000000  0.4707450000000  0.5411000000000 1.0
C      1  0.4791300000000  0.5292650000000  0.4589000000000 1.0
C      1  0.5252820000000  0.5216830000000  0.4351920000000 1.0
C      1  0.5252920000000  0.4783050000000  0.5648190000000 1.0
C      1  0.4548790000000  0.4457200000000  0.4479980000000 1.0
C      1  0.4548730000000  0.5542800000000  0.5520080000000 1.0
C      1  0.4821400000000  0.4355830000000  0.4427050000000 1.0
C      1  0.4821370000000  0.5644120000000  0.5572970000000 1.0
C      1  0.5003320000000  0.5598470000000  0.5347580000000 1.0
C      1  0.5003330000000  0.4401510000000  0.4652420000000 1.0
C      1  0.4714670000000  0.4650870000000  0.5120400000000 1.0
C      1  0.4714660000000  0.5349150000000  0.4879540000000 1.0
C      1  0.4559280000000  0.5618860000000  0.5225510000000 1.0
C      1  0.4559260000000  0.4381080000000  0.4774490000000 1.0
C      1  0.5590570000000  0.5157480000000  0.4992310000000 1.0
C      1  0.5590540000000  0.4842480000000  0.5007700000000 1.0
C      1  0.4819390000000  0.5160200000000  0.5337070000000 1.0
C      1  0.4819350000000  0.4839780000000  0.4662870000000 1.0
C      1  0.5174260000000  0.5208820000000  0.5008240000000 1.0
C      1  0.5174230000000  0.4791220000000  0.4991790000000 1.0
C      1  0.4904220000000  0.5006630000000  0.5718020000000 1.0
C      1  0.4904360000000  0.4993520000000  0.4282120000000 1.0
C      1  0.4834690000000  0.5601530000000  0.5055120000000 1.0
C      1  0.4834670000000  0.4398490000000  0.4944910000000 1.0
C      1  0.5479810000000  0.5372830000000  0.5244130000000 1.0
C      1  0.5479870000000  0.4627150000000  0.4755820000000 1.0
C      1  0.5487700000000  0.5103800000000  0.4518630000000 1.0
C      1  0.5487720000000  0.4896190000000  0.5481310000000 1.0
C      1  0.4863720000000  0.4852840000000  0.4953310000000 1.0
C      1  0.4863720000000  0.5147170000000  0.5046640000000 1.0
C      1  0.4464680000000  0.5274530000000  0.5615970000000 1.0
C      1  0.4464530000000  0.4725450000000  0.4383900000000 1.0
C      1  0.4607540000000  0.5007170000000  0.4469010000000 1.0
C      1  0.4607480000000  0.4992780000000  0.5531010000000 1.0
END
