TITL C-3985250-725-87 1.15192873386204e-06 125000 -327.808384405923 0 0 60 (C6) n - 1
REM
REM in /home/nfs/bkarasulu/CARBON/AIRSS/Generating-Clusters/TERSOFF/Higher-Symm/Only-C60
REM
REM
REM
REM
REM
REM ./C.cell (28575a23ae977d3b5fae324c64b13b57)
REM
REM compiler GCC version 9.2.1 20190827 (Red Hat 9.2.1-1)
REM options -cpp -mtune=generic -march=x86-64 -g -O0 -fpre-include=/usr/include/finclude/math-vector-fortran.h
REM seed -722051324 2047249503 230378387 1409915855 -857777662 -129130019 1717328114 -964608915 2096583179 -368346626 -1877118940 1000285000 -534753368 -344921868 174091349 410032199 943814346 -541318583 -2033080771 -1217935441 -2125687298 -1467102578 1447361506 461116255 1314061543 1277514508 -1209065819 -1361625323 -2134107736 223149059 -1480352906 -1083839669 1287828356
REM
CELL 1.54180   50.00000   50.00000   50.00000   90.00000   90.00000   90.00000
LATT -1
SFAC C  
C      1  0.5523170000000  0.4310390000000  0.5093290000000 1.0
C      1  0.5858810000000  0.5108270000000  0.5093290000000 1.0
C      1  0.5335640000000  0.5797880000000  0.5093290000000 1.0
C      1  0.4476830000000  0.5689610000000  0.5093290000000 1.0
C      1  0.4141190000000  0.4891730000000  0.5093290000000 1.0
C      1  0.4664360000000  0.4202120000000  0.5093290000000 1.0
C      1  0.4476830000000  0.4310390000000  0.4906710000000 1.0
C      1  0.4141190000000  0.5108270000000  0.4906710000000 1.0
C      1  0.4664360000000  0.5797880000000  0.4906710000000 1.0
C      1  0.5523170000000  0.5689610000000  0.4906710000000 1.0
C      1  0.5858810000000  0.4891730000000  0.4906710000000 1.0
C      1  0.5335640000000  0.4202120000000  0.4906710000000 1.0
C      1  0.5130440000000  0.4698670000000  0.4836430000000 1.0
C      1  0.5326180000000  0.4962300000000  0.4836430000000 1.0
C      1  0.5195740000000  0.5263630000000  0.4836430000000 1.0
C      1  0.4869560000000  0.5301330000000  0.4836430000000 1.0
C      1  0.4673820000000  0.5037700000000  0.4836430000000 1.0
C      1  0.4804260000000  0.4736370000000  0.4836430000000 1.0
C      1  0.4869560000000  0.4698670000000  0.5163570000000 1.0
C      1  0.4673820000000  0.4962300000000  0.5163570000000 1.0
C      1  0.4804260000000  0.5263630000000  0.5163570000000 1.0
C      1  0.5130440000000  0.5301330000000  0.5163570000000 1.0
C      1  0.5326180000000  0.5037700000000  0.5163570000000 1.0
C      1  0.5195740000000  0.4736370000000  0.5163570000000 1.0
C      1  0.4491230000000  0.5401290000000  0.5137310000000 1.0
C      1  0.4398090000000  0.4760040000000  0.5137310000000 1.0
C      1  0.4906850000000  0.4358750000000  0.5137310000000 1.0
C      1  0.5508770000000  0.4598710000000  0.5137310000000 1.0
C      1  0.5601910000000  0.5239960000000  0.5137310000000 1.0
C      1  0.5093150000000  0.5641250000000  0.5137310000000 1.0
C      1  0.5508770000000  0.5401290000000  0.4862690000000 1.0
C      1  0.5601910000000  0.4760040000000  0.4862690000000 1.0
C      1  0.5093150000000  0.4358750000000  0.4862690000000 1.0
C      1  0.4491230000000  0.4598710000000  0.4862690000000 1.0
C      1  0.4398090000000  0.5239960000000  0.4862690000000 1.0
C      1  0.4906850000000  0.5641250000000  0.4862690000000 1.0
C      1  0.4986060000000  0.4695510000000  0.4442250000000 1.0
C      1  0.5256730000000  0.4835680000000  0.4442250000000 1.0
C      1  0.5270660000000  0.5140170000000  0.4442250000000 1.0
C      1  0.5013940000000  0.5304490000000  0.4442250000000 1.0
C      1  0.4743270000000  0.5164320000000  0.4442250000000 1.0
C      1  0.4729340000000  0.4859830000000  0.4442250000000 1.0
C      1  0.5013940000000  0.4695510000000  0.5557750000000 1.0
C      1  0.4743270000000  0.4835680000000  0.5557750000000 1.0
C      1  0.4729340000000  0.5140170000000  0.5557750000000 1.0
C      1  0.4986060000000  0.5304490000000  0.5557750000000 1.0
C      1  0.5256730000000  0.5164320000000  0.5557750000000 1.0
C      1  0.5270660000000  0.4859830000000  0.5557750000000 1.0
C      1  0.4484650000000  0.4727570000000  0.4564500000000 1.0
C      1  0.4978260000000  0.4417480000000  0.4564500000000 1.0
C      1  0.5493610000000  0.4689910000000  0.4564500000000 1.0
C      1  0.5515350000000  0.5272430000000  0.4564500000000 1.0
C      1  0.5021740000000  0.5582520000000  0.4564500000000 1.0
C      1  0.4506390000000  0.5310090000000  0.4564500000000 1.0
C      1  0.5515350000000  0.4727570000000  0.5435500000000 1.0
C      1  0.5021740000000  0.4417480000000  0.5435500000000 1.0
C      1  0.4506390000000  0.4689910000000  0.5435500000000 1.0
C      1  0.4484650000000  0.5272430000000  0.5435500000000 1.0
C      1  0.4978260000000  0.5582520000000  0.5435500000000 1.0
C      1  0.5493610000000  0.5310090000000  0.5435500000000 1.0
END
