TITL C-3985255-5397-32 0.00173890231537945 125000 -317.792475599751 0 0 60 (C1) n - 1
REM
REM in /home/nfs/bkarasulu/CARBON/AIRSS/Generating-Clusters/TERSOFF/Higher-Symm/Only-C60
REM
REM
REM
REM
REM
REM ./C.cell (28575a23ae977d3b5fae324c64b13b57)
REM
REM compiler GCC version 9.2.1 20190827 (Red Hat 9.2.1-1)
REM options -cpp -mtune=generic -march=x86-64 -g -O0 -fpre-include=/usr/include/finclude/math-vector-fortran.h
REM seed 967502334 -1922969757 1644221688 -2049807073 -1137053775 2142990176 1395560540 1508596343 -1264228273 -1884344111 -446168775 -429871787 -2049655826 -1755321167 1813392121 -1796123766 -1577084915 1433631913 -364613664 -781547674 -2146956760 -420403109 -1464343609 781681187 138384271 -2045905777 828273276 -980399394 688132027 296517500 -1338487747 -1718387821 1297363650
REM
CELL 1.54180   50.00000   50.00000   50.00000   90.00000   90.00000   90.00000
LATT -1
SFAC C  
C      1  0.4388060000000  0.5359270000000  0.5219050000000 1.0
C      1  0.4673270000000  0.4955540000000  0.4256470000000 1.0
C      1  0.5066010000000  0.5320180000000  0.5343930000000 1.0
C      1  0.4814440000000  0.5116850000000  0.5077210000000 1.0
C      1  0.5591040000000  0.5409130000000  0.4570110000000 1.0
C      1  0.5576620000000  0.4577160000000  0.4812640000000 1.0
C      1  0.5525520000000  0.5139640000000  0.5239070000000 1.0
C      1  0.4574160000000  0.4632190000000  0.5378770000000 1.0
C      1  0.5076840000000  0.4445460000000  0.5025360000000 1.0
C      1  0.4488840000000  0.4673600000000  0.4642650000000 1.0
C      1  0.5492040000000  0.5172110000000  0.5547410000000 1.0
C      1  0.4815380000000  0.5333810000000  0.5520430000000 1.0
C      1  0.5620680000000  0.5382580000000  0.5082770000000 1.0
C      1  0.5088980000000  0.4978990000000  0.4332950000000 1.0
C      1  0.5276270000000  0.5636500000000  0.4751900000000 1.0
C      1  0.4716810000000  0.4728520000000  0.4439250000000 1.0
C      1  0.5594020000000  0.4336980000000  0.4984400000000 1.0
C      1  0.5754720000000  0.5316880000000  0.4813260000000 1.0
C      1  0.4375520000000  0.5070450000000  0.5236840000000 1.0
C      1  0.5126390000000  0.4750970000000  0.5594420000000 1.0
C      1  0.4482670000000  0.4621100000000  0.5101410000000 1.0
C      1  0.5317150000000  0.5526210000000  0.5054350000000 1.0
C      1  0.5080690000000  0.5307170000000  0.4353090000000 1.0
C      1  0.5329440000000  0.5465310000000  0.5416420000000 1.0
C      1  0.4367180000000  0.5465470000000  0.4940950000000 1.0
C      1  0.4744610000000  0.5072850000000  0.5639650000000 1.0
C      1  0.5011390000000  0.4791330000000  0.4563690000000 1.0
C      1  0.5412860000000  0.4852360000000  0.5523450000000 1.0
C      1  0.4797700000000  0.5509970000000  0.4741960000000 1.0
C      1  0.4907460000000  0.4891280000000  0.4864700000000 1.0
C      1  0.5317360000000  0.4629740000000  0.4593060000000 1.0
C      1  0.5635640000000  0.4809280000000  0.5004330000000 1.0
C      1  0.5564680000000  0.4699100000000  0.5305170000000 1.0
C      1  0.5221870000000  0.4353790000000  0.5280090000000 1.0
C      1  0.4748260000000  0.5224620000000  0.4340420000000 1.0
C      1  0.4571250000000  0.5693760000000  0.4893620000000 1.0
C      1  0.4633060000000  0.5323390000000  0.4586980000000 1.0
C      1  0.5457360000000  0.4933880000000  0.4556290000000 1.0
C      1  0.4790770000000  0.4335820000000  0.5077700000000 1.0
C      1  0.5573180000000  0.5048590000000  0.4832340000000 1.0
C      1  0.5195650000000  0.4397960000000  0.4763350000000 1.0
C      1  0.4659360000000  0.4949580000000  0.5361920000000 1.0
C      1  0.4211450000000  0.4932890000000  0.5029150000000 1.0
C      1  0.4961070000000  0.5439440000000  0.5060580000000 1.0
C      1  0.4272040000000  0.4950660000000  0.4733240000000 1.0
C      1  0.5507840000000  0.4401270000000  0.5263350000000 1.0
C      1  0.5284490000000  0.5229120000000  0.4884210000000 1.0
C      1  0.4951360000000  0.4915450000000  0.5773440000000 1.0
C      1  0.4773320000000  0.4407880000000  0.5386930000000 1.0
C      1  0.4783240000000  0.5698610000000  0.5116540000000 1.0
C      1  0.5054980000000  0.4443360000000  0.5517760000000 1.0
C      1  0.4367350000000  0.5246760000000  0.4699750000000 1.0
C      1  0.4952130000000  0.4811080000000  0.5343750000000 1.0
C      1  0.4531970000000  0.4385510000000  0.4868090000000 1.0
C      1  0.4625970000000  0.4792660000000  0.4889480000000 1.0
C      1  0.5081250000000  0.4769880000000  0.5081680000000 1.0
C      1  0.5332730000000  0.5243430000000  0.4548940000000 1.0
C      1  0.5049280000000  0.5551440000000  0.4582370000000 1.0
C      1  0.5225090000000  0.5060500000000  0.5145320000000 1.0
C      1  0.4579260000000  0.5480700000000  0.5411590000000 1.0
END
