TITL C-3985259-1859-935 6.13742202041109e-07 125000 -381.431434366244 0 0 60 (C5) n - 1
REM
REM in /home/nfs/bkarasulu/CARBON/AIRSS/Generating-Clusters/TERSOFF/Higher-Symm/Only-C60
REM
REM
REM
REM
REM
REM ./C.cell (28575a23ae977d3b5fae324c64b13b57)
REM
REM compiler GCC version 9.2.1 20190827 (Red Hat 9.2.1-1)
REM options -cpp -mtune=generic -march=x86-64 -g -O0 -fpre-include=/usr/include/finclude/math-vector-fortran.h
REM seed -1265833062 1423258074 -533714966 -613615926 -1956611481 -579079020 1730717155 -1340230663 -1425922012 -632114909 -1079098794 1883206048 -403809038 1815998361 -1813633734 -2580862 -242572208 1187745028 -1605845717 732163991 1362893920 -604150165 157089558 -1195211277 4487985 627951277 -905695078 -882604610 827670338 -777305745 -2019913292 -1670055974 -225692643
REM
CELL 1.54180   50.00000   50.00000   50.00000   90.00000   90.00000   90.00000
LATT -1
SFAC C  
C      1  0.4542200000000  0.4768770000000  0.4875820000000 1.0
C      1  0.4542230000000  0.5046660000000  0.4741660000000 1.0
C      1  0.4542240000000  0.5260130000000  0.4964500000000 1.0
C      1  0.4542220000000  0.5114160000000  0.5236380000000 1.0
C      1  0.4542200000000  0.4810480000000  0.5181570000000 1.0
C      1  0.4629040000000  0.5596100000000  0.4415250000000 1.0
C      1  0.4629010000000  0.5740350000000  0.5386190000000 1.0
C      1  0.4628920000000  0.4861500000000  0.5823410000000 1.0
C      1  0.4628880000000  0.4174100000000  0.5122690000000 1.0
C      1  0.4628960000000  0.4628110000000  0.4252400000000 1.0
C      1  0.5031200000000  0.4831540000000  0.5185620000000 1.0
C      1  0.5031200000000  0.4771410000000  0.4897150000000 1.0
C      1  0.5031230000000  0.5027180000000  0.4750810000000 1.0
C      1  0.5031240000000  0.5245390000000  0.4948850000000 1.0
C      1  0.5031220000000  0.5124470000000  0.5217570000000 1.0
C      1  0.4743710000000  0.4355690000000  0.5315670000000 1.0
C      1  0.4743750000000  0.4500680000000  0.4484750000000 1.0
C      1  0.4743830000000  0.5335740000000  0.4365870000000 1.0
C      1  0.4743840000000  0.5706850000000  0.5123320000000 1.0
C      1  0.4743760000000  0.5101150000000  0.5710340000000 1.0
C      1  0.5667040000000  0.4951240000000  0.4745590000000 1.0
C      1  0.5667060000000  0.5226870000000  0.4875080000000 1.0
C      1  0.5667050000000  0.5188890000000  0.5177240000000 1.0
C      1  0.5667020000000  0.4889790000000  0.5234490000000 1.0
C      1  0.5667020000000  0.4742910000000  0.4967720000000 1.0
C      1  0.5037630000000  0.4471870000000  0.4508920000000 1.0
C      1  0.5037710000000  0.5303850000000  0.4345970000000 1.0
C      1  0.5037720000000  0.5715910000000  0.5086870000000 1.0
C      1  0.5037650000000  0.5138600000000  0.5707720000000 1.0
C      1  0.5037590000000  0.4369750000000  0.5350520000000 1.0
C      1  0.5315670000000  0.4871520000000  0.4370560000000 1.0
C      1  0.5315720000000  0.5558920000000  0.4683330000000 1.0
C      1  0.5315680000000  0.5473870000000  0.5433740000000 1.0
C      1  0.5315610000000  0.4733910000000  0.5584750000000 1.0
C      1  0.5315600000000  0.4361630000000  0.4927670000000 1.0
C      1  0.5121210000000  0.4646820000000  0.5385850000000 1.0
C      1  0.5121220000000  0.4523890000000  0.4783350000000 1.0
C      1  0.5121270000000  0.5058910000000  0.4480260000000 1.0
C      1  0.5121300000000  0.5512510000000  0.4895440000000 1.0
C      1  0.5121260000000  0.5257820000000  0.5455120000000 1.0
C      1  0.4521950000000  0.4257720000000  0.4868830000000 1.0
C      1  0.4522020000000  0.4895390000000  0.4253470000000 1.0
C      1  0.4522080000000  0.5677680000000  0.4669760000000 1.0
C      1  0.4522030000000  0.5523500000000  0.5542410000000 1.0
C      1  0.4521950000000  0.4645920000000  0.5665440000000 1.0
C      1  0.4589620000000  0.5553000000000  0.4924110000000 1.0
C      1  0.4589570000000  0.5243070000000  0.5502440000000 1.0
C      1  0.4589520000000  0.4597280000000  0.5386390000000 1.0
C      1  0.4589540000000  0.4508080000000  0.4736350000000 1.0
C      1  0.4589600000000  0.5098750000000  0.4450640000000 1.0
C      1  0.5591500000000  0.4769070000000  0.5491500000000 1.0
C      1  0.5591490000000  0.4461180000000  0.4932320000000 1.0
C      1  0.5591550000000  0.4897850000000  0.4466700000000 1.0
C      1  0.5591590000000  0.5475610000000  0.4738110000000 1.0
C      1  0.5591560000000  0.5396030000000  0.5371470000000 1.0
C      1  0.5209170000000  0.5530400000000  0.4412790000000 1.0
C      1  0.5209160000000  0.5722360000000  0.5323000000000 1.0
C      1  0.5209070000000  0.4916020000000  0.5786850000000 1.0
C      1  0.5209030000000  0.4225710000000  0.5163300000000 1.0
C      1  0.5209100000000  0.4605410000000  0.4314090000000 1.0
END
