TITL C-3985253-1688-630 -0.00277441041011094 125000 -332.545668047574 0 0 60 (C1) n - 1
REM
REM in /home/nfs/bkarasulu/CARBON/AIRSS/Generating-Clusters/TERSOFF/Higher-Symm/Only-C60
REM
REM
REM
REM
REM
REM ./C.cell (28575a23ae977d3b5fae324c64b13b57)
REM
REM compiler GCC version 9.2.1 20190827 (Red Hat 9.2.1-1)
REM options -cpp -mtune=generic -march=x86-64 -g -O0 -fpre-include=/usr/include/finclude/math-vector-fortran.h
REM seed 116228868 -1773442884 -1965936188 566366706 1180427093 -1979325905 -2018452596 -929132885 -1181604333 520865575 1624283412 41416666 282886262 -1733833911 490048049 -1353995454 -1966027251 -483347132 221980638 1860314808 1650140517 1322117628 1973998244 1606700241 79742794 869543028 -586517536 1085784378 -1227526552 1584865111 -567828702 961119878 2051203
REM
CELL 1.54180   50.00000   50.00000   50.00000   90.00000   90.00000   90.00000
LATT -1
SFAC C  
C      1  0.4876090000000  0.5278130000000  0.4471890000000 1.0
C      1  0.4693610000000  0.4853220000000  0.5034660000000 1.0
C      1  0.4798630000000  0.5241710000000  0.4749450000000 1.0
C      1  0.5389260000000  0.5425880000000  0.5133360000000 1.0
C      1  0.5215190000000  0.4906950000000  0.4278300000000 1.0
C      1  0.5429830000000  0.4813400000000  0.4650190000000 1.0
C      1  0.5093590000000  0.5027350000000  0.5314470000000 1.0
C      1  0.5114060000000  0.5545550000000  0.5260630000000 1.0
C      1  0.4940810000000  0.4825250000000  0.4357090000000 1.0
C      1  0.5607210000000  0.5234270000000  0.5513200000000 1.0
C      1  0.5391810000000  0.4540870000000  0.4529020000000 1.0
C      1  0.5110430000000  0.5516450000000  0.4809930000000 1.0
C      1  0.4583240000000  0.5522450000000  0.5218810000000 1.0
C      1  0.5165950000000  0.5310640000000  0.4410840000000 1.0
C      1  0.5335640000000  0.5113530000000  0.5162970000000 1.0
C      1  0.5060100000000  0.4298130000000  0.4974970000000 1.0
C      1  0.4322030000000  0.5383600000000  0.4805520000000 1.0
C      1  0.5155810000000  0.4551950000000  0.5617100000000 1.0
C      1  0.5409000000000  0.4735100000000  0.5504710000000 1.0
C      1  0.5353820000000  0.4642630000000  0.5203810000000 1.0
C      1  0.5626710000000  0.4387540000000  0.4446220000000 1.0
C      1  0.5774660000000  0.5146850000000  0.4871390000000 1.0
C      1  0.4488280000000  0.5094990000000  0.5448800000000 1.0
C      1  0.4680430000000  0.4534410000000  0.4762210000000 1.0
C      1  0.4339290000000  0.5378830000000  0.5101910000000 1.0
C      1  0.4641250000000  0.5021260000000  0.4800390000000 1.0
C      1  0.5622340000000  0.5450150000000  0.5316210000000 1.0
C      1  0.4474300000000  0.4920150000000  0.4540220000000 1.0
C      1  0.5185670000000  0.4970510000000  0.5604470000000 1.0
C      1  0.5412400000000  0.5490180000000  0.4841950000000 1.0
C      1  0.4671520000000  0.5326120000000  0.5432560000000 1.0
C      1  0.5709200000000  0.4939860000000  0.5083320000000 1.0
C      1  0.4509240000000  0.4616910000000  0.5069560000000 1.0
C      1  0.4940490000000  0.4762270000000  0.4660810000000 1.0
C      1  0.5340640000000  0.5234690000000  0.5649790000000 1.0
C      1  0.5564360000000  0.5275020000000  0.4699320000000 1.0
C      1  0.4865130000000  0.5321870000000  0.5671750000000 1.0
C      1  0.5084690000000  0.4504540000000  0.5171200000000 1.0
C      1  0.4639760000000  0.4863170000000  0.5556470000000 1.0
C      1  0.4975440000000  0.4807700000000  0.5126830000000 1.0
C      1  0.5118690000000  0.4417970000000  0.4499010000000 1.0
C      1  0.4536590000000  0.4616360000000  0.4498170000000 1.0
C      1  0.5427160000000  0.4851130000000  0.4966580000000 1.0
C      1  0.4275190000000  0.4885980000000  0.5019600000000 1.0
C      1  0.4935430000000  0.4472240000000  0.5426650000000 1.0
C      1  0.5128860000000  0.5447800000000  0.5584920000000 1.0
C      1  0.5398080000000  0.5088010000000  0.4476420000000 1.0
C      1  0.4295270000000  0.5105480000000  0.5223880000000 1.0
C      1  0.5651660000000  0.4958960000000  0.5395680000000 1.0
C      1  0.4839900000000  0.5626130000000  0.5023370000000 1.0
C      1  0.4230500000000  0.5050010000000  0.4726550000000 1.0
C      1  0.4933100000000  0.5280060000000  0.5253410000000 1.0
C      1  0.5094140000000  0.4932660000000  0.4871660000000 1.0
C      1  0.5005250000000  0.5248580000000  0.4942020000000 1.0
C      1  0.4573680000000  0.5594670000000  0.4782080000000 1.0
C      1  0.4884550000000  0.4999660000000  0.5709630000000 1.0
C      1  0.4670170000000  0.4617430000000  0.5392360000000 1.0
C      1  0.4726000000000  0.5049370000000  0.4352760000000 1.0
C      1  0.4936670000000  0.4347690000000  0.4725180000000 1.0
C      1  0.4747200000000  0.4595750000000  0.4273770000000 1.0
END
