TITL C-3985244-725-44 -1.43590649122966e-08 125000 -227.538514554224 0 0 60 (Td) n - 1
REM
REM in /home/nfs/bkarasulu/CARBON/AIRSS/Generating-Clusters/TERSOFF/Higher-Symm/Only-C60
REM
REM
REM
REM
REM
REM ./C.cell (28575a23ae977d3b5fae324c64b13b57)
REM
REM compiler GCC version 9.2.1 20190827 (Red Hat 9.2.1-1)
REM options -cpp -mtune=generic -march=x86-64 -g -O0 -fpre-include=/usr/include/finclude/math-vector-fortran.h
REM seed 1023395489 -160179734 -802493088 1409918724 1817567963 874736281 434468875 -1337609680 474639489 -438000389 -2129572114 998032380 -1747465755 763883351 2022609218 1801066540 -381033608 -248335315 1090717700 -1338583719 -783629965 1690258183 1521222048 146024429 1788277522 -1301041620 525096676 -293382724 -2053585758 -466732428 -1938924229 1672666810 -952629509
REM
CELL 1.54180   50.00000   50.00000   50.00000   90.00000   90.00000   90.00000
LATT -1
SFAC C  
C      1  0.4746970000000  0.5001410000000  0.5508160000000 1.0
C      1  0.5001410000000  0.5508160000000  0.4746970000000 1.0
C      1  0.5508160000000  0.4746970000000  0.5001410000000 1.0
C      1  0.5253030000000  0.4998590000000  0.5508160000000 1.0
C      1  0.4746970000000  0.4998590000000  0.4491840000000 1.0
C      1  0.5253030000000  0.5001410000000  0.4491840000000 1.0
C      1  0.4998590000000  0.4491840000000  0.4746970000000 1.0
C      1  0.5001410000000  0.4491840000000  0.5253030000000 1.0
C      1  0.4998590000000  0.5508160000000  0.5253030000000 1.0
C      1  0.4491840000000  0.5253030000000  0.5001410000000 1.0
C      1  0.5508160000000  0.5253030000000  0.4998590000000 1.0
C      1  0.4491840000000  0.4746970000000  0.4998590000000 1.0
C      1  0.5001410000000  0.4746970000000  0.5508160000000 1.0
C      1  0.5508160000000  0.5001410000000  0.4746970000000 1.0
C      1  0.4746970000000  0.5508160000000  0.5001410000000 1.0
C      1  0.4998590000000  0.5253030000000  0.5508160000000 1.0
C      1  0.4998590000000  0.4746970000000  0.4491840000000 1.0
C      1  0.5001410000000  0.5253030000000  0.4491840000000 1.0
C      1  0.4491840000000  0.4998590000000  0.4746970000000 1.0
C      1  0.4491840000000  0.5001410000000  0.5253030000000 1.0
C      1  0.5508160000000  0.4998590000000  0.5253030000000 1.0
C      1  0.5253030000000  0.4491840000000  0.5001410000000 1.0
C      1  0.5253030000000  0.5508160000000  0.4998590000000 1.0
C      1  0.4746970000000  0.4491840000000  0.4998590000000 1.0
C      1  0.4153670000000  0.5231380000000  0.5001560000000 1.0
C      1  0.5231380000000  0.5001560000000  0.4153670000000 1.0
C      1  0.5001560000000  0.4153670000000  0.5231380000000 1.0
C      1  0.5846330000000  0.4768620000000  0.5001560000000 1.0
C      1  0.4153670000000  0.4768620000000  0.4998440000000 1.0
C      1  0.5846330000000  0.5231380000000  0.4998440000000 1.0
C      1  0.4768620000000  0.4998440000000  0.4153670000000 1.0
C      1  0.5231380000000  0.4998440000000  0.5846330000000 1.0
C      1  0.4768620000000  0.5001560000000  0.5846330000000 1.0
C      1  0.4998440000000  0.5846330000000  0.5231380000000 1.0
C      1  0.5001560000000  0.5846330000000  0.4768620000000 1.0
C      1  0.4998440000000  0.4153670000000  0.4768620000000 1.0
C      1  0.5231380000000  0.4153670000000  0.5001560000000 1.0
C      1  0.5001560000000  0.5231380000000  0.4153670000000 1.0
C      1  0.4153670000000  0.5001560000000  0.5231380000000 1.0
C      1  0.4768620000000  0.5846330000000  0.5001560000000 1.0
C      1  0.4768620000000  0.4153670000000  0.4998440000000 1.0
C      1  0.5231380000000  0.5846330000000  0.4998440000000 1.0
C      1  0.4998440000000  0.4768620000000  0.4153670000000 1.0
C      1  0.4998440000000  0.5231380000000  0.5846330000000 1.0
C      1  0.5001560000000  0.4768620000000  0.5846330000000 1.0
C      1  0.5846330000000  0.4998440000000  0.5231380000000 1.0
C      1  0.5846330000000  0.5001560000000  0.4768620000000 1.0
C      1  0.4153670000000  0.4998440000000  0.4768620000000 1.0
C      1  0.5504280000000  0.5504280000000  0.5254100000000 1.0
C      1  0.4495720000000  0.4495720000000  0.5254100000000 1.0
C      1  0.5504280000000  0.4495720000000  0.4745900000000 1.0
C      1  0.4495720000000  0.5504280000000  0.4745900000000 1.0
C      1  0.4495720000000  0.4745900000000  0.5504280000000 1.0
C      1  0.5504280000000  0.4745900000000  0.4495720000000 1.0
C      1  0.4745900000000  0.4495720000000  0.5504280000000 1.0
C      1  0.4745900000000  0.5504280000000  0.4495720000000 1.0
C      1  0.5504280000000  0.5254100000000  0.5504280000000 1.0
C      1  0.5254100000000  0.5504280000000  0.5504280000000 1.0
C      1  0.4495720000000  0.5254100000000  0.4495720000000 1.0
C      1  0.5254100000000  0.4495720000000  0.4495720000000 1.0
END
