TITL C-3985253-1688-355 0.000717576281400411 125000 -322.230916311114 0 0 60 (D3) n - 1
REM
REM in /home/nfs/bkarasulu/CARBON/AIRSS/Generating-Clusters/TERSOFF/Higher-Symm/Only-C60
REM
REM
REM
REM
REM
REM ./C.cell (28575a23ae977d3b5fae324c64b13b57)
REM
REM compiler GCC version 9.2.1 20190827 (Red Hat 9.2.1-1)
REM options -cpp -mtune=generic -march=x86-64 -g -O0 -fpre-include=/usr/include/finclude/math-vector-fortran.h
REM seed 1505763375 -714457703 1653498126 -1191545946 2077228812 972248134 732088195 493219071 1772188244 -1782838112 -147648229 1923699506 1670380943 -1167588286 -708591277 -1834442201 -793483302 896692392 1683007755 -18894018 1661474533 -1181124624 1844769290 1885837606 638025101 -847039290 1295665595 26902009 1754391776 -1884966228 526045017 232308934 1791943122
REM
CELL 1.54180   50.00000   50.00000   50.00000   90.00000   90.00000   90.00000
LATT -1
SFAC C  
C      1  0.4463060000000  0.5018690000000  0.4448780000000 1.0
C      1  0.5746060000000  0.5018820000000  0.4810470000000 1.0
C      1  0.4791130000000  0.5018900000000  0.5740660000000 1.0
C      1  0.5536940000000  0.4981310000000  0.4448780000000 1.0
C      1  0.4253940000000  0.4981180000000  0.4810470000000 1.0
C      1  0.5208870000000  0.4981100000000  0.5740660000000 1.0
C      1  0.4785180000000  0.5639930000000  0.4765370000000 1.0
C      1  0.5310630000000  0.5640040000000  0.4931340000000 1.0
C      1  0.4904200000000  0.5639860000000  0.5303330000000 1.0
C      1  0.5214820000000  0.4360070000000  0.4765370000000 1.0
C      1  0.4689370000000  0.4359960000000  0.4931340000000 1.0
C      1  0.5095800000000  0.4360140000000  0.5303330000000 1.0
C      1  0.4668000000000  0.5544260000000  0.5485060000000 1.0
C      1  0.4745850000000  0.5544340000000  0.4469890000000 1.0
C      1  0.5586120000000  0.5544110000000  0.5044980000000 1.0
C      1  0.5332000000000  0.4455740000000  0.5485060000000 1.0
C      1  0.5254150000000  0.4455660000000  0.4469890000000 1.0
C      1  0.4413880000000  0.4455890000000  0.5044980000000 1.0
C      1  0.5046160000000  0.5350710000000  0.5409890000000 1.0
C      1  0.4621650000000  0.5350810000000  0.4835080000000 1.0
C      1  0.5332050000000  0.5350940000000  0.4755010000000 1.0
C      1  0.4953840000000  0.4649290000000  0.5409890000000 1.0
C      1  0.5378350000000  0.4649190000000  0.4835080000000 1.0
C      1  0.4667950000000  0.4649060000000  0.4755010000000 1.0
C      1  0.4522020000000  0.5303100000000  0.5415580000000 1.0
C      1  0.4879210000000  0.5303090000000  0.4378280000000 1.0
C      1  0.5598870000000  0.5302930000000  0.5206160000000 1.0
C      1  0.5477980000000  0.4696900000000  0.5415580000000 1.0
C      1  0.5120790000000  0.4696910000000  0.4378280000000 1.0
C      1  0.4401130000000  0.4697070000000  0.5206160000000 1.0
C      1  0.5099310000000  0.5194500000000  0.4565690000000 1.0
C      1  0.5326580000000  0.5194320000000  0.5303490000000 1.0
C      1  0.4573990000000  0.5194430000000  0.5131320000000 1.0
C      1  0.4900690000000  0.4805500000000  0.4565690000000 1.0
C      1  0.4673420000000  0.4805680000000  0.5303490000000 1.0
C      1  0.5426010000000  0.4805570000000  0.5131320000000 1.0
C      1  0.5188580000000  0.5716750000000  0.5207660000000 1.0
C      1  0.4725870000000  0.5716780000000  0.5059510000000 1.0
C      1  0.5085530000000  0.5716850000000  0.4732800000000 1.0
C      1  0.4811420000000  0.4283250000000  0.5207660000000 1.0
C      1  0.5274130000000  0.4283220000000  0.5059510000000 1.0
C      1  0.4914470000000  0.4283150000000  0.4732800000000 1.0
C      1  0.4611860000000  0.5027920000000  0.5514960000000 1.0
C      1  0.4748620000000  0.5027930000000  0.4406580000000 1.0
C      1  0.5639820000000  0.5028080000000  0.5078980000000 1.0
C      1  0.5388140000000  0.4972080000000  0.5514960000000 1.0
C      1  0.5251380000000  0.4972070000000  0.4406580000000 1.0
C      1  0.4360180000000  0.4971920000000  0.5078980000000 1.0
C      1  0.5605220000000  0.5242720000000  0.4628370000000 1.0
C      1  0.5019130000000  0.5242560000000  0.5709750000000 1.0
C      1  0.4375680000000  0.5242640000000  0.4661510000000 1.0
C      1  0.4394780000000  0.4757280000000  0.4628370000000 1.0
C      1  0.4980870000000  0.4757440000000  0.5709750000000 1.0
C      1  0.5624320000000  0.4757360000000  0.4661510000000 1.0
C      1  0.4917560000000  0.5139510000000  0.5228100000000 1.0
C      1  0.4843740000000  0.5139110000000  0.4814260000000 1.0
C      1  0.5239280000000  0.5139110000000  0.4957140000000 1.0
C      1  0.5082440000000  0.4860490000000  0.5228100000000 1.0
C      1  0.5156260000000  0.4860890000000  0.4814260000000 1.0
C      1  0.4760720000000  0.4860890000000  0.4957140000000 1.0
END
