TITL C-3985254-1270-889 0.000434562352836795 125000 -301.772723364553 0 0 60 (C3) n - 1
REM
REM in /home/nfs/bkarasulu/CARBON/AIRSS/Generating-Clusters/TERSOFF/Higher-Symm/Only-C60
REM
REM
REM
REM
REM
REM ./C.cell (28575a23ae977d3b5fae324c64b13b57)
REM
REM compiler GCC version 9.2.1 20190827 (Red Hat 9.2.1-1)
REM options -cpp -mtune=generic -march=x86-64 -g -O0 -fpre-include=/usr/include/finclude/math-vector-fortran.h
REM seed 723934828 2140205508 1901617836 398462794 1287332845 1819632667 -2137125259 -1605814563 1809252570 -2069383664 -1101139558 1470478312 1815099476 -349643713 929086464 55308797 1620090368 -1749159012 945638874 -508174063 -941250360 -1063337485 1533540691 -1995051040 -1942531287 -200454330 -1611308841 768219586 -1533585964 2095576489 1653784581 -1277422414 297071856
REM
CELL 1.54180   50.00000   50.00000   50.00000   90.00000   90.00000   90.00000
LATT -1
SFAC C  
C      1  0.4815870000000  0.4902590000000  0.5760240000000 1.0
C      1  0.5007960000000  0.5208160000000  0.5760350000000 1.0
C      1  0.5176560000000  0.4888990000000  0.5760170000000 1.0
C      1  0.4441120000000  0.4862250000000  0.5296560000000 1.0
C      1  0.5159970000000  0.5552770000000  0.5296800000000 1.0
C      1  0.5398750000000  0.4584740000000  0.5296560000000 1.0
C      1  0.5587190000000  0.4657400000000  0.4787130000000 1.0
C      1  0.4409940000000  0.4662500000000  0.4787110000000 1.0
C      1  0.5002620000000  0.5680290000000  0.4787580000000 1.0
C      1  0.4810240000000  0.5082250000000  0.5380690000000 1.0
C      1  0.5166130000000  0.5123080000000  0.5380730000000 1.0
C      1  0.5023550000000  0.4794560000000  0.5380640000000 1.0
C      1  0.4750580000000  0.5342570000000  0.5192520000000 1.0
C      1  0.5421490000000  0.5044770000000  0.5192340000000 1.0
C      1  0.4828030000000  0.4612560000000  0.5192450000000 1.0
C      1  0.5447590000000  0.5432830000000  0.5350490000000 1.0
C      1  0.5151000000000  0.4395860000000  0.5350630000000 1.0
C      1  0.4401270000000  0.5171270000000  0.5350390000000 1.0
C      1  0.5415140000000  0.5546220000000  0.4536150000000 1.0
C      1  0.5264330000000  0.4367380000000  0.4536120000000 1.0
C      1  0.4320560000000  0.5087060000000  0.4535770000000 1.0
C      1  0.4665630000000  0.4524280000000  0.4815980000000 1.0
C      1  0.4755360000000  0.5527400000000  0.4816090000000 1.0
C      1  0.5579060000000  0.4948070000000  0.4815930000000 1.0
C      1  0.5251940000000  0.4805380000000  0.5120440000000 1.0
C      1  0.4705560000000  0.4879020000000  0.5120330000000 1.0
C      1  0.5042520000000  0.5315340000000  0.5120430000000 1.0
C      1  0.4613780000000  0.5274990000000  0.5581750000000 1.0
C      1  0.5431330000000  0.5196870000000  0.5581640000000 1.0
C      1  0.4954890000000  0.4528260000000  0.5581790000000 1.0
C      1  0.5135180000000  0.5624150000000  0.4521430000000 1.0
C      1  0.5471640000000  0.4570930000000  0.4521220000000 1.0
C      1  0.4392910000000  0.4805620000000  0.4521070000000 1.0
C      1  0.4789110000000  0.5271200000000  0.4404720000000 1.0
C      1  0.5339900000000  0.5047430000000  0.4404750000000 1.0
C      1  0.4871400000000  0.4681250000000  0.4404770000000 1.0
C      1  0.4649160000000  0.4722110000000  0.5555970000000 1.0
C      1  0.4934630000000  0.5442620000000  0.5556200000000 1.0
C      1  0.5416170000000  0.4835070000000  0.5555880000000 1.0
C      1  0.4388950000000  0.5262500000000  0.4790230000000 1.0
C      1  0.5532660000000  0.5398480000000  0.4790240000000 1.0
C      1  0.5078310000000  0.4338940000000  0.4790650000000 1.0
C      1  0.4735740000000  0.5222680000000  0.4697280000000 1.0
C      1  0.5325110000000  0.5117800000000  0.4697360000000 1.0
C      1  0.4939640000000  0.4659210000000  0.4697410000000 1.0
C      1  0.5462810000000  0.5671370000000  0.4934130000000 1.0
C      1  0.5349870000000  0.4263100000000  0.4933750000000 1.0
C      1  0.4187350000000  0.5065410000000  0.4933420000000 1.0
C      1  0.5188920000000  0.5720080000000  0.5025310000000 1.0
C      1  0.5528870000000  0.4476160000000  0.5024930000000 1.0
C      1  0.4282090000000  0.4803910000000  0.5024720000000 1.0
C      1  0.4967450000000  0.5484710000000  0.4325390000000 1.0
C      1  0.5434600000000  0.4785980000000  0.4325210000000 1.0
C      1  0.4597620000000  0.4729860000000  0.4325130000000 1.0
C      1  0.4969160000000  0.4360570000000  0.5088470000000 1.0
C      1  0.4461930000000  0.5346310000000  0.5088180000000 1.0
C      1  0.5568870000000  0.5293140000000  0.5088140000000 1.0
C      1  0.4767490000000  0.4931060000000  0.4835980000000 1.0
C      1  0.5056640000000  0.5235730000000  0.4836110000000 1.0
C      1  0.5175860000000  0.4832910000000  0.4836180000000 1.0
END
