TITL C-3985244-725-227 -5.72089446388195e-07 125000 -306.33200481677 0 0 60 (S12) n - 1
REM
REM in /home/nfs/bkarasulu/CARBON/AIRSS/Generating-Clusters/TERSOFF/Higher-Symm/Only-C60
REM
REM
REM
REM
REM
REM ./C.cell (28575a23ae977d3b5fae324c64b13b57)
REM
REM compiler GCC version 9.2.1 20190827 (Red Hat 9.2.1-1)
REM options -cpp -mtune=generic -march=x86-64 -g -O0 -fpre-include=/usr/include/finclude/math-vector-fortran.h
REM seed 727062026 -591838276 -281530081 968902723 -1631538372 -2110677437 -871557889 -1987642705 -525615149 1180563986 -2081006578 1543813045 1890504515 1642433311 1558449410 1450068801 736367230 477595741 542493340 45659678 1840563905 490066766 675639322 26392905 -1605682744 -612440118 -1054411518 -1735087243 -589041746 121545027 -2108611195 -727552026 983174577
REM
CELL 1.54180   50.00000   50.00000   50.00000   90.00000   90.00000   90.00000
LATT -1
SFAC C  
C      1  0.5208890000000  0.5148390000000  0.4714290000000 1.0
C      1  0.5038050000000  0.4851610000000  0.4648120000000 1.0
C      1  0.4857020000000  0.5148390000000  0.4676240000000 1.0
C      1  0.4714290000000  0.4851610000000  0.4791110000000 1.0
C      1  0.4648120000000  0.5148390000000  0.4961950000000 1.0
C      1  0.4676240000000  0.4851610000000  0.5142980000000 1.0
C      1  0.4791110000000  0.5148390000000  0.5285710000000 1.0
C      1  0.4961950000000  0.4851610000000  0.5351880000000 1.0
C      1  0.5142980000000  0.5148390000000  0.5323760000000 1.0
C      1  0.5285710000000  0.4851610000000  0.5208890000000 1.0
C      1  0.5351880000000  0.5148390000000  0.5038050000000 1.0
C      1  0.5323760000000  0.4851610000000  0.4857020000000 1.0
C      1  0.4655920000000  0.4623510000000  0.5524420000000 1.0
C      1  0.4964230000000  0.5376490000000  0.5626200000000 1.0
C      1  0.5282120000000  0.4623510000000  0.5560200000000 1.0
C      1  0.5524420000000  0.5376490000000  0.5344080000000 1.0
C      1  0.5626200000000  0.4623510000000  0.5035770000000 1.0
C      1  0.5560200000000  0.5376490000000  0.4717880000000 1.0
C      1  0.5344080000000  0.4623510000000  0.4475580000000 1.0
C      1  0.5035770000000  0.5376490000000  0.4373800000000 1.0
C      1  0.4717880000000  0.4623510000000  0.4439800000000 1.0
C      1  0.4475580000000  0.5376490000000  0.4655920000000 1.0
C      1  0.4373800000000  0.4623510000000  0.4964230000000 1.0
C      1  0.4439800000000  0.5376490000000  0.5282120000000 1.0
C      1  0.5703630000000  0.4841570000000  0.5248080000000 1.0
C      1  0.5733400000000  0.5158430000000  0.4863030000000 1.0
C      1  0.5566660000000  0.4841570000000  0.4514680000000 1.0
C      1  0.5248080000000  0.5158430000000  0.4296370000000 1.0
C      1  0.4863030000000  0.4841570000000  0.4266600000000 1.0
C      1  0.4514680000000  0.5158430000000  0.4433340000000 1.0
C      1  0.4296370000000  0.4841570000000  0.4751920000000 1.0
C      1  0.4266600000000  0.5158430000000  0.5136970000000 1.0
C      1  0.4433340000000  0.4841570000000  0.5485320000000 1.0
C      1  0.4751920000000  0.5158430000000  0.5703630000000 1.0
C      1  0.5136970000000  0.4841570000000  0.5733400000000 1.0
C      1  0.5485320000000  0.5158430000000  0.5566660000000 1.0
C      1  0.5138410000000  0.4469490000000  0.5296520000000 1.0
C      1  0.5268120000000  0.5530510000000  0.5187590000000 1.0
C      1  0.5326000000000  0.4469490000000  0.5028400000000 1.0
C      1  0.5296520000000  0.5530510000000  0.4861590000000 1.0
C      1  0.5187590000000  0.4469490000000  0.4731880000000 1.0
C      1  0.5028400000000  0.5530510000000  0.4674000000000 1.0
C      1  0.4861590000000  0.4469490000000  0.4703480000000 1.0
C      1  0.4731880000000  0.5530510000000  0.4812410000000 1.0
C      1  0.4674000000000  0.4469490000000  0.4971600000000 1.0
C      1  0.4703480000000  0.5530510000000  0.5138410000000 1.0
C      1  0.4812410000000  0.4469490000000  0.5268120000000 1.0
C      1  0.4971600000000  0.5530510000000  0.5326000000000 1.0
C      1  0.5510990000000  0.4848780000000  0.5475560000000 1.0
C      1  0.5680310000000  0.5151220000000  0.5156350000000 1.0
C      1  0.5667350000000  0.4848780000000  0.4795250000000 1.0
C      1  0.5475560000000  0.5151220000000  0.4489010000000 1.0
C      1  0.5156350000000  0.4848780000000  0.4319690000000 1.0
C      1  0.4795250000000  0.5151220000000  0.4332650000000 1.0
C      1  0.4489010000000  0.4848780000000  0.4524440000000 1.0
C      1  0.4319690000000  0.5151220000000  0.4843650000000 1.0
C      1  0.4332650000000  0.4848780000000  0.5204750000000 1.0
C      1  0.4524440000000  0.5151220000000  0.5510990000000 1.0
C      1  0.4843650000000  0.4848780000000  0.5680310000000 1.0
C      1  0.5204750000000  0.5151220000000  0.5667350000000 1.0
END
