TITL C-3985250-725-1307 8.60927743470104e-07 125000 -297.625635532523 0 0 60 (D5) n - 1
REM
REM in /home/nfs/bkarasulu/CARBON/AIRSS/Generating-Clusters/TERSOFF/Higher-Symm/Only-C60
REM
REM
REM
REM
REM
REM ./C.cell (28575a23ae977d3b5fae324c64b13b57)
REM
REM compiler GCC version 9.2.1 20190827 (Red Hat 9.2.1-1)
REM options -cpp -mtune=generic -march=x86-64 -g -O0 -fpre-include=/usr/include/finclude/math-vector-fortran.h
REM seed -1866256615 -382619107 853188469 1746883426 1243392734 -928030855 1512776442 518030598 305122998 697659751 -1230308052 -1226789556 -1669710147 -1798641029 -1534625327 305102792 -416458219 -1072177889 -1600085533 2013951657 -862932952 -108348072 -14594761 -798957609 1157955027 -1606753535 1292211502 69397948 890554535 -311530286 2113403152 -474022309 -1599648450
REM
CELL 1.54180   50.00000   50.00000   50.00000   90.00000   90.00000   90.00000
LATT -1
SFAC C  
C      1  0.4789360000000  0.4380100000000  0.5317280000000 1.0
C      1  0.4345350000000  0.5008770000000  0.5317280000000 1.0
C      1  0.4806030000000  0.5625320000000  0.5317280000000 1.0
C      1  0.5534780000000  0.5377700000000  0.5317280000000 1.0
C      1  0.5524470000000  0.4608120000000  0.5317280000000 1.0
C      1  0.4789360000000  0.5619900000000  0.4682720000000 1.0
C      1  0.4345350000000  0.4991230000000  0.4682720000000 1.0
C      1  0.4806030000000  0.4374690000000  0.4682720000000 1.0
C      1  0.5534780000000  0.4622300000000  0.4682720000000 1.0
C      1  0.5524470000000  0.5391880000000  0.4682720000000 1.0
C      1  0.4606630000000  0.5450130000000  0.5162520000000 1.0
C      1  0.5306540000000  0.5513220000000  0.5162520000000 1.0
C      1  0.5582820000000  0.4867060000000  0.5162520000000 1.0
C      1  0.5053670000000  0.4404620000000  0.5162520000000 1.0
C      1  0.4450340000000  0.4764980000000  0.5162520000000 1.0
C      1  0.4606630000000  0.4549870000000  0.4837480000000 1.0
C      1  0.5306540000000  0.4486780000000  0.4837480000000 1.0
C      1  0.5582820000000  0.5132940000000  0.4837480000000 1.0
C      1  0.5053670000000  0.5595380000000  0.4837480000000 1.0
C      1  0.4450340000000  0.5235020000000  0.4837480000000 1.0
C      1  0.4356350000000  0.4753850000000  0.4848420000000 1.0
C      1  0.4567000000000  0.5536090000000  0.4848430000000 1.0
C      1  0.5376040000000  0.5577470000000  0.4848430000000 1.0
C      1  0.5665410000000  0.4820810000000  0.4848430000000 1.0
C      1  0.5035210000000  0.4311780000000  0.4848430000000 1.0
C      1  0.4356350000000  0.5246150000000  0.5151580000000 1.0
C      1  0.4567000000000  0.4463910000000  0.5151570000000 1.0
C      1  0.5376040000000  0.4422530000000  0.5151570000000 1.0
C      1  0.5665410000000  0.5179190000000  0.5151570000000 1.0
C      1  0.5035210000000  0.5688220000000  0.5151570000000 1.0
C      1  0.5113930000000  0.4710200000000  0.4351690000000 1.0
C      1  0.4759590000000  0.4802090000000  0.4351690000000 1.0
C      1  0.4737490000000  0.5167490000000  0.4351690000000 1.0
C      1  0.5078170000000  0.5301420000000  0.4351690000000 1.0
C      1  0.5310820000000  0.5018800000000  0.4351690000000 1.0
C      1  0.5113930000000  0.5289800000000  0.5648310000000 1.0
C      1  0.4759590000000  0.5197910000000  0.5648310000000 1.0
C      1  0.4737490000000  0.4832510000000  0.5648310000000 1.0
C      1  0.5078170000000  0.4698580000000  0.5648310000000 1.0
C      1  0.5310820000000  0.4981200000000  0.5648310000000 1.0
C      1  0.5459220000000  0.5299820000000  0.5588720000000 1.0
C      1  0.5427050000000  0.4655900000000  0.5588720000000 1.0
C      1  0.4804710000000  0.4487520000000  0.5588720000000 1.0
C      1  0.4452250000000  0.5027370000000  0.5588720000000 1.0
C      1  0.4856770000000  0.5529390000000  0.5588720000000 1.0
C      1  0.5459220000000  0.4700180000000  0.4411280000000 1.0
C      1  0.5427050000000  0.5344100000000  0.4411280000000 1.0
C      1  0.4804710000000  0.5512480000000  0.4411280000000 1.0
C      1  0.4452250000000  0.4972630000000  0.4411280000000 1.0
C      1  0.4856770000000  0.4470610000000  0.4411280000000 1.0
C      1  0.4806920000000  0.5206140000000  0.5291190000000 1.0
C      1  0.5136390000000  0.5247330000000  0.5291190000000 1.0
C      1  0.5277370000000  0.4946720000000  0.5291190000000 1.0
C      1  0.5035040000000  0.4719740000000  0.5291190000000 1.0
C      1  0.4744280000000  0.4880070000000  0.5291190000000 1.0
C      1  0.4806920000000  0.4793860000000  0.4708810000000 1.0
C      1  0.5136380000000  0.4752670000000  0.4708810000000 1.0
C      1  0.5277380000000  0.5053290000000  0.4708810000000 1.0
C      1  0.5035040000000  0.5280260000000  0.4708810000000 1.0
C      1  0.4744280000000  0.5119930000000  0.4708810000000 1.0
END
