TITL C-3985254-1270-541 -5.9704314284497e-06 125000 -332.355673491625 0 0 60 (D2) n - 1
REM
REM in /home/nfs/bkarasulu/CARBON/AIRSS/Generating-Clusters/TERSOFF/Higher-Symm/Only-C60
REM
REM
REM
REM
REM
REM ./C.cell (28575a23ae977d3b5fae324c64b13b57)
REM
REM compiler GCC version 9.2.1 20190827 (Red Hat 9.2.1-1)
REM options -cpp -mtune=generic -march=x86-64 -g -O0 -fpre-include=/usr/include/finclude/math-vector-fortran.h
REM seed -2140436869 1534294111 1225541873 1322792038 -364969293 -1005724130 -463780130 1824096560 1309597735 911316535 -1992751519 1468186577 -1420620180 1531452419 561371522 982243357 -1155253195 -1822366409 145168056 -2026306033 -479028721 -887163258 736520439 1924289390 399882650 2068417470 -762003287 -2076025866 -867025719 -345536402 -461828898 2108357762 -1649938257
REM
CELL 1.54180   50.00000   50.00000   50.00000   90.00000   90.00000   90.00000
LATT -1
SFAC C  
C      1  0.5126640000000  0.5322250000000  0.5514250000000 1.0
C      1  0.5126640000000  0.4677750000000  0.4485740000000 1.0
C      1  0.4873360000000  0.5322250000000  0.4485740000000 1.0
C      1  0.4873360000000  0.4677750000000  0.5514250000000 1.0
C      1  0.5685140000000  0.4895000000000  0.5240620000000 1.0
C      1  0.5685140000000  0.5105000000000  0.4759380000000 1.0
C      1  0.4314860000000  0.4895000000000  0.4759380000000 1.0
C      1  0.4314860000000  0.5105000000000  0.5240620000000 1.0
C      1  0.4916860000000  0.4735100000000  0.4276620000000 1.0
C      1  0.4916860000000  0.5264900000000  0.5723380000000 1.0
C      1  0.5083140000000  0.4735100000000  0.5723380000000 1.0
C      1  0.5083140000000  0.5264900000000  0.4276620000000 1.0
C      1  0.4463920000000  0.5377500000000  0.5191760000000 1.0
C      1  0.4463920000000  0.4622500000000  0.4808240000000 1.0
C      1  0.5536080000000  0.5377500000000  0.4808240000000 1.0
C      1  0.5536080000000  0.4622500000000  0.5191760000000 1.0
C      1  0.5059920000000  0.5674800000000  0.4863390000000 1.0
C      1  0.5059920000000  0.4325200000000  0.5136610000000 1.0
C      1  0.4940080000000  0.5674800000000  0.5136610000000 1.0
C      1  0.4940080000000  0.4325200000000  0.4863390000000 1.0
C      1  0.4638220000000  0.4346500000000  0.4885340000000 1.0
C      1  0.4638220000000  0.5653500000000  0.5114660000000 1.0
C      1  0.5361780000000  0.4346500000000  0.5114660000000 1.0
C      1  0.5361780000000  0.5653500000000  0.4885340000000 1.0
C      1  0.5383830000000  0.4840340000000  0.4453480000000 1.0
C      1  0.5383830000000  0.5159660000000  0.5546520000000 1.0
C      1  0.4616170000000  0.4840340000000  0.5546520000000 1.0
C      1  0.4616170000000  0.5159660000000  0.4453480000000 1.0
C      1  0.5587920000000  0.4601940000000  0.4869980000000 1.0
C      1  0.5587920000000  0.5398060000000  0.5130020000000 1.0
C      1  0.4412080000000  0.4601940000000  0.5130020000000 1.0
C      1  0.4412080000000  0.5398060000000  0.4869980000000 1.0
C      1  0.5300140000000  0.5245880000000  0.4644340000000 1.0
C      1  0.5300140000000  0.4754120000000  0.5355660000000 1.0
C      1  0.4699860000000  0.5245880000000  0.5355660000000 1.0
C      1  0.4699860000000  0.4754120000000  0.4644340000000 1.0
C      1  0.5344780000000  0.4866030000000  0.5637560000000 1.0
C      1  0.5344780000000  0.5133970000000  0.4362440000000 1.0
C      1  0.4655220000000  0.4866030000000  0.4362440000000 1.0
C      1  0.4655220000000  0.5133970000000  0.5637560000000 1.0
C      1  0.5148940000000  0.4402970000000  0.4642030000000 1.0
C      1  0.5148940000000  0.5597030000000  0.5357970000000 1.0
C      1  0.4851060000000  0.4402970000000  0.5357970000000 1.0
C      1  0.4851060000000  0.5597030000000  0.4642030000000 1.0
C      1  0.5416260000000  0.4353450000000  0.4790910000000 1.0
C      1  0.5416260000000  0.5646550000000  0.5209090000000 1.0
C      1  0.4583740000000  0.4353450000000  0.5209090000000 1.0
C      1  0.4583740000000  0.5646550000000  0.4790910000000 1.0
C      1  0.4473560000000  0.4856620000000  0.5274120000000 1.0
C      1  0.4473560000000  0.5143380000000  0.4725880000000 1.0
C      1  0.5526440000000  0.4856620000000  0.4725880000000 1.0
C      1  0.5526440000000  0.5143380000000  0.5274120000000 1.0
C      1  0.4998520000000  0.4819830000000  0.5252910000000 1.0
C      1  0.4998520000000  0.5180170000000  0.4747090000000 1.0
C      1  0.5001480000000  0.4819830000000  0.4747090000000 1.0
C      1  0.5001480000000  0.5180170000000  0.5252910000000 1.0
C      1  0.5273810000000  0.5100490000000  0.5106690000000 1.0
C      1  0.5273810000000  0.4899510000000  0.4893310000000 1.0
C      1  0.4726190000000  0.5100490000000  0.4893310000000 1.0
C      1  0.4726190000000  0.4899510000000  0.5106690000000 1.0
END
