TITL C-3985253-1688-981 -0.000889327078120925 125000 -339.105937060519 0 0 60 (C4h) n - 1
REM
REM in /home/nfs/bkarasulu/CARBON/AIRSS/Generating-Clusters/TERSOFF/Higher-Symm/Only-C60
REM
REM
REM
REM
REM
REM ./C.cell (28575a23ae977d3b5fae324c64b13b57)
REM
REM compiler GCC version 9.2.1 20190827 (Red Hat 9.2.1-1)
REM options -cpp -mtune=generic -march=x86-64 -g -O0 -fpre-include=/usr/include/finclude/math-vector-fortran.h
REM seed 169878447 -1056122066 487987024 -1502608545 826404232 1855077886 1034263654 82166656 -1657546239 595767570 -2022233089 -173086186 -1584937579 1113902747 -132695174 -1083858834 -1803869713 1150126822 364095792 -1590748915 559251943 -800531149 984254984 -1703372572 1733810534 -1141183277 856132071 499689335 742407536 -1950993153 -149945179 319136685 169905476
REM
CELL 1.54180   50.00000   50.00000   50.00000   90.00000   90.00000   90.00000
LATT -1
SFAC C  
C      1  0.4670860000000  0.5722220000000  0.5474140000000 1.0
C      1  0.4670860000000  0.4525860000000  0.5722220000000 1.0
C      1  0.4670860000000  0.4277780000000  0.4525860000000 1.0
C      1  0.4670860000000  0.5474140000000  0.4277780000000 1.0
C      1  0.5308790000000  0.5722270000000  0.5474040000000 1.0
C      1  0.5308790000000  0.4525960000000  0.5722270000000 1.0
C      1  0.5308790000000  0.4277730000000  0.4525960000000 1.0
C      1  0.5308790000000  0.5474040000000  0.4277730000000 1.0
C      1  0.4300090000000  0.4760470000000  0.5461880000000 1.0
C      1  0.4300090000000  0.4538120000000  0.4760470000000 1.0
C      1  0.4300090000000  0.5239530000000  0.4538120000000 1.0
C      1  0.4300090000000  0.5461880000000  0.5239530000000 1.0
C      1  0.5679080000000  0.4760740000000  0.5461770000000 1.0
C      1  0.5679080000000  0.4538230000000  0.4760740000000 1.0
C      1  0.5679080000000  0.5239260000000  0.4538230000000 1.0
C      1  0.5679080000000  0.5461770000000  0.5239260000000 1.0
C      1  0.4842390000000  0.4040450000000  0.4529420000000 1.0
C      1  0.4842390000000  0.5470580000000  0.4040450000000 1.0
C      1  0.4842390000000  0.5959550000000  0.5470580000000 1.0
C      1  0.4842390000000  0.4529420000000  0.5959550000000 1.0
C      1  0.5137260000000  0.4040600000000  0.4529270000000 1.0
C      1  0.5137260000000  0.5470730000000  0.4040600000000 1.0
C      1  0.5137260000000  0.5959400000000  0.5470730000000 1.0
C      1  0.5137260000000  0.4529270000000  0.5959400000000 1.0
C      1  0.4745670000000  0.4977270000000  0.5522260000000 1.0
C      1  0.4745670000000  0.4477740000000  0.4977270000000 1.0
C      1  0.4745670000000  0.5022730000000  0.4477740000000 1.0
C      1  0.4745670000000  0.5522260000000  0.5022730000000 1.0
C      1  0.5234290000000  0.4976820000000  0.5522640000000 1.0
C      1  0.5234290000000  0.4477360000000  0.4976820000000 1.0
C      1  0.5234290000000  0.5023180000000  0.4477360000000 1.0
C      1  0.5234290000000  0.5522640000000  0.5023180000000 1.0
C      1  0.5744510000000  0.5204870000000  0.5105750000000 1.0
C      1  0.5744510000000  0.4894250000000  0.5204870000000 1.0
C      1  0.5744510000000  0.4795130000000  0.4894250000000 1.0
C      1  0.5744510000000  0.5105750000000  0.4795130000000 1.0
C      1  0.4235440000000  0.5205070000000  0.5105720000000 1.0
C      1  0.4235440000000  0.4894280000000  0.5205070000000 1.0
C      1  0.4235440000000  0.4794930000000  0.4894280000000 1.0
C      1  0.4235440000000  0.5105720000000  0.4794930000000 1.0
C      1  0.5416510000000  0.4764900000000  0.5589820000000 1.0
C      1  0.5416510000000  0.4410180000000  0.4764900000000 1.0
C      1  0.5416510000000  0.5235100000000  0.4410180000000 1.0
C      1  0.5416510000000  0.5589820000000  0.5235100000000 1.0
C      1  0.4562890000000  0.4764630000000  0.5589830000000 1.0
C      1  0.4562890000000  0.4410170000000  0.4764630000000 1.0
C      1  0.4562890000000  0.5235370000000  0.4410170000000 1.0
C      1  0.4562890000000  0.5589830000000  0.5235370000000 1.0
C      1  0.4822100000000  0.5234320000000  0.4999230000000 1.0
C      1  0.4822100000000  0.5000770000000  0.5234320000000 1.0
C      1  0.4822100000000  0.4765680000000  0.5000770000000 1.0
C      1  0.4822100000000  0.4999230000000  0.4765680000000 1.0
C      1  0.5157350000000  0.5234190000000  0.4999120000000 1.0
C      1  0.5157350000000  0.5000880000000  0.5234190000000 1.0
C      1  0.5157350000000  0.4765810000000  0.5000880000000 1.0
C      1  0.5157350000000  0.4999120000000  0.4765810000000 1.0
C      1  0.4989800000000  0.5682410000000  0.4983130000000 1.0
C      1  0.4989800000000  0.5016870000000  0.5682410000000 1.0
C      1  0.4989800000000  0.4317590000000  0.5016870000000 1.0
C      1  0.4989800000000  0.4983130000000  0.4317590000000 1.0
END
