TITL C-3985253-1688-158 -5.08531174718248e-07 125000 -362.38771741094 0 0 60 (C2v) n - 1
REM
REM in /home/nfs/bkarasulu/CARBON/AIRSS/Generating-Clusters/TERSOFF/Higher-Symm/Only-C60
REM
REM
REM
REM
REM
REM ./C.cell (28575a23ae977d3b5fae324c64b13b57)
REM
REM compiler GCC version 9.2.1 20190827 (Red Hat 9.2.1-1)
REM options -cpp -mtune=generic -march=x86-64 -g -O0 -fpre-include=/usr/include/finclude/math-vector-fortran.h
REM seed 1651355162 1095102770 1527988259 -435074755 -1124800530 -740690091 -1241553425 898835661 1060651893 -1905091494 -161881786 -1796329520 1944135379 -2059521116 1275086709 -1302540246 2000003367 -1138351280 -2111270545 1543353206 1138117251 -2121502233 1323164494 1048174726 -1604441737 -1303764184 936699317 1609745850 1622983685 -767011465 2107754828 553113317 1156197949
REM
CELL 1.54180   50.00000   50.00000   50.00000   90.00000   90.00000   90.00000
LATT -1
SFAC C  
C      1  0.5461130000000  0.4629460000000  0.5495360000000 1.0
C      1  0.4362700000000  0.4564920000000  0.5152570000000 1.0
C      1  0.5190410000000  0.4612710000000  0.4357930000000 1.0
C      1  0.5461130000000  0.5370530000000  0.5495360000000 1.0
C      1  0.4362650000000  0.5435090000000  0.5152560000000 1.0
C      1  0.5190410000000  0.5387300000000  0.4357930000000 1.0
C      1  0.5461150000000  0.4629460000000  0.4504660000000 1.0
C      1  0.4362420000000  0.4564870000000  0.4847470000000 1.0
C      1  0.5190400000000  0.4612700000000  0.5642070000000 1.0
C      1  0.5461140000000  0.5370530000000  0.4504650000000 1.0
C      1  0.4362330000000  0.5435250000000  0.4847450000000 1.0
C      1  0.5190390000000  0.5387300000000  0.5642070000000 1.0
C      1  0.5294020000000  0.5734920000000  0.5151500000000 1.0
C      1  0.4779380000000  0.5753110000000  0.5147770000000 1.0
C      1  0.5036010000000  0.5748610000000  0.4701530000000 1.0
C      1  0.5294000000000  0.4265080000000  0.5151500000000 1.0
C      1  0.4779360000000  0.4246890000000  0.5147770000000 1.0
C      1  0.5035980000000  0.4251420000000  0.4701530000000 1.0
C      1  0.5294010000000  0.5734920000000  0.4848490000000 1.0
C      1  0.4779370000000  0.5753110000000  0.4852240000000 1.0
C      1  0.5036020000000  0.5748620000000  0.5298460000000 1.0
C      1  0.5293990000000  0.4265090000000  0.4848480000000 1.0
C      1  0.4779340000000  0.4246890000000  0.4852250000000 1.0
C      1  0.5036010000000  0.4251390000000  0.5298460000000 1.0
C      1  0.4525060000000  0.5659870000000  0.4732210000000 1.0
C      1  0.5510680000000  0.5613950000000  0.4682120000000 1.0
C      1  0.5050860000000  0.5644310000000  0.5575390000000 1.0
C      1  0.4525010000000  0.4340070000000  0.4732220000000 1.0
C      1  0.5510670000000  0.4386030000000  0.4682130000000 1.0
C      1  0.5050850000000  0.4355690000000  0.5575390000000 1.0
C      1  0.4525080000000  0.5659840000000  0.5267780000000 1.0
C      1  0.5510690000000  0.5613940000000  0.5317880000000 1.0
C      1  0.5050850000000  0.5644300000000  0.4424600000000 1.0
C      1  0.4525070000000  0.4340170000000  0.5267760000000 1.0
C      1  0.5510680000000  0.4386050000000  0.5317870000000 1.0
C      1  0.5050840000000  0.4355720000000  0.4424590000000 1.0
C      1  0.4992200000000  0.5155160000000  0.5579480000000 1.0
C      1  0.4447850000000  0.5159980000000  0.4714570000000 1.0
C      1  0.5454410000000  0.5149870000000  0.4708690000000 1.0
C      1  0.4992200000000  0.4844850000000  0.5579490000000 1.0
C      1  0.4447960000000  0.4839940000000  0.4714590000000 1.0
C      1  0.5454470000000  0.4850140000000  0.4708690000000 1.0
C      1  0.4992200000000  0.5155170000000  0.4420520000000 1.0
C      1  0.4447850000000  0.5159950000000  0.5285400000000 1.0
C      1  0.5454410000000  0.5149880000000  0.5291320000000 1.0
C      1  0.4992220000000  0.4844860000000  0.4420520000000 1.0
C      1  0.4447900000000  0.4840040000000  0.5285380000000 1.0
C      1  0.5454450000000  0.4850130000000  0.5291330000000 1.0
C      1  0.5213290000000  0.4770630000000  0.5141280000000 1.0
C      1  0.4716990000000  0.4790060000000  0.5144840000000 1.0
C      1  0.4965330000000  0.4775160000000  0.4712540000000 1.0
C      1  0.5213230000000  0.5229360000000  0.5141270000000 1.0
C      1  0.4716920000000  0.5209900000000  0.5144830000000 1.0
C      1  0.4965190000000  0.5224880000000  0.4712550000000 1.0
C      1  0.5213330000000  0.4770640000000  0.4858730000000 1.0
C      1  0.4716850000000  0.4789910000000  0.4855160000000 1.0
C      1  0.4965180000000  0.4775160000000  0.5287470000000 1.0
C      1  0.5213250000000  0.5229360000000  0.4858740000000 1.0
C      1  0.4717070000000  0.5210030000000  0.4855160000000 1.0
C      1  0.4965130000000  0.5224840000000  0.5287450000000 1.0
END
