TITL C-3985250-725-677 4.5724839276681e-07 125000 -312.781036783688 0 0 60 (C5) n - 1
REM
REM in /home/nfs/bkarasulu/CARBON/AIRSS/Generating-Clusters/TERSOFF/Higher-Symm/Only-C60
REM
REM
REM
REM
REM
REM ./C.cell (28575a23ae977d3b5fae324c64b13b57)
REM
REM compiler GCC version 9.2.1 20190827 (Red Hat 9.2.1-1)
REM options -cpp -mtune=generic -march=x86-64 -g -O0 -fpre-include=/usr/include/finclude/math-vector-fortran.h
REM seed 190066351 -1474753357 518501415 -426381552 1399573312 -1745777425 -1357849328 -239163548 -113345172 -94131670 -132851950 -631287933 -1686655915 -562466011 1035999573 913143281 -1993535413 -1748397766 1511071083 -1888332396 349606852 1678599666 -387631811 1380227064 -1852266953 -1415798831 -1845169784 -603589195 485373602 1455695962 -1818977794 -1979951962 -344290330
REM
CELL 1.54180   50.00000   50.00000   50.00000   90.00000   90.00000   90.00000
LATT -1
SFAC C  
C      1  0.5305310000000  0.4456420000000  0.4956680000000 1.0
C      1  0.5053180000000  0.4456410000000  0.4696230000000 1.0
C      1  0.4727570000000  0.4456400000000  0.4855540000000 1.0
C      1  0.4778460000000  0.4456400000000  0.5214450000000 1.0
C      1  0.5135530000000  0.4456400000000  0.5276950000000 1.0
C      1  0.4716770000000  0.4539240000000  0.5552980000000 1.0
C      1  0.5438410000000  0.4539270000000  0.5440240000000 1.0
C      1  0.5554200000000  0.4539320000000  0.4719090000000 1.0
C      1  0.4904120000000  0.4539320000000  0.4386110000000 1.0
C      1  0.4386550000000  0.4539270000000  0.4901480000000 1.0
C      1  0.5370000000000  0.5116690000000  0.4481750000000 1.0
C      1  0.4621440000000  0.5116680000000  0.4487950000000 1.0
C      1  0.4396010000000  0.5116640000000  0.5201810000000 1.0
C      1  0.5005290000000  0.5116630000000  0.5636790000000 1.0
C      1  0.5607240000000  0.5116660000000  0.5191750000000 1.0
C      1  0.5502330000000  0.4833780000000  0.4781380000000 1.0
C      1  0.4947320000000  0.4833780000000  0.4454690000000 1.0
C      1  0.4465120000000  0.4833730000000  0.4881570000000 1.0
C      1  0.4722090000000  0.4833690000000  0.5472090000000 1.0
C      1  0.5363120000000  0.4833720000000  0.5410180000000 1.0
C      1  0.4531140000000  0.5277190000000  0.5441390000000 1.0
C      1  0.5274890000000  0.5277200000000  0.5582320000000 1.0
C      1  0.5638750000000  0.5277260000000  0.4918520000000 1.0
C      1  0.5119880000000  0.5277270000000  0.4367350000000 1.0
C      1  0.4435340000000  0.5277230000000  0.4690500000000 1.0
C      1  0.5531140000000  0.5547930000000  0.4899640000000 1.0
C      1  0.5068650000000  0.5547940000000  0.4463860000000 1.0
C      1  0.4511280000000  0.5547900000000  0.4769050000000 1.0
C      1  0.4629300000000  0.5547870000000  0.5393450000000 1.0
C      1  0.5259610000000  0.5547880000000  0.5474160000000 1.0
C      1  0.4440780000000  0.4569860000000  0.5207050000000 1.0
C      1  0.5024130000000  0.4569850000000  0.5595820000000 1.0
C      1  0.5574140000000  0.4569870000000  0.5161160000000 1.0
C      1  0.5330720000000  0.4569900000000  0.4503760000000 1.0
C      1  0.4630270000000  0.4569890000000  0.4532110000000 1.0
C      1  0.5253080000000  0.5620610000000  0.4952190000000 1.0
C      1  0.5032690000000  0.5620610000000  0.4744560000000 1.0
C      1  0.4767120000000  0.5620590000000  0.4889990000000 1.0
C      1  0.4823370000000  0.5620580000000  0.5187510000000 1.0
C      1  0.5123710000000  0.5620590000000  0.5225950000000 1.0
C      1  0.4739210000000  0.4888630000000  0.4959690000000 1.0
C      1  0.4881090000000  0.4888600000000  0.5235550000000 1.0
C      1  0.5187300000000  0.4888610000000  0.5185860000000 1.0
C      1  0.5234660000000  0.4888660000000  0.4879290000000 1.0
C      1  0.4957720000000  0.4888660000000  0.4739510000000 1.0
C      1  0.5727250000000  0.4830720000000  0.5135890000000 1.0
C      1  0.5353990000000  0.4830750000000  0.4350340000000 1.0
C      1  0.4491530000000  0.4830730000000  0.4462560000000 1.0
C      1  0.4331740000000  0.4830690000000  0.5317510000000 1.0
C      1  0.5095480000000  0.4830680000000  0.5733660000000 1.0
C      1  0.5630440000000  0.5093340000000  0.4679880000000 1.0
C      1  0.4890360000000  0.5093340000000  0.4301490000000 1.0
C      1  0.4301810000000  0.5093280000000  0.4888430000000 1.0
C      1  0.4678140000000  0.5093230000000  0.5629530000000 1.0
C      1  0.5499260000000  0.5093270000000  0.5500650000000 1.0
C      1  0.5201880000000  0.5225710000000  0.4783550000000 1.0
C      1  0.4856500000000  0.5225700000000  0.4741120000000 1.0
C      1  0.4709420000000  0.5225660000000  0.5056490000000 1.0
C      1  0.4963900000000  0.5225640000000  0.5293820000000 1.0
C      1  0.5268250000000  0.5225670000000  0.5125130000000 1.0
END
