TITL C-3985259-1859-248 6.79325704559173e-07 125000 -306.22937437525 0 0 60 (C3h) n - 1
REM
REM in /home/nfs/bkarasulu/CARBON/AIRSS/Generating-Clusters/TERSOFF/Higher-Symm/Only-C60
REM
REM
REM
REM
REM
REM ./C.cell (28575a23ae977d3b5fae324c64b13b57)
REM
REM compiler GCC version 9.2.1 20190827 (Red Hat 9.2.1-1)
REM options -cpp -mtune=generic -march=x86-64 -g -O0 -fpre-include=/usr/include/finclude/math-vector-fortran.h
REM seed -579193637 -1607337691 -148067154 -2058457164 1591063750 592251656 2060973630 -1418493581 681178489 -1489263564 -1133209995 1886523103 47762463 -805328044 -1125303413 -1641532541 -316389816 2137090885 1790098253 1393883477 1735997924 -47956942 -2089076261 -788857697 -139027816 1229467209 98165004 -1419709457 -1045998130 595696150 -1925935391 -719259005 687050282
REM
CELL 1.54180   50.00000   50.00000   50.00000   90.00000   90.00000   90.00000
LATT -1
SFAC C  
C      1  0.4959530000000  0.5315090000000  0.5161350000000 1.0
C      1  0.5293110000000  0.4877500000000  0.5161350000000 1.0
C      1  0.4747350000000  0.4807410000000  0.5161350000000 1.0
C      1  0.4959530000000  0.5315090000000  0.4838650000000 1.0
C      1  0.5293110000000  0.4877500000000  0.4838650000000 1.0
C      1  0.4747350000000  0.4807410000000  0.4838650000000 1.0
C      1  0.4885890000000  0.5456950000000  0.5549520000000 1.0
C      1  0.5452780000000  0.4870350000000  0.5549520000000 1.0
C      1  0.4661330000000  0.4672700000000  0.5549520000000 1.0
C      1  0.4885890000000  0.5456950000000  0.4450480000000 1.0
C      1  0.5452780000000  0.4870350000000  0.4450480000000 1.0
C      1  0.4661330000000  0.4672700000000  0.4450480000000 1.0
C      1  0.4517680000000  0.4945230000000  0.5484730000000 1.0
C      1  0.5193730000000  0.5445080000000  0.5484730000000 1.0
C      1  0.5288590000000  0.4609680000000  0.5484730000000 1.0
C      1  0.4517680000000  0.4945230000000  0.4515270000000 1.0
C      1  0.5193730000000  0.5445080000000  0.4515270000000 1.0
C      1  0.5288590000000  0.4609680000000  0.4515270000000 1.0
C      1  0.4460920000000  0.5306560000000  0.5280610000000 1.0
C      1  0.5535020000000  0.5313580000000  0.5280610000000 1.0
C      1  0.5004060000000  0.4379860000000  0.5280610000000 1.0
C      1  0.4460920000000  0.5306560000000  0.4719390000000 1.0
C      1  0.5535020000000  0.5313580000000  0.4719390000000 1.0
C      1  0.5004060000000  0.4379860000000  0.4719390000000 1.0
C      1  0.5255490000000  0.5185550000000  0.4839070000000 1.0
C      1  0.5032950000000  0.4685970000000  0.4839070000000 1.0
C      1  0.4711570000000  0.5128490000000  0.4839070000000 1.0
C      1  0.5255490000000  0.5185550000000  0.5160930000000 1.0
C      1  0.5032950000000  0.4685970000000  0.5160930000000 1.0
C      1  0.4711570000000  0.5128490000000  0.5160930000000 1.0
C      1  0.5708780000000  0.5092210000000  0.4852310000000 1.0
C      1  0.4725460000000  0.4340070000000  0.4852310000000 1.0
C      1  0.4565750000000  0.5567720000000  0.4852310000000 1.0
C      1  0.5708780000000  0.5092210000000  0.5147690000000 1.0
C      1  0.4725460000000  0.4340070000000  0.5147690000000 1.0
C      1  0.4565750000000  0.5567720000000  0.5147690000000 1.0
C      1  0.5594050000000  0.4833260000000  0.4729570000000 1.0
C      1  0.4558570000000  0.4568910000000  0.4729570000000 1.0
C      1  0.4847380000000  0.5597840000000  0.4729570000000 1.0
C      1  0.5594050000000  0.4833260000000  0.5270430000000 1.0
C      1  0.4558570000000  0.4568910000000  0.5270430000000 1.0
C      1  0.4847380000000  0.5597840000000  0.5270430000000 1.0
C      1  0.5062330000000  0.5769770000000  0.5152390000000 1.0
C      1  0.5635470000000  0.4561140000000  0.5152390000000 1.0
C      1  0.4302200000000  0.4669100000000  0.5152390000000 1.0
C      1  0.5062330000000  0.5769770000000  0.4847610000000 1.0
C      1  0.5635470000000  0.4561140000000  0.4847610000000 1.0
C      1  0.4302200000000  0.4669100000000  0.4847610000000 1.0
C      1  0.5393280000000  0.5191710000000  0.4430510000000 1.0
C      1  0.4969380000000  0.4563550000000  0.4430510000000 1.0
C      1  0.4637330000000  0.5244740000000  0.4430510000000 1.0
C      1  0.5393280000000  0.5191710000000  0.5569490000000 1.0
C      1  0.4969380000000  0.4563550000000  0.5569490000000 1.0
C      1  0.4637330000000  0.5244740000000  0.5569490000000 1.0
C      1  0.4315310000000  0.4993220000000  0.4816010000000 1.0
C      1  0.5336470000000  0.5596350000000  0.4816010000000 1.0
C      1  0.5348220000000  0.4410430000000  0.4816010000000 1.0
C      1  0.4315310000000  0.4993220000000  0.5183990000000 1.0
C      1  0.5336470000000  0.5596350000000  0.5183990000000 1.0
C      1  0.5348220000000  0.4410430000000  0.5183990000000 1.0
END
