TITL C-3985251-913-721 0.00138701175257409 125000 -268.814261143852 0 0 60 (C3h) n - 1
REM
REM in /home/nfs/bkarasulu/CARBON/AIRSS/Generating-Clusters/TERSOFF/Higher-Symm/Only-C60
REM
REM
REM
REM
REM
REM ./C.cell (28575a23ae977d3b5fae324c64b13b57)
REM
REM compiler GCC version 9.2.1 20190827 (Red Hat 9.2.1-1)
REM options -cpp -mtune=generic -march=x86-64 -g -O0 -fpre-include=/usr/include/finclude/math-vector-fortran.h
REM seed -701373415 2002791799 -530996229 447104806 226767594 1111236191 2120681254 -617850186 1457677816 949801300 1482630151 -1728396622 -525989717 100817794 -536401552 -1566580578 1170640411 1785300745 -926224562 -303867027 1522347900 1796092422 63002565 -225572966 -1783264197 -1002042333 -1525741890 1683937034 2093944311 665550520 1264260460 -1120613101 320274265
REM
CELL 1.54180   50.00000   50.00000   50.00000   90.00000   90.00000   90.00000
LATT -1
SFAC C  
C      1  0.4391180000000  0.4455000000000  0.4849350000000 1.0
C      1  0.5776190000000  0.4745420000000  0.4849250000000 1.0
C      1  0.4832310000000  0.5799310000000  0.4849110000000 1.0
C      1  0.4391560000000  0.4455310000000  0.5150870000000 1.0
C      1  0.5776270000000  0.4745660000000  0.5150770000000 1.0
C      1  0.4832330000000  0.5799670000000  0.5150770000000 1.0
C      1  0.4967700000000  0.4800580000000  0.5474030000000 1.0
C      1  0.5188180000000  0.5071800000000  0.5474260000000 1.0
C      1  0.4844130000000  0.5127750000000  0.5474380000000 1.0
C      1  0.4967580000000  0.4800780000000  0.4525940000000 1.0
C      1  0.5188430000000  0.5071630000000  0.4525590000000 1.0
C      1  0.4843990000000  0.5127430000000  0.4525750000000 1.0
C      1  0.5485830000000  0.5526420000000  0.5152690000000 1.0
C      1  0.4301230000000  0.5157560000000  0.5152660000000 1.0
C      1  0.5213160000000  0.4316200000000  0.5152670000000 1.0
C      1  0.5485800000000  0.5526370000000  0.4847470000000 1.0
C      1  0.4301060000000  0.5157400000000  0.4847440000000 1.0
C      1  0.5212970000000  0.4316130000000  0.4847380000000 1.0
C      1  0.5542330000000  0.4470620000000  0.4816410000000 1.0
C      1  0.5187390000000  0.5734510000000  0.4816680000000 1.0
C      1  0.4269860000000  0.4794910000000  0.4816940000000 1.0
C      1  0.5542750000000  0.4470460000000  0.5183060000000 1.0
C      1  0.5187370000000  0.5734590000000  0.5183260000000 1.0
C      1  0.4270260000000  0.4795140000000  0.5183680000000 1.0
C      1  0.4866110000000  0.4671940000000  0.4819580000000 1.0
C      1  0.5351250000000  0.5048190000000  0.4819710000000 1.0
C      1  0.4782880000000  0.5279590000000  0.4819670000000 1.0
C      1  0.4866200000000  0.4671970000000  0.5180160000000 1.0
C      1  0.5351160000000  0.5048050000000  0.5180340000000 1.0
C      1  0.4782830000000  0.5279720000000  0.5180290000000 1.0
C      1  0.4622380000000  0.4289160000000  0.5270780000000 1.0
C      1  0.5804610000000  0.5028790000000  0.5270540000000 1.0
C      1  0.4572900000000  0.5682260000000  0.5270650000000 1.0
C      1  0.4622270000000  0.4288910000000  0.4729480000000 1.0
C      1  0.5804690000000  0.5028460000000  0.4729350000000 1.0
C      1  0.4572860000000  0.5682150000000  0.4729370000000 1.0
C      1  0.4592680000000  0.4979490000000  0.5415000000000 1.0
C      1  0.5220950000000  0.4657390000000  0.5415420000000 1.0
C      1  0.5186450000000  0.5363510000000  0.5415420000000 1.0
C      1  0.4592360000000  0.4979680000000  0.4584290000000 1.0
C      1  0.5221180000000  0.4657350000000  0.4584730000000 1.0
C      1  0.5186260000000  0.5363120000000  0.4584810000000 1.0
C      1  0.5570990000000  0.5239080000000  0.5302370000000 1.0
C      1  0.4507570000000  0.5374560000000  0.5302230000000 1.0
C      1  0.4921340000000  0.4386070000000  0.5302410000000 1.0
C      1  0.5570980000000  0.5239230000000  0.4697720000000 1.0
C      1  0.4507540000000  0.5374700000000  0.4697630000000 1.0
C      1  0.4921500000000  0.4386110000000  0.4697660000000 1.0
C      1  0.4586510000000  0.4825800000000  0.4834880000000 1.0
C      1  0.5357350000000  0.4729350000000  0.4835500000000 1.0
C      1  0.5055910000000  0.5444820000000  0.4835460000000 1.0
C      1  0.4587010000000  0.4826090000000  0.5164020000000 1.0
C      1  0.5357510000000  0.4728930000000  0.5165350000000 1.0
C      1  0.5055680000000  0.5445020000000  0.5164660000000 1.0
C      1  0.4970220000000  0.4375240000000  0.4400820000000 1.0
C      1  0.5556090000000  0.5287010000000  0.4400880000000 1.0
C      1  0.4473610000000  0.5338230000000  0.4400630000000 1.0
C      1  0.4970150000000  0.4375060000000  0.5599270000000 1.0
C      1  0.5556190000000  0.5286640000000  0.5599200000000 1.0
C      1  0.4473960000000  0.5337700000000  0.5599340000000 1.0
END
