TITL C-3985247-764-617 -0.00292514780621592 125000 -325.848786874113 0 0 60 (C1) n - 1
REM
REM in /home/nfs/bkarasulu/CARBON/AIRSS/Generating-Clusters/TERSOFF/Higher-Symm/Only-C60
REM
REM
REM
REM
REM
REM ./C.cell (28575a23ae977d3b5fae324c64b13b57)
REM
REM compiler GCC version 9.2.1 20190827 (Red Hat 9.2.1-1)
REM options -cpp -mtune=generic -march=x86-64 -g -O0 -fpre-include=/usr/include/finclude/math-vector-fortran.h
REM seed -1705261765 100801227 -2135208856 687737022 -1354566817 1726056683 1494376830 -95785124 -1770332428 1278097941 -1710375730 1806555212 2123293998 1118081020 435101836 615189367 1196720075 -178974551 136170663 1851513027 488120878 1596701584 -2057597177 1904758934 -1975195848 124489342 -807337386 2043983447 15121478 -2019326995 1537172217 -1048938689 302773378
REM
CELL 1.54180   50.00000   50.00000   50.00000   90.00000   90.00000   90.00000
LATT -1
SFAC C  
C      1  0.4312510000000  0.5209000000000  0.5118710000000 1.0
C      1  0.5726200000000  0.5222940000000  0.4861850000000 1.0
C      1  0.4841920000000  0.5267460000000  0.5741050000000 1.0
C      1  0.5154620000000  0.5266440000000  0.4238480000000 1.0
C      1  0.4476360000000  0.4794700000000  0.4965490000000 1.0
C      1  0.5491890000000  0.4869940000000  0.4985480000000 1.0
C      1  0.4676830000000  0.5477190000000  0.4864250000000 1.0
C      1  0.5333740000000  0.5398850000000  0.5105830000000 1.0
C      1  0.4770060000000  0.5683810000000  0.5118200000000 1.0
C      1  0.5241270000000  0.5610400000000  0.4900310000000 1.0
C      1  0.5275010000000  0.5087370000000  0.5011230000000 1.0
C      1  0.4695090000000  0.4960900000000  0.4871180000000 1.0
C      1  0.5082640000000  0.5119420000000  0.5798250000000 1.0
C      1  0.4926620000000  0.5102780000000  0.4171120000000 1.0
C      1  0.4637000000000  0.4622110000000  0.5426680000000 1.0
C      1  0.5356180000000  0.4623740000000  0.4564850000000 1.0
C      1  0.4487330000000  0.4512810000000  0.4908170000000 1.0
C      1  0.5444740000000  0.4600800000000  0.5063970000000 1.0
C      1  0.4582220000000  0.4846930000000  0.4483930000000 1.0
C      1  0.5420420000000  0.4858330000000  0.5477970000000 1.0
C      1  0.5072630000000  0.4628940000000  0.4340050000000 1.0
C      1  0.4921880000000  0.4638640000000  0.5652570000000 1.0
C      1  0.4437800000000  0.5291750000000  0.4854510000000 1.0
C      1  0.5618470000000  0.5289690000000  0.5142290000000 1.0
C      1  0.5239610000000  0.5254380000000  0.4529270000000 1.0
C      1  0.4753610000000  0.5254450000000  0.5451690000000 1.0
C      1  0.4474920000000  0.5172560000000  0.5410340000000 1.0
C      1  0.5522250000000  0.5168900000000  0.4569540000000 1.0
C      1  0.5378000000000  0.4415890000000  0.4832210000000 1.0
C      1  0.4589570000000  0.4392860000000  0.5180930000000 1.0
C      1  0.5634560000000  0.5074790000000  0.5377480000000 1.0
C      1  0.4400330000000  0.5089780000000  0.4601370000000 1.0
C      1  0.4777970000000  0.4131210000000  0.5158370000000 1.0
C      1  0.5192060000000  0.4178130000000  0.4862730000000 1.0
C      1  0.5138360000000  0.5510860000000  0.4640500000000 1.0
C      1  0.4884160000000  0.5507800000000  0.5344120000000 1.0
C      1  0.5097100000000  0.4729230000000  0.4745370000000 1.0
C      1  0.4895220000000  0.4697930000000  0.5239180000000 1.0
C      1  0.5377510000000  0.4584780000000  0.5347260000000 1.0
C      1  0.4603720000000  0.4557370000000  0.4618580000000 1.0
C      1  0.5580900000000  0.4837260000000  0.4544830000000 1.0
C      1  0.4416120000000  0.4838880000000  0.5438870000000 1.0
C      1  0.5738610000000  0.4910830000000  0.4818700000000 1.0
C      1  0.4285500000000  0.4897980000000  0.5156400000000 1.0
C      1  0.5134470000000  0.4921070000000  0.5583210000000 1.0
C      1  0.4872220000000  0.4903910000000  0.4385840000000 1.0
C      1  0.5098100000000  0.4513190000000  0.5405850000000 1.0
C      1  0.4889450000000  0.4481220000000  0.4558780000000 1.0
C      1  0.5177780000000  0.5478430000000  0.5345690000000 1.0
C      1  0.4843330000000  0.5555710000000  0.4615450000000 1.0
C      1  0.5041970000000  0.5025410000000  0.4643620000000 1.0
C      1  0.4940670000000  0.5010610000000  0.5327660000000 1.0
C      1  0.5033790000000  0.5811750000000  0.5006060000000 1.0
C      1  0.5094400000000  0.3958830000000  0.5104580000000 1.0
C      1  0.4934580000000  0.5328140000000  0.4965600000000 1.0
C      1  0.4965400000000  0.5035160000000  0.4999350000000 1.0
C      1  0.5051380000000  0.6094680000000  0.4941910000000 1.0
C      1  0.4936330000000  0.6307310000000  0.5100430000000 1.0
C      1  0.4924730000000  0.4593730000000  0.4965350000000 1.0
C      1  0.4924350000000  0.4305390000000  0.4939950000000 1.0
END
