TITL C-3985259-1859-407 -1.05551333691412e-06 125000 -337.514650395873 0 0 60 (C1) n - 1
REM
REM in /home/nfs/bkarasulu/CARBON/AIRSS/Generating-Clusters/TERSOFF/Higher-Symm/Only-C60
REM
REM
REM
REM
REM
REM ./C.cell (28575a23ae977d3b5fae324c64b13b57)
REM
REM compiler GCC version 9.2.1 20190827 (Red Hat 9.2.1-1)
REM options -cpp -mtune=generic -march=x86-64 -g -O0 -fpre-include=/usr/include/finclude/math-vector-fortran.h
REM seed -850124025 -2066265998 -1748265285 -1681779743 -110208634 1692911459 1416831142 -1749497443 1584886630 550337774 1017919880 -429339686 -338463818 1438500836 382592173 -1732085230 -946746366 586981043 1075605618 -1838278783 -876364904 -558798151 1227145635 1147709527 1196043460 116037916 1371820882 1755073995 909138506 -1778679028 -801652033 -1610416378 491028347
REM
CELL 1.54180   50.00000   50.00000   50.00000   90.00000   90.00000   90.00000
LATT -1
SFAC C  
C      1  0.4956780000000  0.5044090000000  0.5658150000000 1.0
C      1  0.5447720000000  0.5068090000000  0.5395080000000 1.0
C      1  0.5587980000000  0.5057730000000  0.4856700000000 1.0
C      1  0.5299020000000  0.5010040000000  0.4375500000000 1.0
C      1  0.4735800000000  0.5033070000000  0.4427040000000 1.0
C      1  0.4431980000000  0.5060510000000  0.4833050000000 1.0
C      1  0.4497890000000  0.5053910000000  0.5367150000000 1.0
C      1  0.5050220000000  0.5527320000000  0.5640600000000 1.0
C      1  0.5424610000000  0.5538440000000  0.5284450000000 1.0
C      1  0.5515780000000  0.5536680000000  0.4764020000000 1.0
C      1  0.5183930000000  0.5501700000000  0.4357160000000 1.0
C      1  0.4751800000000  0.5506380000000  0.4632320000000 1.0
C      1  0.4495370000000  0.5481360000000  0.4976030000000 1.0
C      1  0.4606490000000  0.5493760000000  0.5409170000000 1.0
C      1  0.4568900000000  0.4604700000000  0.4624520000000 1.0
C      1  0.4447950000000  0.4620550000000  0.5091210000000 1.0
C      1  0.4724060000000  0.4613680000000  0.5485890000000 1.0
C      1  0.5202880000000  0.4622540000000  0.5500020000000 1.0
C      1  0.5508220000000  0.4628210000000  0.5129900000000 1.0
C      1  0.5432080000000  0.4602070000000  0.4656000000000 1.0
C      1  0.5007500000000  0.4590000000000  0.4424250000000 1.0
C      1  0.5162540000000  0.5223750000000  0.4548330000000 1.0
C      1  0.4857050000000  0.5181370000000  0.4655950000000 1.0
C      1  0.4668320000000  0.5219130000000  0.4961820000000 1.0
C      1  0.4738140000000  0.5234600000000  0.5279630000000 1.0
C      1  0.5012390000000  0.5259890000000  0.5440460000000 1.0
C      1  0.5252800000000  0.5271380000000  0.5260250000000 1.0
C      1  0.5359330000000  0.5252350000000  0.4782350000000 1.0
C      1  0.4330490000000  0.5505470000000  0.5245950000000 1.0
C      1  0.4728150000000  0.5481050000000  0.5698410000000 1.0
C      1  0.5377240000000  0.5505550000000  0.5602170000000 1.0
C      1  0.5639990000000  0.5502130000000  0.5062160000000 1.0
C      1  0.5495010000000  0.5467300000000  0.4448120000000 1.0
C      1  0.4870310000000  0.5486880000000  0.4336310000000 1.0
C      1  0.4430270000000  0.5530080000000  0.4676290000000 1.0
C      1  0.4418440000000  0.4767510000000  0.4831260000000 1.0
C      1  0.4505790000000  0.4763830000000  0.5349240000000 1.0
C      1  0.4958820000000  0.4757440000000  0.5604530000000 1.0
C      1  0.5426450000000  0.4777130000000  0.5375640000000 1.0
C      1  0.5561160000000  0.4766830000000  0.4872340000000 1.0
C      1  0.5274530000000  0.4728100000000  0.4436770000000 1.0
C      1  0.4742250000000  0.4741060000000  0.4422050000000 1.0
C      1  0.4645630000000  0.4389160000000  0.5056910000000 1.0
C      1  0.4822960000000  0.4386710000000  0.5302390000000 1.0
C      1  0.5125690000000  0.4389730000000  0.5314270000000 1.0
C      1  0.5324350000000  0.4386670000000  0.5083920000000 1.0
C      1  0.5271090000000  0.4367290000000  0.4783040000000 1.0
C      1  0.5000600000000  0.4371340000000  0.4640950000000 1.0
C      1  0.4723720000000  0.4379640000000  0.4764450000000 1.0
C      1  0.4761280000000  0.5232080000000  0.4204600000000 1.0
C      1  0.4300130000000  0.5247910000000  0.4640060000000 1.0
C      1  0.4252200000000  0.5220020000000  0.5335440000000 1.0
C      1  0.4742420000000  0.5194340000000  0.5809850000000 1.0
C      1  0.5496640000000  0.5226400000000  0.5648750000000 1.0
C      1  0.5756710000000  0.5223100000000  0.5039440000000 1.0
C      1  0.5554200000000  0.5179300000000  0.4361340000000 1.0
C      1  0.5013280000000  0.4981940000000  0.4990800000000 1.0
C      1  0.5141850000000  0.5252950000000  0.4986550000000 1.0
C      1  0.4966130000000  0.5507690000000  0.4896500000000 1.0
C      1  0.5147320000000  0.4737830000000  0.4936750000000 1.0
END
