TITL C-3985247-764-802 -1.15520568951411e-06 125000 -330.68390422307 0 0 60 (C3h) n - 1
REM
REM in /home/nfs/bkarasulu/CARBON/AIRSS/Generating-Clusters/TERSOFF/Higher-Symm/Only-C60
REM
REM
REM
REM
REM
REM ./C.cell (28575a23ae977d3b5fae324c64b13b57)
REM
REM compiler GCC version 9.2.1 20190827 (Red Hat 9.2.1-1)
REM options -cpp -mtune=generic -march=x86-64 -g -O0 -fpre-include=/usr/include/finclude/math-vector-fortran.h
REM seed 1417307052 776031055 347384204 -1685715429 -916724842 -1833207248 -1140086936 728889198 416180602 -170821626 -1469805098 -92399441 674376244 777169452 -575760943 -1916053669 275935825 -1880782770 -1636959117 -1011223717 -1147295491 -149691301 -51620732 -94431869 -911289312 1637885674 1053989798 -922687139 -307984630 645613992 1170595191 1633148974 -1745360740
REM
CELL 1.54180   50.00000   50.00000   50.00000   90.00000   90.00000   90.00000
LATT -1
SFAC C  
C      1  0.4728020000000  0.5373390000000  0.4385310000000 1.0
C      1  0.4728020000000  0.4280970000000  0.4983980000000 1.0
C      1  0.4728020000000  0.5345640000000  0.5630710000000 1.0
C      1  0.5271980000000  0.5373390000000  0.4385310000000 1.0
C      1  0.5271980000000  0.4280970000000  0.4983980000000 1.0
C      1  0.5271980000000  0.5345640000000  0.5630710000000 1.0
C      1  0.5267030000000  0.4322220000000  0.5282590000000 1.0
C      1  0.5267030000000  0.5583620000000  0.5445680000000 1.0
C      1  0.5267030000000  0.5094160000000  0.4271730000000 1.0
C      1  0.4732970000000  0.4322220000000  0.5282590000000 1.0
C      1  0.4732970000000  0.5583620000000  0.5445680000000 1.0
C      1  0.4732970000000  0.5094160000000  0.4271730000000 1.0
C      1  0.5278330000000  0.4799300000000  0.5551500000000 1.0
C      1  0.5278330000000  0.5577970000000  0.4898060000000 1.0
C      1  0.5278330000000  0.4622730000000  0.4550440000000 1.0
C      1  0.4721670000000  0.4799300000000  0.5551500000000 1.0
C      1  0.4721670000000  0.5577970000000  0.4898060000000 1.0
C      1  0.4721670000000  0.4622730000000  0.4550440000000 1.0
C      1  0.5147600000000  0.4445850000000  0.4340170000000 1.0
C      1  0.5147600000000  0.4705640000000  0.5809830000000 1.0
C      1  0.5147600000000  0.5848510000000  0.4850010000000 1.0
C      1  0.4852400000000  0.4445850000000  0.4340170000000 1.0
C      1  0.4852400000000  0.4705640000000  0.5809830000000 1.0
C      1  0.4852400000000  0.5848510000000  0.4850010000000 1.0
C      1  0.4452740000000  0.4800950000000  0.4964020000000 1.0
C      1  0.4452740000000  0.5068370000000  0.5190370000000 1.0
C      1  0.4452740000000  0.5130680000000  0.4845610000000 1.0
C      1  0.5547260000000  0.4800950000000  0.4964020000000 1.0
C      1  0.5547260000000  0.5068370000000  0.5190370000000 1.0
C      1  0.5547260000000  0.5130680000000  0.4845610000000 1.0
C      1  0.5164260000000  0.4909350000000  0.4512090000000 1.0
C      1  0.5164260000000  0.4622780000000  0.5322460000000 1.0
C      1  0.5164260000000  0.5467870000000  0.5165450000000 1.0
C      1  0.4835740000000  0.4909350000000  0.4512090000000 1.0
C      1  0.4835740000000  0.4622780000000  0.5322460000000 1.0
C      1  0.4835740000000  0.5467870000000  0.5165450000000 1.0
C      1  0.4856650000000  0.4118570000000  0.5449420000000 1.0
C      1  0.4856650000000  0.5829920000000  0.5538640000000 1.0
C      1  0.4856650000000  0.5051510000000  0.4011950000000 1.0
C      1  0.5143350000000  0.4118570000000  0.5449420000000 1.0
C      1  0.5143350000000  0.5829920000000  0.5538640000000 1.0
C      1  0.5143350000000  0.5051510000000  0.4011950000000 1.0
C      1  0.4850980000000  0.4514430000000  0.4815670000000 1.0
C      1  0.4850980000000  0.5083150000000  0.5512680000000 1.0
C      1  0.4850980000000  0.5402410000000  0.4671650000000 1.0
C      1  0.5149020000000  0.4514430000000  0.4815670000000 1.0
C      1  0.5149020000000  0.5083150000000  0.5512680000000 1.0
C      1  0.5149020000000  0.5402410000000  0.4671650000000 1.0
C      1  0.4446520000000  0.5445860000000  0.4867420000000 1.0
C      1  0.4446520000000  0.4662250000000  0.4680160000000 1.0
C      1  0.4446520000000  0.4891890000000  0.5452420000000 1.0
C      1  0.5553480000000  0.5445860000000  0.4867420000000 1.0
C      1  0.5553480000000  0.4662250000000  0.4680160000000 1.0
C      1  0.5553480000000  0.4891890000000  0.5452420000000 1.0
C      1  0.5260630000000  0.4697540000000  0.5035120000000 1.0
C      1  0.5260630000000  0.5181650000000  0.5244380000000 1.0
C      1  0.5260630000000  0.5120820000000  0.4720500000000 1.0
C      1  0.4739370000000  0.4697530000000  0.5035120000000 1.0
C      1  0.4739370000000  0.5181650000000  0.5244380000000 1.0
C      1  0.4739370000000  0.5120820000000  0.4720500000000 1.0
END
