TITL C-3985251-913-650 0.000399567465011492 125000 -284.790179604993 0 0 60 (C6) n - 1
REM
REM in /home/nfs/bkarasulu/CARBON/AIRSS/Generating-Clusters/TERSOFF/Higher-Symm/Only-C60
REM
REM
REM
REM
REM
REM ./C.cell (28575a23ae977d3b5fae324c64b13b57)
REM
REM compiler GCC version 9.2.1 20190827 (Red Hat 9.2.1-1)
REM options -cpp -mtune=generic -march=x86-64 -g -O0 -fpre-include=/usr/include/finclude/math-vector-fortran.h
REM seed -361627158 1427187482 -559820590 -1619927108 -889471831 -1525166995 452620882 -675044226 -2136637213 696992554 1973725591 1554658762 1921413445 -1153592176 1666519636 1196440960 -1184184901 589599252 -22976549 437938012 161206055 -854582596 1500747994 -373357853 -856376351 -498730622 929693206 324702832 41623904 1266460341 1531738964 -1211074170 646087589
REM
CELL 1.54180   50.00000   50.00000   50.00000   90.00000   90.00000   90.00000
LATT -1
SFAC C  
C      1  0.5396730000000  0.5425380000000  0.4520670000000 1.0
C      1  0.5396690000000  0.4797550000000  0.4391970000000 1.0
C      1  0.5396720000000  0.4372210000000  0.4871280000000 1.0
C      1  0.5396730000000  0.4574620000000  0.5479330000000 1.0
C      1  0.5396690000000  0.5202450000000  0.5608030000000 1.0
C      1  0.5396720000000  0.5627790000000  0.5128720000000 1.0
C      1  0.4811700000000  0.4380510000000  0.5023300000000 1.0
C      1  0.4811690000000  0.4710470000000  0.5548180000000 1.0
C      1  0.4811650000000  0.5329950000000  0.5524860000000 1.0
C      1  0.4811700000000  0.5619490000000  0.4976700000000 1.0
C      1  0.4811690000000  0.5289530000000  0.4451820000000 1.0
C      1  0.4811650000000  0.4670050000000  0.4475140000000 1.0
C      1  0.5163790000000  0.4717500000000  0.4917800000000 1.0
C      1  0.5163760000000  0.4787550000000  0.5203620000000 1.0
C      1  0.5163780000000  0.5070150000000  0.5285730000000 1.0
C      1  0.5163790000000  0.5282500000000  0.5082200000000 1.0
C      1  0.5163760000000  0.5212450000000  0.4796380000000 1.0
C      1  0.5163780000000  0.4929850000000  0.4714270000000 1.0
C      1  0.4691000000000  0.5605700000000  0.4508730000000 1.0
C      1  0.4690970000000  0.4877390000000  0.4229770000000 1.0
C      1  0.4691230000000  0.4271780000000  0.4721160000000 1.0
C      1  0.4691000000000  0.4394300000000  0.5491270000000 1.0
C      1  0.4690970000000  0.5122610000000  0.5770230000000 1.0
C      1  0.4691230000000  0.5728220000000  0.5278840000000 1.0
C      1  0.5504480000000  0.4684750000000  0.4931080000000 1.0
C      1  0.5504480000000  0.4782700000000  0.5238560000000 1.0
C      1  0.5504470000000  0.5097940000000  0.5307470000000 1.0
C      1  0.5504480000000  0.5315250000000  0.5068920000000 1.0
C      1  0.5504480000000  0.5217300000000  0.4761440000000 1.0
C      1  0.5504470000000  0.4902060000000  0.4692530000000 1.0
C      1  0.5050710000000  0.5553210000000  0.5153500000000 1.0
C      1  0.5051010000000  0.5409500000000  0.4597800000000 1.0
C      1  0.5050950000000  0.4856270000000  0.4444390000000 1.0
C      1  0.5050710000000  0.4446790000000  0.4846500000000 1.0
C      1  0.5051010000000  0.4590500000000  0.5402200000000 1.0
C      1  0.5050950000000  0.5143730000000  0.5555610000000 1.0
C      1  0.4968310000000  0.4396440000000  0.4534480000000 1.0
C      1  0.4968270000000  0.4295060000000  0.5289950000000 1.0
C      1  0.4968720000000  0.4898560000000  0.5755360000000 1.0
C      1  0.4968310000000  0.5603560000000  0.5465520000000 1.0
C      1  0.4968270000000  0.5704940000000  0.4710050000000 1.0
C      1  0.4968720000000  0.5101440000000  0.4244640000000 1.0
C      1  0.4605740000000  0.4671270000000  0.5067450000000 1.0
C      1  0.4605750000000  0.4894070000000  0.5318430000000 1.0
C      1  0.4605740000000  0.5222780000000  0.5250950000000 1.0
C      1  0.4605740000000  0.5328730000000  0.4932550000000 1.0
C      1  0.4605750000000  0.5105930000000  0.4681570000000 1.0
C      1  0.4605740000000  0.4777220000000  0.4749050000000 1.0
C      1  0.4486240000000  0.5030730000000  0.4394100000000 1.0
C      1  0.4486250000000  0.4490610000000  0.4670430000000 1.0
C      1  0.4486230000000  0.4459910000000  0.5276360000000 1.0
C      1  0.4486240000000  0.4969270000000  0.5605900000000 1.0
C      1  0.4486250000000  0.5509390000000  0.5329570000000 1.0
C      1  0.4486230000000  0.5540090000000  0.4723640000000 1.0
C      1  0.5321120000000  0.5527340000000  0.5472050000000 1.0
C      1  0.5321070000000  0.5672450000000  0.4779230000000 1.0
C      1  0.5320740000000  0.5145030000000  0.4307090000000 1.0
C      1  0.5321120000000  0.4472660000000  0.4527950000000 1.0
C      1  0.5321070000000  0.4327550000000  0.5220770000000 1.0
C      1  0.5320740000000  0.4854970000000  0.5692910000000 1.0
END
