TITL C-3985245-9316-1125 -3.4656446644882e-07 125000 -338.774953485469 0 0 60 (C2) n - 1
REM
REM in /home/nfs/bkarasulu/CARBON/AIRSS/Generating-Clusters/TERSOFF/Higher-Symm/Only-C60
REM
REM
REM
REM
REM
REM ./C.cell (28575a23ae977d3b5fae324c64b13b57)
REM
REM compiler GCC version 9.2.1 20190827 (Red Hat 9.2.1-1)
REM options -cpp -mtune=generic -march=x86-64 -g -O0 -fpre-include=/usr/include/finclude/math-vector-fortran.h
REM seed 474205506 2125624312 971812193 -893339680 -825417800 -998225954 1163449523 1992270061 -805471412 1973532905 -2074457166 -489657887 -2086220441 -656287400 -1188176923 1164006356 -1739003790 1937370303 1537277617 -840188021 -1472340810 1986626473 677635954 -2113306475 433019968 -1517842120 1050241010 -2036883964 2132652669 -2076532114 -1577071576 652263641 1926432050
REM
CELL 1.54180   50.00000   50.00000   50.00000   90.00000   90.00000   90.00000
LATT -1
SFAC C  
C      1  0.5325860000000  0.4385950000000  0.5294930000000 1.0
C      1  0.5325860000000  0.5614050000000  0.4705070000000 1.0
C      1  0.5311510000000  0.4513030000000  0.4396050000000 1.0
C      1  0.5311520000000  0.5486970000000  0.5603940000000 1.0
C      1  0.4912890000000  0.4978420000000  0.4700280000000 1.0
C      1  0.4912890000000  0.5021580000000  0.5299720000000 1.0
C      1  0.4716420000000  0.5738070000000  0.5202350000000 1.0
C      1  0.4716410000000  0.4261930000000  0.4797650000000 1.0
C      1  0.4791140000000  0.5541940000000  0.4432810000000 1.0
C      1  0.4791140000000  0.4458060000000  0.5567190000000 1.0
C      1  0.4722130000000  0.4571510000000  0.4338990000000 1.0
C      1  0.4722140000000  0.5428490000000  0.5661010000000 1.0
C      1  0.4810840000000  0.5728160000000  0.4667500000000 1.0
C      1  0.4810840000000  0.4271840000000  0.5332500000000 1.0
C      1  0.5013150000000  0.4253830000000  0.4903830000000 1.0
C      1  0.5013150000000  0.5746170000000  0.5096170000000 1.0
C      1  0.4642810000000  0.4349460000000  0.5089310000000 1.0
C      1  0.4642810000000  0.5650540000000  0.4910690000000 1.0
C      1  0.5033240000000  0.4655990000000  0.5623920000000 1.0
C      1  0.5033240000000  0.5344010000000  0.4376080000000 1.0
C      1  0.5508450000000  0.5343690000000  0.5104130000000 1.0
C      1  0.5508450000000  0.4656310000000  0.4895870000000 1.0
C      1  0.5293340000000  0.4858100000000  0.5064210000000 1.0
C      1  0.5293340000000  0.5141900000000  0.4935790000000 1.0
C      1  0.5204880000000  0.4883020000000  0.4573310000000 1.0
C      1  0.5204880000000  0.5116980000000  0.5426690000000 1.0
C      1  0.5081500000000  0.5776150000000  0.4794820000000 1.0
C      1  0.5081500000000  0.4223850000000  0.5205180000000 1.0
C      1  0.5182280000000  0.5230850000000  0.5740400000000 1.0
C      1  0.5182280000000  0.4769150000000  0.4259600000000 1.0
C      1  0.4598660000000  0.5271270000000  0.4447060000000 1.0
C      1  0.4598660000000  0.4728730000000  0.5552940000000 1.0
C      1  0.4651940000000  0.4525940000000  0.4622730000000 1.0
C      1  0.4651950000000  0.5474060000000  0.5377270000000 1.0
C      1  0.4487970000000  0.4766900000000  0.5280930000000 1.0
C      1  0.4487970000000  0.5233100000000  0.4719070000000 1.0
C      1  0.5415960000000  0.4898720000000  0.5358880000000 1.0
C      1  0.5415960000000  0.5101280000000  0.4641120000000 1.0
C      1  0.4979220000000  0.4753240000000  0.5095440000000 1.0
C      1  0.4979220000000  0.5246760000000  0.4904560000000 1.0
C      1  0.4665950000000  0.4644190000000  0.5082260000000 1.0
C      1  0.4665950000000  0.5355810000000  0.4917740000000 1.0
C      1  0.4845020000000  0.5074530000000  0.4404130000000 1.0
C      1  0.4845020000000  0.4925470000000  0.5595870000000 1.0
C      1  0.4880820000000  0.5191650000000  0.5754520000000 1.0
C      1  0.4880820000000  0.4808350000000  0.4245480000000 1.0
C      1  0.5286230000000  0.5371350000000  0.4531070000000 1.0
C      1  0.5286230000000  0.4628640000000  0.5468930000000 1.0
C      1  0.5537480000000  0.5567560000000  0.4906600000000 1.0
C      1  0.5537480000000  0.4432440000000  0.5093400000000 1.0
C      1  0.5076790000000  0.4536750000000  0.4867770000000 1.0
C      1  0.5076790000000  0.5463250000000  0.5132230000000 1.0
C      1  0.5651220000000  0.5063380000000  0.5140920000000 1.0
C      1  0.5651220000000  0.4936620000000  0.4859080000000 1.0
C      1  0.4421250000000  0.5026340000000  0.5156840000000 1.0
C      1  0.4421250000000  0.4973670000000  0.4843160000000 1.0
C      1  0.4658360000000  0.5224000000000  0.5205670000000 1.0
C      1  0.4658360000000  0.4776000000000  0.4794330000000 1.0
C      1  0.5292680000000  0.5389450000000  0.5308220000000 1.0
C      1  0.5292680000000  0.4610550000000  0.4691780000000 1.0
END
