TITL C-3985253-1688-441 0.000923233611573566 125000 -332.325470227619 0 0 60 (C1) n - 1
REM
REM in /home/nfs/bkarasulu/CARBON/AIRSS/Generating-Clusters/TERSOFF/Higher-Symm/Only-C60
REM
REM
REM
REM
REM
REM ./C.cell (28575a23ae977d3b5fae324c64b13b57)
REM
REM compiler GCC version 9.2.1 20190827 (Red Hat 9.2.1-1)
REM options -cpp -mtune=generic -march=x86-64 -g -O0 -fpre-include=/usr/include/finclude/math-vector-fortran.h
REM seed 581924694 -1563636575 -1086609572 1428298897 -1117617954 -1299456778 882034208 2015346510 -706825502 1468738102 -818357172 -1308351405 1795565426 -1671003096 1126312229 289817806 -1251253610 1840319193 200766608 552152412 689524388 399229784 -405694348 1372022981 -346100181 -746235098 -375524516 -1789428225 930565020 -88379639 -361711377 2132947977 1386823600
REM
CELL 1.54180   50.00000   50.00000   50.00000   90.00000   90.00000   90.00000
LATT -1
SFAC C  
C      1  0.4860820000000  0.5333120000000  0.4743100000000 1.0
C      1  0.4954750000000  0.4869170000000  0.4575570000000 1.0
C      1  0.5003790000000  0.4679840000000  0.5013790000000 1.0
C      1  0.4936350000000  0.4863020000000  0.5464740000000 1.0
C      1  0.4845690000000  0.5271790000000  0.5227570000000 1.0
C      1  0.4898750000000  0.4670440000000  0.4759060000000 1.0
C      1  0.4834410000000  0.5126040000000  0.4560410000000 1.0
C      1  0.4987950000000  0.5303620000000  0.4989480000000 1.0
C      1  0.4939240000000  0.5136800000000  0.5460430000000 1.0
C      1  0.4848630000000  0.4723020000000  0.5236990000000 1.0
C      1  0.4449710000000  0.5394830000000  0.5276990000000 1.0
C      1  0.4455100000000  0.5413400000000  0.4670510000000 1.0
C      1  0.4527200000000  0.4857510000000  0.4462900000000 1.0
C      1  0.4536930000000  0.4503860000000  0.4986630000000 1.0
C      1  0.4521630000000  0.4844070000000  0.5526090000000 1.0
C      1  0.4450280000000  0.4603870000000  0.5276150000000 1.0
C      1  0.4482080000000  0.4636330000000  0.4677020000000 1.0
C      1  0.4430490000000  0.5178290000000  0.4462980000000 1.0
C      1  0.4531120000000  0.5503700000000  0.4988420000000 1.0
C      1  0.4524950000000  0.5155420000000  0.5525040000000 1.0
C      1  0.5524680000000  0.5516900000000  0.4500240000000 1.0
C      1  0.5531730000000  0.4700430000000  0.4320630000000 1.0
C      1  0.5517420000000  0.4319220000000  0.5085600000000 1.0
C      1  0.5539420000000  0.4854120000000  0.5743470000000 1.0
C      1  0.5519060000000  0.5602800000000  0.5364020000000 1.0
C      1  0.5528730000000  0.4479100000000  0.4507720000000 1.0
C      1  0.5522700000000  0.5296370000000  0.4312790000000 1.0
C      1  0.5520110000000  0.5674680000000  0.5082640000000 1.0
C      1  0.5540310000000  0.5142740000000  0.5743490000000 1.0
C      1  0.5515740000000  0.4395140000000  0.5365240000000 1.0
C      1  0.4757950000000  0.5609810000000  0.4637600000000 1.0
C      1  0.4786280000000  0.4831900000000  0.4265030000000 1.0
C      1  0.4762770000000  0.4280390000000  0.4936720000000 1.0
C      1  0.4781490000000  0.4718630000000  0.5720880000000 1.0
C      1  0.4741960000000  0.5507230000000  0.5451150000000 1.0
C      1  0.4763020000000  0.4411760000000  0.4644970000000 1.0
C      1  0.4732540000000  0.5181930000000  0.4262240000000 1.0
C      1  0.4767080000000  0.5713080000000  0.4937980000000 1.0
C      1  0.4784700000000  0.5282990000000  0.5715680000000 1.0
C      1  0.4739380000000  0.4492340000000  0.5453540000000 1.0
C      1  0.5027330000000  0.5587390000000  0.4454100000000 1.0
C      1  0.5039560000000  0.4647720000000  0.4230810000000 1.0
C      1  0.5017480000000  0.4266380000000  0.5084440000000 1.0
C      1  0.5048800000000  0.4836690000000  0.5867270000000 1.0
C      1  0.5017340000000  0.5626490000000  0.5372280000000 1.0
C      1  0.5030240000000  0.4413100000000  0.4454910000000 1.0
C      1  0.5020500000000  0.5338320000000  0.4250090000000 1.0
C      1  0.5021720000000  0.5712000000000  0.5080960000000 1.0
C      1  0.5049460000000  0.5163840000000  0.5863520000000 1.0
C      1  0.5012260000000  0.4362670000000  0.5377170000000 1.0
C      1  0.5288370000000  0.4832980000000  0.4226160000000 1.0
C      1  0.5274970000000  0.4294760000000  0.4924300000000 1.0
C      1  0.5292930000000  0.4696830000000  0.5732190000000 1.0
C      1  0.5275350000000  0.5528440000000  0.5510520000000 1.0
C      1  0.5282250000000  0.5627870000000  0.4618850000000 1.0
C      1  0.5277770000000  0.5155860000000  0.4231030000000 1.0
C      1  0.5276630000000  0.5692980000000  0.4921750000000 1.0
C      1  0.5295050000000  0.5301080000000  0.5730560000000 1.0
C      1  0.5271960000000  0.4467200000000  0.5511920000000 1.0
C      1  0.5283050000000  0.4367660000000  0.4621670000000 1.0
END
