TITL C-3985254-1270-17 0.000389964216982223 125000 -335.044335450377 0 0 60 (C1) n - 1
REM
REM in /home/nfs/bkarasulu/CARBON/AIRSS/Generating-Clusters/TERSOFF/Higher-Symm/Only-C60
REM
REM
REM
REM
REM
REM ./C.cell (28575a23ae977d3b5fae324c64b13b57)
REM
REM compiler GCC version 9.2.1 20190827 (Red Hat 9.2.1-1)
REM options -cpp -mtune=generic -march=x86-64 -g -O0 -fpre-include=/usr/include/finclude/math-vector-fortran.h
REM seed -1684882966 588374446 32565775 -1815923709 1456948354 1454829828 1156473931 -1922708390 -1841528220 -1833813135 2005223639 -659997079 1359247033 -554596894 901928403 -290173367 -1746278390 -1591825190 -1805101718 -1849835550 -336776339 302411067 -1000304142 551320673 -28246655 -1464234623 -670090258 -1480008611 1395728912 -1269041515 -849838612 -1124752785 1301497556
REM
CELL 1.54180   50.00000   50.00000   50.00000   90.00000   90.00000   90.00000
LATT -1
SFAC C  
C      1  0.5797240000000  0.4720440000000  0.5012650000000 1.0
C      1  0.5063060000000  0.4729070000000  0.4930570000000 1.0
C      1  0.5392100000000  0.4883680000000  0.5280950000000 1.0
C      1  0.4532500000000  0.4809180000000  0.5431910000000 1.0
C      1  0.5304470000000  0.5090680000000  0.4838090000000 1.0
C      1  0.4587990000000  0.5171100000000  0.5782030000000 1.0
C      1  0.5198090000000  0.5018340000000  0.4438630000000 1.0
C      1  0.5076440000000  0.4336530000000  0.5085200000000 1.0
C      1  0.5016010000000  0.5231890000000  0.5501810000000 1.0
C      1  0.4984980000000  0.4471580000000  0.4567820000000 1.0
C      1  0.4570000000000  0.4881880000000  0.5730860000000 1.0
C      1  0.5025620000000  0.4726930000000  0.5670010000000 1.0
C      1  0.4907900000000  0.4593890000000  0.4299700000000 1.0
C      1  0.5013840000000  0.4938020000000  0.5454330000000 1.0
C      1  0.5160200000000  0.4714870000000  0.4638990000000 1.0
C      1  0.5449990000000  0.4628710000000  0.4654720000000 1.0
C      1  0.4539240000000  0.4854890000000  0.4561210000000 1.0
C      1  0.4718300000000  0.5812580000000  0.5155690000000 1.0
C      1  0.5294320000000  0.4874980000000  0.5015850000000 1.0
C      1  0.4594740000000  0.4458220000000  0.4956470000000 1.0
C      1  0.4354330000000  0.5024840000000  0.5292220000000 1.0
C      1  0.4877000000000  0.4363880000000  0.4839330000000 1.0
C      1  0.4825780000000  0.5322440000000  0.5709320000000 1.0
C      1  0.5575730000000  0.4834340000000  0.4473690000000 1.0
C      1  0.4842470000000  0.5271010000000  0.4620380000000 1.0
C      1  0.4772120000000  0.4942120000000  0.5271210000000 1.0
C      1  0.4911020000000  0.4380980000000  0.5330200000000 1.0
C      1  0.5801400000000  0.5016490000000  0.5062870000000 1.0
C      1  0.5436380000000  0.5156350000000  0.5378440000000 1.0
C      1  0.4917910000000  0.5086950000000  0.4385770000000 1.0
C      1  0.5341850000000  0.5383850000000  0.5208250000000 1.0
C      1  0.5160520000000  0.4643320000000  0.4140120000000 1.0
C      1  0.4798990000000  0.4749260000000  0.5848440000000 1.0
C      1  0.4530740000000  0.4748190000000  0.4854080000000 1.0
C      1  0.4587440000000  0.5135560000000  0.4665150000000 1.0
C      1  0.5366810000000  0.4851700000000  0.4224550000000 1.0
C      1  0.5016950000000  0.5421690000000  0.5195750000000 1.0
C      1  0.5701690000000  0.5222290000000  0.4872520000000 1.0
C      1  0.4750900000000  0.4842040000000  0.4348750000000 1.0
C      1  0.5301720000000  0.5542040000000  0.4700940000000 1.0
C      1  0.4714130000000  0.5231640000000  0.5188080000000 1.0
C      1  0.4630930000000  0.4499740000000  0.5274780000000 1.0
C      1  0.5373350000000  0.4443240000000  0.5131810000000 1.0
C      1  0.4949330000000  0.5645050000000  0.5470570000000 1.0
C      1  0.4492610000000  0.5532330000000  0.4846050000000 1.0
C      1  0.5029110000000  0.5684870000000  0.4770430000000 1.0
C      1  0.4451610000000  0.5369270000000  0.5332100000000 1.0
C      1  0.5421410000000  0.4608570000000  0.5388700000000 1.0
C      1  0.4483390000000  0.5636920000000  0.5130320000000 1.0
C      1  0.4976220000000  0.5709570000000  0.5056820000000 1.0
C      1  0.5052960000000  0.4460720000000  0.5566920000000 1.0
C      1  0.4328150000000  0.4962110000000  0.4999860000000 1.0
C      1  0.5291460000000  0.5357590000000  0.4453730000000 1.0
C      1  0.4766040000000  0.5568710000000  0.4652120000000 1.0
C      1  0.5558580000000  0.4563830000000  0.4917520000000 1.0
C      1  0.5557790000000  0.5093360000000  0.4640180000000 1.0
C      1  0.4478460000000  0.5225160000000  0.4915320000000 1.0
C      1  0.5051090000000  0.5253820000000  0.4873400000000 1.0
C      1  0.4801860000000  0.4818820000000  0.5011150000000 1.0
C      1  0.5492770000000  0.5447900000000  0.4950660000000 1.0
END
