TITL C-3985247-764-365 4.24919633596581e-07 125000 -351.473313887874 0 0 60 (D2) n - 1
REM
REM in /home/nfs/bkarasulu/CARBON/AIRSS/Generating-Clusters/TERSOFF/Higher-Symm/Only-C60
REM
REM
REM
REM
REM
REM ./C.cell (28575a23ae977d3b5fae324c64b13b57)
REM
REM compiler GCC version 9.2.1 20190827 (Red Hat 9.2.1-1)
REM options -cpp -mtune=generic -march=x86-64 -g -O0 -fpre-include=/usr/include/finclude/math-vector-fortran.h
REM seed -1239340279 -82643798 655203555 1190993148 -1925214896 -111823450 1926471792 -466583356 973774225 -2126903869 2061480159 -1330425991 -741893312 -1128807563 -355016998 817695260 1610707149 -262594068 328999991 883258457 -29183280 -969118898 2049344578 1885330998 -1664732296 622248713 -1475963630 -445258692 2016033132 1280205221 562042255 -2045627044 -834551284
REM
CELL 1.54180   50.00000   50.00000   50.00000   90.00000   90.00000   90.00000
LATT -1
SFAC C  
C      1  0.4443210000000  0.5244210000000  0.4695020000000 1.0
C      1  0.5556790000000  0.5244210000000  0.5304980000000 1.0
C      1  0.5556790000000  0.4755790000000  0.4695020000000 1.0
C      1  0.4443210000000  0.4755790000000  0.5304980000000 1.0
C      1  0.4649920000000  0.5714400000000  0.4754380000000 1.0
C      1  0.5350080000000  0.5714400000000  0.5245620000000 1.0
C      1  0.5350080000000  0.4285600000000  0.4754380000000 1.0
C      1  0.4649920000000  0.4285600000000  0.5245620000000 1.0
C      1  0.4376510000000  0.4853690000000  0.5024630000000 1.0
C      1  0.5623490000000  0.4853690000000  0.4975370000000 1.0
C      1  0.5623490000000  0.5146310000000  0.5024630000000 1.0
C      1  0.4376510000000  0.5146310000000  0.4975370000000 1.0
C      1  0.5358060000000  0.5788930000000  0.4947660000000 1.0
C      1  0.4641940000000  0.5788930000000  0.5052340000000 1.0
C      1  0.4641940000000  0.4211070000000  0.4947660000000 1.0
C      1  0.5358060000000  0.4211070000000  0.5052340000000 1.0
C      1  0.4449660000000  0.4467480000000  0.5355090000000 1.0
C      1  0.5550340000000  0.4467480000000  0.4644910000000 1.0
C      1  0.5550340000000  0.5532520000000  0.5355090000000 1.0
C      1  0.4449660000000  0.5532520000000  0.4644910000000 1.0
C      1  0.5408410000000  0.4778420000000  0.5464520000000 1.0
C      1  0.4591590000000  0.4778420000000  0.4535480000000 1.0
C      1  0.4591590000000  0.5221580000000  0.5464520000000 1.0
C      1  0.5408410000000  0.5221580000000  0.4535480000000 1.0
C      1  0.4431130000000  0.4672730000000  0.4790450000000 1.0
C      1  0.5568870000000  0.4672730000000  0.5209550000000 1.0
C      1  0.5568870000000  0.5327270000000  0.4790450000000 1.0
C      1  0.4431130000000  0.5327270000000  0.5209550000000 1.0
C      1  0.5085820000000  0.5888300000000  0.4873570000000 1.0
C      1  0.4914180000000  0.5888300000000  0.5126430000000 1.0
C      1  0.4914180000000  0.4111700000000  0.4873570000000 1.0
C      1  0.5085820000000  0.4111700000000  0.5126430000000 1.0
C      1  0.4942600000000  0.4290360000000  0.5338580000000 1.0
C      1  0.5057400000000  0.4290360000000  0.4661420000000 1.0
C      1  0.5057400000000  0.5709640000000  0.5338580000000 1.0
C      1  0.4942600000000  0.5709640000000  0.4661420000000 1.0
C      1  0.4794930000000  0.5120460000000  0.4906180000000 1.0
C      1  0.5205070000000  0.5120460000000  0.5093820000000 1.0
C      1  0.5205070000000  0.4879540000000  0.4906180000000 1.0
C      1  0.4794930000000  0.4879540000000  0.5093820000000 1.0
C      1  0.5145580000000  0.5387710000000  0.5008440000000 1.0
C      1  0.4854420000000  0.5387710000000  0.4991560000000 1.0
C      1  0.4854420000000  0.4612290000000  0.5008440000000 1.0
C      1  0.5145580000000  0.4612290000000  0.4991560000000 1.0
C      1  0.4916190000000  0.4874650000000  0.5387960000000 1.0
C      1  0.5083810000000  0.4874650000000  0.4612040000000 1.0
C      1  0.5083810000000  0.5125350000000  0.5387960000000 1.0
C      1  0.4916190000000  0.5125350000000  0.4612040000000 1.0
C      1  0.4670910000000  0.4479140000000  0.4818110000000 1.0
C      1  0.5329090000000  0.4479140000000  0.5181890000000 1.0
C      1  0.5329090000000  0.5520860000000  0.4818110000000 1.0
C      1  0.4670910000000  0.5520860000000  0.5181890000000 1.0
C      1  0.4900090000000  0.5410320000000  0.5436920000000 1.0
C      1  0.5099910000000  0.5410320000000  0.4563080000000 1.0
C      1  0.5099910000000  0.4589680000000  0.5436920000000 1.0
C      1  0.4900090000000  0.4589680000000  0.4563080000000 1.0
C      1  0.5374990000000  0.5073590000000  0.5474680000000 1.0
C      1  0.4625010000000  0.5073590000000  0.4525320000000 1.0
C      1  0.4625010000000  0.4926410000000  0.5474680000000 1.0
C      1  0.5374990000000  0.4926410000000  0.4525320000000 1.0
END
