TITL C-3985245-9316-297 -0.000454758614307935 125000 -322.773115121496 0 0 60 (Cs) n - 1
REM
REM in /home/nfs/bkarasulu/CARBON/AIRSS/Generating-Clusters/TERSOFF/Higher-Symm/Only-C60
REM
REM
REM
REM
REM
REM ./C.cell (28575a23ae977d3b5fae324c64b13b57)
REM
REM compiler GCC version 9.2.1 20190827 (Red Hat 9.2.1-1)
REM options -cpp -mtune=generic -march=x86-64 -g -O0 -fpre-include=/usr/include/finclude/math-vector-fortran.h
REM seed 1619371534 876959383 349913046 1595196525 512795920 -400921391 -1766254478 -493858713 -287827991 776146955 -492018164 1629923157 -1543151846 -1356509889 -2118443505 157852895 2036304645 363464431 -248895789 355968132 -1450234549 408750868 1347346384 1869583505 1824826377 726991705 866758513 -723656885 2030049190 -1258225903 -1351558687 -426260712 1985345338
REM
CELL 1.54180   50.00000   50.00000   50.00000   90.00000   90.00000   90.00000
LATT -1
SFAC C  
C      1  0.5135560000000  0.4538230000000  0.4689130000000 1.0
C      1  0.5135490000000  0.5461830000000  0.4689140000000 1.0
C      1  0.5657880000000  0.4706450000000  0.4702630000000 1.0
C      1  0.5658010000000  0.5293510000000  0.4702760000000 1.0
C      1  0.5219390000000  0.5267400000000  0.4896730000000 1.0
C      1  0.5219490000000  0.4732540000000  0.4896730000000 1.0
C      1  0.4766550000000  0.5540830000000  0.5132680000000 1.0
C      1  0.4766510000000  0.4459090000000  0.5132610000000 1.0
C      1  0.5627730000000  0.5146390000000  0.5375210000000 1.0
C      1  0.5627730000000  0.4853570000000  0.5375270000000 1.0
C      1  0.5390420000000  0.4682910000000  0.5335790000000 1.0
C      1  0.5390450000000  0.5317060000000  0.5335790000000 1.0
C      1  0.4596140000000  0.5163030000000  0.4271020000000 1.0
C      1  0.4596150000000  0.4836980000000  0.4271020000000 1.0
C      1  0.5207460000000  0.5169820000000  0.5792900000000 1.0
C      1  0.5207660000000  0.4830680000000  0.5792580000000 1.0
C      1  0.5216400000000  0.5303540000000  0.4420310000000 1.0
C      1  0.5216400000000  0.4696470000000  0.4420180000000 1.0
C      1  0.4388760000000  0.5173270000000  0.4521530000000 1.0
C      1  0.4388760000000  0.4826770000000  0.4521540000000 1.0
C      1  0.4936760000000  0.4328070000000  0.4861760000000 1.0
C      1  0.4936740000000  0.5671960000000  0.4861880000000 1.0
C      1  0.4868060000000  0.4737160000000  0.5564020000000 1.0
C      1  0.4868060000000  0.5262880000000  0.5563900000000 1.0
C      1  0.4531820000000  0.4698290000000  0.5019450000000 1.0
C      1  0.4531850000000  0.5301690000000  0.5019480000000 1.0
C      1  0.4665310000000  0.4412510000000  0.4640650000000 1.0
C      1  0.4665340000000  0.5587510000000  0.4640690000000 1.0
C      1  0.5419850000000  0.4443460000000  0.5125040000000 1.0
C      1  0.5419820000000  0.5556470000000  0.5124990000000 1.0
C      1  0.4760660000000  0.4842980000000  0.4875600000000 1.0
C      1  0.4760660000000  0.5156990000000  0.4875630000000 1.0
C      1  0.5154220000000  0.4298510000000  0.5121270000000 1.0
C      1  0.5154260000000  0.5701440000000  0.5121280000000 1.0
C      1  0.4919550000000  0.4839540000000  0.4351620000000 1.0
C      1  0.4919550000000  0.5160510000000  0.4351640000000 1.0
C      1  0.5244740000000  0.5444880000000  0.5599400000000 1.0
C      1  0.5244750000000  0.4555020000000  0.5599360000000 1.0
C      1  0.4850570000000  0.4679270000000  0.4625390000000 1.0
C      1  0.4850510000000  0.5320710000000  0.4625420000000 1.0
C      1  0.4358570000000  0.5154040000000  0.5206170000000 1.0
C      1  0.4358540000000  0.4845930000000  0.5206160000000 1.0
C      1  0.5006490000000  0.4380320000000  0.5392200000000 1.0
C      1  0.5006460000000  0.5619750000000  0.5392150000000 1.0
C      1  0.5607290000000  0.5548390000000  0.4884290000000 1.0
C      1  0.5607330000000  0.4451540000000  0.4884310000000 1.0
C      1  0.5067200000000  0.5155090000000  0.5355760000000 1.0
C      1  0.5067190000000  0.4844870000000  0.5355780000000 1.0
C      1  0.5013380000000  0.5155960000000  0.5051340000000 1.0
C      1  0.5013370000000  0.4844040000000  0.5051360000000 1.0
C      1  0.4384400000000  0.5252350000000  0.5479830000000 1.0
C      1  0.4384390000000  0.4747590000000  0.5479810000000 1.0
C      1  0.4440360000000  0.4612750000000  0.4731780000000 1.0
C      1  0.4440400000000  0.5387260000000  0.4731800000000 1.0
C      1  0.4611360000000  0.5145250000000  0.5625360000000 1.0
C      1  0.4611350000000  0.4854710000000  0.5625380000000 1.0
C      1  0.5475170000000  0.4857600000000  0.4885530000000 1.0
C      1  0.5475220000000  0.5142400000000  0.4885540000000 1.0
C      1  0.5477740000000  0.4845920000000  0.4465740000000 1.0
C      1  0.5477760000000  0.5154060000000  0.4465700000000 1.0
END
