TITL C-3985254-1270-982 -1.19003494345228e-05 125000 -324.918968479255 0 0 60 (C2h) n - 1
REM
REM in /home/nfs/bkarasulu/CARBON/AIRSS/Generating-Clusters/TERSOFF/Higher-Symm/Only-C60
REM
REM
REM
REM
REM
REM ./C.cell (28575a23ae977d3b5fae324c64b13b57)
REM
REM compiler GCC version 9.2.1 20190827 (Red Hat 9.2.1-1)
REM options -cpp -mtune=generic -march=x86-64 -g -O0 -fpre-include=/usr/include/finclude/math-vector-fortran.h
REM seed -304138939 -1817348660 1348145503 1951406928 1870619637 738726168 -1853054043 -649965984 390236292 1862041705 -1234970972 465988234 -2101026164 2009119600 -1174325068 724277091 -681291785 1309038134 192690065 69638769 -1560098150 1522724487 209607450 1392129149 656532403 549292386 345292641 -247026740 2043979473 -1359789314 1038870151 1707075076 1993016620
REM
CELL 1.54180   50.00000   50.00000   50.00000   90.00000   90.00000   90.00000
LATT -1
SFAC C  
C      1  0.5066170000000  0.5708110000000  0.5175520000000 1.0
C      1  0.4933830000000  0.4291890000000  0.5175520000000 1.0
C      1  0.5066170000000  0.5708110000000  0.4824480000000 1.0
C      1  0.4933830000000  0.4291890000000  0.4824480000000 1.0
C      1  0.4590260000000  0.5629490000000  0.4641470000000 1.0
C      1  0.5409740000000  0.4370510000000  0.4641470000000 1.0
C      1  0.4590260000000  0.5629490000000  0.5358530000000 1.0
C      1  0.5409740000000  0.4370510000000  0.5358530000000 1.0
C      1  0.4550990000000  0.4893660000000  0.5573960000000 1.0
C      1  0.5449010000000  0.5106340000000  0.5573960000000 1.0
C      1  0.4550990000000  0.4893660000000  0.4426040000000 1.0
C      1  0.5449010000000  0.5106340000000  0.4426040000000 1.0
C      1  0.5552040000000  0.4821890000000  0.4819930000000 1.0
C      1  0.4447960000000  0.5178110000000  0.4819930000000 1.0
C      1  0.5552040000000  0.4821890000000  0.5180070000000 1.0
C      1  0.4447960000000  0.5178110000000  0.5180070000000 1.0
C      1  0.5367080000000  0.5354370000000  0.4844580000000 1.0
C      1  0.4632920000000  0.4645630000000  0.4844580000000 1.0
C      1  0.5367080000000  0.5354370000000  0.5155420000000 1.0
C      1  0.4632920000000  0.4645630000000  0.5155420000000 1.0
C      1  0.4372280000000  0.4925700000000  0.5328640000000 1.0
C      1  0.5627720000000  0.5074300000000  0.5328640000000 1.0
C      1  0.4372280000000  0.4925700000000  0.4671360000000 1.0
C      1  0.5627720000000  0.5074300000000  0.4671360000000 1.0
C      1  0.5503430000000  0.4634650000000  0.4566010000000 1.0
C      1  0.4496570000000  0.5365350000000  0.4566010000000 1.0
C      1  0.5503430000000  0.4634650000000  0.5433990000000 1.0
C      1  0.4496570000000  0.5365350000000  0.5433990000000 1.0
C      1  0.4657300000000  0.5182810000000  0.5625200000000 1.0
C      1  0.5342700000000  0.4817190000000  0.5625200000000 1.0
C      1  0.4657300000000  0.5182810000000  0.4374800000000 1.0
C      1  0.5342700000000  0.4817190000000  0.4374800000000 1.0
C      1  0.5156270000000  0.5139460000000  0.4790060000000 1.0
C      1  0.4843730000000  0.4860540000000  0.4790060000000 1.0
C      1  0.5156270000000  0.5139460000000  0.5209940000000 1.0
C      1  0.4843730000000  0.4860540000000  0.5209940000000 1.0
C      1  0.4776790000000  0.4665980000000  0.5575880000000 1.0
C      1  0.5223210000000  0.5334020000000  0.5575880000000 1.0
C      1  0.4776790000000  0.4665980000000  0.4424120000000 1.0
C      1  0.5223210000000  0.5334020000000  0.4424120000000 1.0
C      1  0.5681930000000  0.5311660000000  0.5161280000000 1.0
C      1  0.4318070000000  0.4688340000000  0.5161280000000 1.0
C      1  0.5681930000000  0.5311660000000  0.4838720000000 1.0
C      1  0.4318070000000  0.4688340000000  0.4838720000000 1.0
C      1  0.4796980000000  0.5559260000000  0.5162250000000 1.0
C      1  0.5203020000000  0.4440740000000  0.5162250000000 1.0
C      1  0.4796980000000  0.5559260000000  0.4837750000000 1.0
C      1  0.5203020000000  0.4440740000000  0.4837750000000 1.0
C      1  0.5190810000000  0.4796540000000  0.4834620000000 1.0
C      1  0.4809190000000  0.5203460000000  0.4834620000000 1.0
C      1  0.5190810000000  0.4796540000000  0.5165380000000 1.0
C      1  0.4809190000000  0.5203460000000  0.5165380000000 1.0
C      1  0.5265540000000  0.5563250000000  0.4657520000000 1.0
C      1  0.4734460000000  0.4436750000000  0.4657520000000 1.0
C      1  0.5265540000000  0.5563250000000  0.5342480000000 1.0
C      1  0.4734460000000  0.4436750000000  0.5342480000000 1.0
C      1  0.5035040000000  0.4851710000000  0.5626110000000 1.0
C      1  0.4964960000000  0.5148290000000  0.5626110000000 1.0
C      1  0.5035040000000  0.4851710000000  0.4373890000000 1.0
C      1  0.4964960000000  0.5148290000000  0.4373890000000 1.0
END
