TITL C-3985259-1859-1126 -0.000665847963170083 125000 -339.070341532254 0 0 60 (C2) n - 1
REM
REM in /home/nfs/bkarasulu/CARBON/AIRSS/Generating-Clusters/TERSOFF/Higher-Symm/Only-C60
REM
REM
REM
REM
REM
REM ./C.cell (28575a23ae977d3b5fae324c64b13b57)
REM
REM compiler GCC version 9.2.1 20190827 (Red Hat 9.2.1-1)
REM options -cpp -mtune=generic -march=x86-64 -g -O0 -fpre-include=/usr/include/finclude/math-vector-fortran.h
REM seed 1625945905 -790775969 -224540320 -661253434 1953025558 1022942551 1784976401 475543576 698051857 107592585 1861854410 -2005889880 712383485 400671919 1262151520 1068120289 1598860711 -746290297 1349255438 1865069651 995040354 -472662520 816368612 -1111238799 1453943835 -1985390271 -1359802694 279671017 -1915034219 1267197085 1064729989 -381741920 -227848218
REM
CELL 1.54180   50.00000   50.00000   50.00000   90.00000   90.00000   90.00000
LATT -1
SFAC C  
C      1  0.4410970000000  0.5315350000000  0.5205030000000 1.0
C      1  0.5589030000000  0.5315350000000  0.4794970000000 1.0
C      1  0.5530770000000  0.4855620000000  0.4591410000000 1.0
C      1  0.4469240000000  0.4855620000000  0.5408590000000 1.0
C      1  0.4692370000000  0.4526780000000  0.5110510000000 1.0
C      1  0.5307610000000  0.4526810000000  0.4889500000000 1.0
C      1  0.5433780000000  0.5594110000000  0.5211760000000 1.0
C      1  0.4566220000000  0.5594110000000  0.4788240000000 1.0
C      1  0.4630300000000  0.4880130000000  0.4431020000000 1.0
C      1  0.5369730000000  0.4880130000000  0.5568990000000 1.0
C      1  0.4993630000000  0.5226990000000  0.4766060000000 1.0
C      1  0.5006380000000  0.5227020000000  0.5233960000000 1.0
C      1  0.5063420000000  0.4347310000000  0.4874140000000 1.0
C      1  0.4936590000000  0.4347310000000  0.5125860000000 1.0
C      1  0.4784080000000  0.5287630000000  0.5599260000000 1.0
C      1  0.5215920000000  0.5287630000000  0.4400750000000 1.0
C      1  0.4967650000000  0.4656990000000  0.5776750000000 1.0
C      1  0.5032360000000  0.4656980000000  0.4223240000000 1.0
C      1  0.4460080000000  0.4620490000000  0.4914650000000 1.0
C      1  0.5539920000000  0.4620490000000  0.5085350000000 1.0
C      1  0.4892380000000  0.4416300000000  0.4620550000000 1.0
C      1  0.5107630000000  0.4416300000000  0.5379450000000 1.0
C      1  0.4535040000000  0.5167390000000  0.5447840000000 1.0
C      1  0.5464970000000  0.5167380000000  0.4552170000000 1.0
C      1  0.5078210000000  0.4900150000000  0.5673300000000 1.0
C      1  0.4921800000000  0.4900150000000  0.4326690000000 1.0
C      1  0.5326530000000  0.4998630000000  0.5054910000000 1.0
C      1  0.4673510000000  0.4998680000000  0.4945110000000 1.0
C      1  0.4983840000000  0.5456340000000  0.5434400000000 1.0
C      1  0.5016160000000  0.5456330000000  0.4565600000000 1.0
C      1  0.5389960000000  0.4616090000000  0.5378380000000 1.0
C      1  0.4610040000000  0.4616080000000  0.4621610000000 1.0
C      1  0.5564740000000  0.5033520000000  0.5222980000000 1.0
C      1  0.4435220000000  0.5033520000000  0.4776990000000 1.0
C      1  0.5066070000000  0.5127760000000  0.4216610000000 1.0
C      1  0.4933940000000  0.5127780000000  0.5783390000000 1.0
C      1  0.5208840000000  0.5256150000000  0.4981020000000 1.0
C      1  0.4791070000000  0.5256090000000  0.5018960000000 1.0
C      1  0.4253950000000  0.5215560000000  0.4337050000000 1.0
C      1  0.5746070000000  0.5215560000000  0.5662910000000 1.0
C      1  0.4648340000000  0.4604170000000  0.5393430000000 1.0
C      1  0.5351660000000  0.4604190000000  0.4606580000000 1.0
C      1  0.5122300000000  0.4497710000000  0.4435920000000 1.0
C      1  0.4877710000000  0.4497700000000  0.5564070000000 1.0
C      1  0.5507860000000  0.5160230000000  0.5496980000000 1.0
C      1  0.4492150000000  0.5160220000000  0.4503000000000 1.0
C      1  0.5680200000000  0.4836760000000  0.4870680000000 1.0
C      1  0.4319810000000  0.4836770000000  0.5129320000000 1.0
C      1  0.4254630000000  0.5121850000000  0.5016520000000 1.0
C      1  0.5745370000000  0.5121840000000  0.4983490000000 1.0
C      1  0.5386780000000  0.5502100000000  0.4935210000000 1.0
C      1  0.4613220000000  0.5502120000000  0.5064800000000 1.0
C      1  0.4866290000000  0.4758390000000  0.4920720000000 1.0
C      1  0.5133690000000  0.4758400000000  0.5079290000000 1.0
C      1  0.5192250000000  0.5638590000000  0.4740720000000 1.0
C      1  0.4807750000000  0.5638600000000  0.5259290000000 1.0
C      1  0.5324130000000  0.5435480000000  0.5436780000000 1.0
C      1  0.4675860000000  0.5435470000000  0.4563230000000 1.0
C      1  0.5023570000000  0.4945400000000  0.5340940000000 1.0
C      1  0.4976370000000  0.4945400000000  0.4659060000000 1.0
END
