TITL C-3985251-913-696 0.00747042673732934 125000 -271.39602152745 0 0 60 (C6h) n - 1
REM
REM in /home/nfs/bkarasulu/CARBON/AIRSS/Generating-Clusters/TERSOFF/Higher-Symm/Only-C60
REM
REM
REM
REM
REM
REM ./C.cell (28575a23ae977d3b5fae324c64b13b57)
REM
REM compiler GCC version 9.2.1 20190827 (Red Hat 9.2.1-1)
REM options -cpp -mtune=generic -march=x86-64 -g -O0 -fpre-include=/usr/include/finclude/math-vector-fortran.h
REM seed 1185362162 -1584854425 1658179104 935884278 -236153113 -1756426175 1288195681 1467471571 380569727 -1342907314 -589673866 -1753666364 -1519481575 -1904202024 -1005275955 -1617555889 -1578313874 -1412448695 1206891986 -775360880 1262086217 -1318402653 500100343 -1098219708 -2021925642 -1421779402 -1690141996 -1677546965 -192550750 -168446176 1913595292 1414605302 674795271
REM
CELL 1.54180   50.00000   50.00000   50.00000   90.00000   90.00000   90.00000
LATT -1
SFAC C  
C      1  0.5130500000000  0.5564970000000  0.5445370000000 1.0
C      1  0.4576030000000  0.5395540000000  0.5445410000000 1.0
C      1  0.4444970000000  0.4830860000000  0.5445740000000 1.0
C      1  0.4869510000000  0.4435050000000  0.5445360000000 1.0
C      1  0.5423980000000  0.4604580000000  0.5445360000000 1.0
C      1  0.5554940000000  0.5169170000000  0.5445660000000 1.0
C      1  0.5130470000000  0.5564880000000  0.4554700000000 1.0
C      1  0.4576030000000  0.5395540000000  0.4554560000000 1.0
C      1  0.4445040000000  0.4830860000000  0.4554300000000 1.0
C      1  0.4869530000000  0.4435070000000  0.4554630000000 1.0
C      1  0.5423980000000  0.4604470000000  0.4554570000000 1.0
C      1  0.5555020000000  0.5169150000000  0.4554260000000 1.0
C      1  0.4973920000000  0.5621560000000  0.4819920000000 1.0
C      1  0.4448550000000  0.5288320000000  0.4819910000000 1.0
C      1  0.4475090000000  0.4666670000000  0.4819850000000 1.0
C      1  0.5026040000000  0.4378420000000  0.4819910000000 1.0
C      1  0.5551440000000  0.4711700000000  0.4819940000000 1.0
C      1  0.5524900000000  0.5333310000000  0.4819850000000 1.0
C      1  0.4974010000000  0.5621610000000  0.5180080000000 1.0
C      1  0.4448530000000  0.5288290000000  0.5180060000000 1.0
C      1  0.4475110000000  0.4666670000000  0.5180160000000 1.0
C      1  0.5026030000000  0.4378420000000  0.5180070000000 1.0
C      1  0.5551440000000  0.4711660000000  0.5180100000000 1.0
C      1  0.5524860000000  0.5333300000000  0.5180190000000 1.0
C      1  0.5279800000000  0.4876430000000  0.4840200000000 1.0
C      1  0.5247650000000  0.5180970000000  0.4840120000000 1.0
C      1  0.4966100000000  0.5304520000000  0.4840230000000 1.0
C      1  0.4720220000000  0.5123600000000  0.4840200000000 1.0
C      1  0.4752340000000  0.4818990000000  0.4840200000000 1.0
C      1  0.5033840000000  0.4695470000000  0.4840160000000 1.0
C      1  0.5279830000000  0.4876380000000  0.5159830000000 1.0
C      1  0.5247730000000  0.5181010000000  0.5159760000000 1.0
C      1  0.4966060000000  0.5304480000000  0.5159970000000 1.0
C      1  0.4720210000000  0.5123610000000  0.5159750000000 1.0
C      1  0.4752350000000  0.4818980000000  0.5159770000000 1.0
C      1  0.5033840000000  0.4695510000000  0.5159900000000 1.0
C      1  0.4682220000000  0.4910790000000  0.5627020000000 1.0
C      1  0.4918100000000  0.4680100000000  0.5627340000000 1.0
C      1  0.5236150000000  0.4769010000000  0.5627350000000 1.0
C      1  0.5317810000000  0.5089200000000  0.5627030000000 1.0
C      1  0.5081940000000  0.5319930000000  0.5627370000000 1.0
C      1  0.4763850000000  0.5230920000000  0.5627290000000 1.0
C      1  0.4682210000000  0.4910800000000  0.4372970000000 1.0
C      1  0.4918100000000  0.4680110000000  0.4372650000000 1.0
C      1  0.5236160000000  0.4769090000000  0.4372680000000 1.0
C      1  0.5317790000000  0.5089210000000  0.4372960000000 1.0
C      1  0.5081910000000  0.5319890000000  0.4372650000000 1.0
C      1  0.4763850000000  0.5230930000000  0.4372670000000 1.0
C      1  0.5305850000000  0.4678950000000  0.4090340000000 1.0
C      1  0.5431080000000  0.5104390000000  0.4090280000000 1.0
C      1  0.5125240000000  0.5425440000000  0.4090410000000 1.0
C      1  0.4694140000000  0.5321060000000  0.4090330000000 1.0
C      1  0.4568930000000  0.4895610000000  0.4090290000000 1.0
C      1  0.4874760000000  0.4574570000000  0.4090400000000 1.0
C      1  0.5305840000000  0.4678950000000  0.5909660000000 1.0
C      1  0.5431060000000  0.5104390000000  0.5909710000000 1.0
C      1  0.5125240000000  0.5425440000000  0.5909600000000 1.0
C      1  0.4694150000000  0.5321060000000  0.5909650000000 1.0
C      1  0.4568940000000  0.4895610000000  0.5909710000000 1.0
C      1  0.4874760000000  0.4574560000000  0.5909600000000 1.0
END
