TITL C-3985244-725-512 1.32518874988226e-07 125000 -306.904125879932 0 0 60 (C3i) n - 1
REM
REM in /home/nfs/bkarasulu/CARBON/AIRSS/Generating-Clusters/TERSOFF/Higher-Symm/Only-C60
REM
REM
REM
REM
REM
REM ./C.cell (28575a23ae977d3b5fae324c64b13b57)
REM
REM compiler GCC version 9.2.1 20190827 (Red Hat 9.2.1-1)
REM options -cpp -mtune=generic -march=x86-64 -g -O0 -fpre-include=/usr/include/finclude/math-vector-fortran.h
REM seed -2105220298 660747112 530281730 -1698929004 -661612846 -878107319 899707060 -1972033455 78394204 1908175290 317483691 -1801136241 -137453977 1969907293 -906517224 1594580884 -1633149756 -1674788127 -999777676 -942405909 1701490018 -1927330024 719935283 -742967026 57018267 399249258 -99381598 59173194 -1723815748 1817611881 -576955728 -2021281472 -347791140
REM
CELL 1.54180   50.00000   50.00000   50.00000   90.00000   90.00000   90.00000
LATT -1
SFAC C  
C      1  0.4761990000000  0.5168520000000  0.5879860000000 1.0
C      1  0.4119010000000  0.4831500000000  0.5233810000000 1.0
C      1  0.4357020000000  0.5168530000000  0.4353940000000 1.0
C      1  0.5238010000000  0.4831480000000  0.4120140000000 1.0
C      1  0.5880990000000  0.5168500000000  0.4766190000000 1.0
C      1  0.5642980000000  0.4831470000000  0.5646060000000 1.0
C      1  0.4292180000000  0.4721980000000  0.5029680000000 1.0
C      1  0.4620390000000  0.5278030000000  0.4401860000000 1.0
C      1  0.5328200000000  0.4721970000000  0.4372170000000 1.0
C      1  0.5707820000000  0.5278020000000  0.4970320000000 1.0
C      1  0.5379610000000  0.4721970000000  0.5598140000000 1.0
C      1  0.4671800000000  0.5278030000000  0.5627830000000 1.0
C      1  0.5195760000000  0.4831230000000  0.4626030000000 1.0
C      1  0.5421750000000  0.5168760000000  0.4982550000000 1.0
C      1  0.5225980000000  0.4831230000000  0.5356520000000 1.0
C      1  0.4804240000000  0.5168770000000  0.5373970000000 1.0
C      1  0.4578250000000  0.4831240000000  0.5017450000000 1.0
C      1  0.4774020000000  0.5168770000000  0.4643480000000 1.0
C      1  0.4420120000000  0.5563310000000  0.4912020000000 1.0
C      1  0.4786240000000  0.4436710000000  0.4453810000000 1.0
C      1  0.5366150000000  0.5563290000000  0.4541800000000 1.0
C      1  0.5579880000000  0.4436690000000  0.5087980000000 1.0
C      1  0.5213760000000  0.5563290000000  0.5546190000000 1.0
C      1  0.4633850000000  0.4436710000000  0.5458200000000 1.0
C      1  0.5097250000000  0.4610070000000  0.4815530000000 1.0
C      1  0.5208390000000  0.5389930000000  0.4991990000000 1.0
C      1  0.5111120000000  0.4610070000000  0.5176460000000 1.0
C      1  0.4902750000000  0.5389930000000  0.5184470000000 1.0
C      1  0.4791610000000  0.4610070000000  0.5008010000000 1.0
C      1  0.4888880000000  0.5389930000000  0.4823540000000 1.0
C      1  0.5276680000000  0.5205650000000  0.5929900000000 1.0
C      1  0.4333020000000  0.4794360000000  0.5704560000000 1.0
C      1  0.4056350000000  0.5205670000000  0.4774660000000 1.0
C      1  0.4723320000000  0.4794350000000  0.4070100000000 1.0
C      1  0.5666980000000  0.5205640000000  0.4295440000000 1.0
C      1  0.5943650000000  0.4794330000000  0.5225340000000 1.0
C      1  0.5306440000000  0.4378600000000  0.5155350000000 1.0
C      1  0.5018700000000  0.5621390000000  0.5343060000000 1.0
C      1  0.4712230000000  0.4378610000000  0.5187710000000 1.0
C      1  0.4693560000000  0.5621400000000  0.4844650000000 1.0
C      1  0.4981300000000  0.4378610000000  0.4656940000000 1.0
C      1  0.5287770000000  0.5621390000000  0.4812290000000 1.0
C      1  0.5260710000000  0.5289560000000  0.5630310000000 1.0
C      1  0.4584480000000  0.4710440000000  0.5540930000000 1.0
C      1  0.4323780000000  0.5289580000000  0.4910620000000 1.0
C      1  0.4739290000000  0.4710440000000  0.4369690000000 1.0
C      1  0.5415520000000  0.5289560000000  0.4459070000000 1.0
C      1  0.5676220000000  0.4710420000000  0.5089380000000 1.0
C      1  0.4597610000000  0.4951520000000  0.5308680000000 1.0
C      1  0.4531480000000  0.5048490000000  0.4805870000000 1.0
C      1  0.4933870000000  0.4951520000000  0.4497180000000 1.0
C      1  0.5402390000000  0.5048480000000  0.4691320000000 1.0
C      1  0.5468520000000  0.4951510000000  0.5194130000000 1.0
C      1  0.5066130000000  0.5048480000000  0.5502820000000 1.0
C      1  0.5754660000000  0.4971400000000  0.5408500000000 1.0
C      1  0.5023560000000  0.5028580000000  0.5857800000000 1.0
C      1  0.4268900000000  0.4971420000000  0.5449300000000 1.0
C      1  0.4245340000000  0.5028600000000  0.4591500000000 1.0
C      1  0.4976440000000  0.4971420000000  0.4142200000000 1.0
C      1  0.5731100000000  0.5028580000000  0.4550700000000 1.0
END
