TITL C-3985251-913-341 0.000655764570245028 125000 -306.277546082772 0 0 60 (C1) n - 1
REM
REM in /home/nfs/bkarasulu/CARBON/AIRSS/Generating-Clusters/TERSOFF/Higher-Symm/Only-C60
REM
REM
REM
REM
REM
REM ./C.cell (28575a23ae977d3b5fae324c64b13b57)
REM
REM compiler GCC version 9.2.1 20190827 (Red Hat 9.2.1-1)
REM options -cpp -mtune=generic -march=x86-64 -g -O0 -fpre-include=/usr/include/finclude/math-vector-fortran.h
REM seed 863483074 -370412408 1254475678 -1892958451 1493996746 762009147 -277514531 117079970 632954287 505551246 13113452 422842896 1158207241 -1566718542 -1122011485 362257436 56037738 -739857362 376603057 706679605 68046944 -1021347787 1165762771 -1625063262 -799781257 110182741 -2036773254 -1711153445 713440547 520022582 1908643886 1939865067 44994372
REM
CELL 1.54180   50.00000   50.00000   50.00000   90.00000   90.00000   90.00000
LATT -1
SFAC C  
C      1  0.4331350000000  0.4585060000000  0.5137400000000 1.0
C      1  0.4818300000000  0.4619230000000  0.5524430000000 1.0
C      1  0.5271930000000  0.4642880000000  0.5743350000000 1.0
C      1  0.5759660000000  0.4639540000000  0.5136990000000 1.0
C      1  0.5493150000000  0.4618870000000  0.4724840000000 1.0
C      1  0.5040290000000  0.4621770000000  0.4306150000000 1.0
C      1  0.4494170000000  0.4614540000000  0.4543760000000 1.0
C      1  0.4981230000000  0.5046680000000  0.5374070000000 1.0
C      1  0.5252970000000  0.5104210000000  0.5247800000000 1.0
C      1  0.5345250000000  0.5117550000000  0.4941540000000 1.0
C      1  0.5154720000000  0.5070440000000  0.4665450000000 1.0
C      1  0.4838600000000  0.5001770000000  0.4648140000000 1.0
C      1  0.4622920000000  0.4965570000000  0.4904630000000 1.0
C      1  0.4695240000000  0.4984190000000  0.5236860000000 1.0
C      1  0.4754790000000  0.5539610000000  0.5215770000000 1.0
C      1  0.5019380000000  0.5543230000000  0.5356330000000 1.0
C      1  0.5271760000000  0.5434490000000  0.5237090000000 1.0
C      1  0.5357630000000  0.5465270000000  0.4942160000000 1.0
C      1  0.5172180000000  0.5415500000000  0.4702310000000 1.0
C      1  0.4896150000000  0.5533320000000  0.4685060000000 1.0
C      1  0.4698480000000  0.5549460000000  0.4916110000000 1.0
C      1  0.5317620000000  0.4895190000000  0.4462280000000 1.0
C      1  0.4737350000000  0.4905660000000  0.4365550000000 1.0
C      1  0.4338530000000  0.4873870000000  0.4834130000000 1.0
C      1  0.4486110000000  0.4853340000000  0.5420180000000 1.0
C      1  0.5015300000000  0.4964810000000  0.5658310000000 1.0
C      1  0.5444230000000  0.4902040000000  0.5374830000000 1.0
C      1  0.5594980000000  0.4973040000000  0.4926190000000 1.0
C      1  0.5056450000000  0.4947590000000  0.4221940000000 1.0
C      1  0.4409950000000  0.4951910000000  0.4501240000000 1.0
C      1  0.4252910000000  0.4935620000000  0.5162750000000 1.0
C      1  0.4692840000000  0.4908640000000  0.5696270000000 1.0
C      1  0.5354720000000  0.4944280000000  0.5706890000000 1.0
C      1  0.5742650000000  0.4939990000000  0.5221510000000 1.0
C      1  0.5643090000000  0.4904700000000  0.4616470000000 1.0
C      1  0.4703250000000  0.5242370000000  0.5619450000000 1.0
C      1  0.5312010000000  0.5261090000000  0.5641920000000 1.0
C      1  0.5713180000000  0.5265240000000  0.5203340000000 1.0
C      1  0.5603170000000  0.5240530000000  0.4602940000000 1.0
C      1  0.5049340000000  0.5253740000000  0.4303020000000 1.0
C      1  0.4506610000000  0.5247750000000  0.4573100000000 1.0
C      1  0.4372940000000  0.5233970000000  0.5136300000000 1.0
C      1  0.4460120000000  0.5366650000000  0.4858650000000 1.0
C      1  0.4556580000000  0.5360260000000  0.5360630000000 1.0
C      1  0.5005640000000  0.5384140000000  0.5622030000000 1.0
C      1  0.5519080000000  0.5391380000000  0.5426530000000 1.0
C      1  0.5664220000000  0.5386820000000  0.4896040000000 1.0
C      1  0.5339860000000  0.5365110000000  0.4431170000000 1.0
C      1  0.4781740000000  0.5374340000000  0.4447290000000 1.0
C      1  0.5300170000000  0.4637200000000  0.5258820000000 1.0
C      1  0.5504560000000  0.4532750000000  0.5021150000000 1.0
C      1  0.5261580000000  0.4546420000000  0.4519110000000 1.0
C      1  0.4736370000000  0.4554300000000  0.4352740000000 1.0
C      1  0.4513790000000  0.4563810000000  0.4854750000000 1.0
C      1  0.4634400000000  0.4570140000000  0.5278830000000 1.0
C      1  0.5113890000000  0.4548610000000  0.5510950000000 1.0
C      1  0.5018060000000  0.4861240000000  0.4999920000000 1.0
C      1  0.4824550000000  0.4598650000000  0.5011880000000 1.0
C      1  0.4982420000000  0.4348540000000  0.4974470000000 1.0
C      1  0.4943250000000  0.5217980000000  0.4992670000000 1.0
END
