TITL C-3985248-2097-109 -0.000337015539748162 125000 -304.405047652285 0 0 60 (C1) n - 1
REM
REM in /home/nfs/bkarasulu/CARBON/AIRSS/Generating-Clusters/TERSOFF/Higher-Symm/Only-C60
REM
REM
REM
REM
REM
REM ./C.cell (28575a23ae977d3b5fae324c64b13b57)
REM
REM compiler GCC version 9.2.1 20190827 (Red Hat 9.2.1-1)
REM options -cpp -mtune=generic -march=x86-64 -g -O0 -fpre-include=/usr/include/finclude/math-vector-fortran.h
REM seed 695514387 1736272550 -1728399105 -1452095470 -508919829 1255654373 336144280 928756650 510415718 630050244 1565395260 1950635309 1570642901 -1848909346 -2093796555 -837670638 -965211208 -35037440 -2041099000 -980050298 -1608736782 -2116787359 243966980 -1536314391 849000404 552391236 -293119552 -415398888 -1754022506 -361646681 655362559 1935092936 1604053537
REM
CELL 1.54180   50.00000   50.00000   50.00000   90.00000   90.00000   90.00000
LATT -1
SFAC C  
C      1  0.5257460000000  0.5204030000000  0.5555460000000 1.0
C      1  0.5257790000000  0.5380320000000  0.4545450000000 1.0
C      1  0.5256470000000  0.4417320000000  0.4897990000000 1.0
C      1  0.4774940000000  0.4911000000000  0.4833410000000 1.0
C      1  0.4774970000000  0.4900050000000  0.5159690000000 1.0
C      1  0.4775310000000  0.5188260000000  0.5006540000000 1.0
C      1  0.5155590000000  0.4689390000000  0.5665780000000 1.0
C      1  0.5156960000000  0.5731430000000  0.4936900000000 1.0
C      1  0.5156040000000  0.4579530000000  0.4397970000000 1.0
C      1  0.4723290000000  0.4431740000000  0.5327860000000 1.0
C      1  0.4723620000000  0.5568370000000  0.5328360000000 1.0
C      1  0.4723440000000  0.5001510000000  0.4343930000000 1.0
C      1  0.4986610000000  0.5652180000000  0.5193250000000 1.0
C      1  0.4986870000000  0.4842880000000  0.4339480000000 1.0
C      1  0.4987530000000  0.4506540000000  0.5467500000000 1.0
C      1  0.4492430000000  0.4558680000000  0.5454400000000 1.0
C      1  0.4492860000000  0.5614230000000  0.5155660000000 1.0
C      1  0.4492120000000  0.4828960000000  0.4389590000000 1.0
C      1  0.5021020000000  0.5354370000000  0.5060360000000 1.0
C      1  0.5021780000000  0.4876000000000  0.4662700000000 1.0
C      1  0.5019640000000  0.4771460000000  0.5277560000000 1.0
C      1  0.5286260000000  0.5374510000000  0.5288930000000 1.0
C      1  0.5284290000000  0.5063530000000  0.4530720000000 1.0
C      1  0.5285710000000  0.4561740000000  0.5179770000000 1.0
C      1  0.4302000000000  0.4747580000000  0.4999200000000 1.0
C      1  0.4305410000000  0.5126480000000  0.5208370000000 1.0
C      1  0.4305870000000  0.5117780000000  0.4788370000000 1.0
C      1  0.5258070000000  0.4956530000000  0.5318460000000 1.0
C      1  0.5260210000000  0.5298330000000  0.4877360000000 1.0
C      1  0.5260730000000  0.4743980000000  0.4802670000000 1.0
C      1  0.4515230000000  0.4953030000000  0.5309760000000 1.0
C      1  0.4517300000000  0.5292470000000  0.4886100000000 1.0
C      1  0.4515780000000  0.4755170000000  0.4802450000000 1.0
C      1  0.5471320000000  0.4731620000000  0.5608010000000 1.0
C      1  0.5470610000000  0.5657500000000  0.4928020000000 1.0
C      1  0.5470390000000  0.4608690000000  0.4465850000000 1.0
C      1  0.4738260000000  0.4308080000000  0.5032150000000 1.0
C      1  0.4737940000000  0.5373860000000  0.5582970000000 1.0
C      1  0.4738030000000  0.5318320000000  0.4384970000000 1.0
C      1  0.5542410000000  0.4882860000000  0.4691010000000 1.0
C      1  0.5542990000000  0.4791560000000  0.5256450000000 1.0
C      1  0.5543670000000  0.5325720000000  0.5052840000000 1.0
C      1  0.5039180000000  0.4970710000000  0.5676100000000 1.0
C      1  0.5037760000000  0.5599760000000  0.4687960000000 1.0
C      1  0.5038820000000  0.4428660000000  0.4636550000000 1.0
C      1  0.4744570000000  0.5539390000000  0.4633290000000 1.0
C      1  0.4743030000000  0.4413550000000  0.4714240000000 1.0
C      1  0.4748800000000  0.5050090000000  0.5658120000000 1.0
C      1  0.5031310000000  0.5390570000000  0.5675230000000 1.0
C      1  0.5031760000000  0.5389450000000  0.4324530000000 1.0
C      1  0.5031400000000  0.4220390000000  0.5001240000000 1.0
C      1  0.5490420000000  0.5573170000000  0.4633540000000 1.0
C      1  0.5490030000000  0.4396480000000  0.4686890000000 1.0
C      1  0.5490390000000  0.5030440000000  0.5680010000000 1.0
C      1  0.4506390000000  0.4842610000000  0.5582000000000 1.0
C      1  0.4506270000000  0.5583270000000  0.4845880000000 1.0
C      1  0.4507270000000  0.4573670000000  0.4570870000000 1.0
C      1  0.5658480000000  0.5096420000000  0.5242440000000 1.0
C      1  0.5657590000000  0.5162790000000  0.4795960000000 1.0
C      1  0.5657320000000  0.4740970000000  0.4960890000000 1.0
END
