TITL C-3985244-725-672 -5.47204354688314e-07 125000 -304.340530053069 0 0 60 (C2) n - 1
REM
REM in /home/nfs/bkarasulu/CARBON/AIRSS/Generating-Clusters/TERSOFF/Higher-Symm/Only-C60
REM
REM
REM
REM
REM
REM ./C.cell (28575a23ae977d3b5fae324c64b13b57)
REM
REM compiler GCC version 9.2.1 20190827 (Red Hat 9.2.1-1)
REM options -cpp -mtune=generic -march=x86-64 -g -O0 -fpre-include=/usr/include/finclude/math-vector-fortran.h
REM seed 207367615 999725182 856045829 456048861 90235631 60961015 1214904906 81401643 -808081845 -1948940093 636636374 -1582670983 -1516364572 1638713339 -1046364614 855411951 1955279030 1191140225 1961381497 1260794522 94861610 1475627349 998401176 379044297 1788945454 -1370533639 -11986493 -1693568872 -1718103824 -1756286533 196246116 -1030422970 -1396735999
REM
CELL 1.54180   50.00000   50.00000   50.00000   90.00000   90.00000   90.00000
LATT -1
SFAC C  
C      1  0.5079180000000  0.5742920000000  0.4779840000000 1.0
C      1  0.4920820000000  0.4257080000000  0.4779840000000 1.0
C      1  0.4374800000000  0.4905480000000  0.4972130000000 1.0
C      1  0.5625200000000  0.5094520000000  0.4972130000000 1.0
C      1  0.4738140000000  0.4690380000000  0.5553160000000 1.0
C      1  0.5261860000000  0.5309620000000  0.5553160000000 1.0
C      1  0.4516120000000  0.5156170000000  0.4937640000000 1.0
C      1  0.5483880000000  0.4843830000000  0.4937640000000 1.0
C      1  0.4962320000000  0.5490400000000  0.5445190000000 1.0
C      1  0.5037680000000  0.4509600000000  0.5445190000000 1.0
C      1  0.5040930000000  0.5631260000000  0.5121670000000 1.0
C      1  0.4959070000000  0.4368740000000  0.5121670000000 1.0
C      1  0.5038960000000  0.4843970000000  0.4266410000000 1.0
C      1  0.4961040000000  0.5156030000000  0.4266410000000 1.0
C      1  0.4467120000000  0.4898240000000  0.5495270000000 1.0
C      1  0.5532880000000  0.5101760000000  0.5495270000000 1.0
C      1  0.5141000000000  0.5083340000000  0.5067120000000 1.0
C      1  0.4859000000000  0.4916660000000  0.5067120000000 1.0
C      1  0.5268440000000  0.5297130000000  0.5234250000000 1.0
C      1  0.4731560000000  0.4702870000000  0.5234250000000 1.0
C      1  0.4570610000000  0.4521570000000  0.5086610000000 1.0
C      1  0.5429390000000  0.5478430000000  0.5086610000000 1.0
C      1  0.4820110000000  0.4984620000000  0.5705670000000 1.0
C      1  0.5179890000000  0.5015380000000  0.5705670000000 1.0
C      1  0.4780000000000  0.5185020000000  0.4693050000000 1.0
C      1  0.5220000000000  0.4814980000000  0.4693050000000 1.0
C      1  0.5144350000000  0.5166800000000  0.4747290000000 1.0
C      1  0.4855650000000  0.4833200000000  0.4747290000000 1.0
C      1  0.5095990000000  0.4856060000000  0.5416800000000 1.0
C      1  0.4904010000000  0.5143940000000  0.5416800000000 1.0
C      1  0.5255590000000  0.4810220000000  0.5154910000000 1.0
C      1  0.4744410000000  0.5189780000000  0.5154910000000 1.0
C      1  0.5179690000000  0.4555620000000  0.5020730000000 1.0
C      1  0.4820310000000  0.5444380000000  0.5020730000000 1.0
C      1  0.4543700000000  0.5186470000000  0.5627210000000 1.0
C      1  0.5456300000000  0.4813530000000  0.5627210000000 1.0
C      1  0.5710760000000  0.5136600000000  0.5256450000000 1.0
C      1  0.4289240000000  0.4863400000000  0.5256450000000 1.0
C      1  0.5409810000000  0.5128540000000  0.4360530000000 1.0
C      1  0.4590190000000  0.4871460000000  0.4360530000000 1.0
C      1  0.5386280000000  0.4558820000000  0.5473980000000 1.0
C      1  0.4613720000000  0.5441180000000  0.5473980000000 1.0
C      1  0.5202250000000  0.4240810000000  0.4689030000000 1.0
C      1  0.4797750000000  0.5759190000000  0.4689030000000 1.0
C      1  0.4401780000000  0.5453240000000  0.4988700000000 1.0
C      1  0.5598220000000  0.4546760000000  0.4988700000000 1.0
C      1  0.5347730000000  0.4484380000000  0.4770070000000 1.0
C      1  0.4652270000000  0.5515620000000  0.4770070000000 1.0
C      1  0.5260720000000  0.5613030000000  0.4563220000000 1.0
C      1  0.4739280000000  0.4386970000000  0.4563220000000 1.0
C      1  0.5464300000000  0.5321670000000  0.4834280000000 1.0
C      1  0.4535700000000  0.4678330000000  0.4834290000000 1.0
C      1  0.5182540000000  0.5324700000000  0.4438980000000 1.0
C      1  0.4817460000000  0.4675300000000  0.4438980000000 1.0
C      1  0.4691410000000  0.5149020000000  0.4396440000000 1.0
C      1  0.5308590000000  0.4850980000000  0.4396440000000 1.0
C      1  0.4456220000000  0.4468040000000  0.4634210000000 1.0
C      1  0.5543780000000  0.5531960000000  0.4634210000000 1.0
C      1  0.4425700000000  0.5552360000000  0.5269140000000 1.0
C      1  0.5574300000000  0.4447640000000  0.5269140000000 1.0
END
