TITL C-3985252-168-159 -0.000222795460141252 125000 -357.890119712397 0 0 60 (Cs) n - 1
REM
REM in /home/nfs/bkarasulu/CARBON/AIRSS/Generating-Clusters/TERSOFF/Higher-Symm/Only-C60
REM
REM
REM
REM
REM
REM ./C.cell (28575a23ae977d3b5fae324c64b13b57)
REM
REM compiler GCC version 9.2.1 20190827 (Red Hat 9.2.1-1)
REM options -cpp -mtune=generic -march=x86-64 -g -O0 -fpre-include=/usr/include/finclude/math-vector-fortran.h
REM seed -180944866 191575454 1223843021 27979258 -31043695 1267402558 -947655019 -1948634577 1498888679 -101002291 87446269 -786779423 -1900764712 -1508540823 -1630365927 2124645254 1915053621 -636608039 -2028903956 -1892096642 -1254511096 -827221247 -1089108700 1124643533 -1562898559 -1278818130 -1230964279 -1043367513 -1293174478 367776704 -1256047922 -1412193242 951564684
REM
CELL 1.54180   50.00000   50.00000   50.00000   90.00000   90.00000   90.00000
LATT -1
SFAC C  
C      1  0.5625090000000  0.4605050000000  0.5304980000000 1.0
C      1  0.5616540000000  0.5165090000000  0.5499940000000 1.0
C      1  0.5603370000000  0.5525230000000  0.5000470000000 1.0
C      1  0.5605160000000  0.5150260000000  0.4509950000000 1.0
C      1  0.5618960000000  0.4588950000000  0.4723680000000 1.0
C      1  0.5625090000000  0.5394960000000  0.5304990000000 1.0
C      1  0.5616520000000  0.4834910000000  0.5499950000000 1.0
C      1  0.5603290000000  0.4474740000000  0.5000590000000 1.0
C      1  0.5605160000000  0.4849740000000  0.4509940000000 1.0
C      1  0.5618960000000  0.5411050000000  0.4723700000000 1.0
C      1  0.4620560000000  0.4847620000000  0.4306950000000 1.0
C      1  0.4618460000000  0.4313780000000  0.4927220000000 1.0
C      1  0.4618490000000  0.4709390000000  0.5644150000000 1.0
C      1  0.4628990000000  0.5555410000000  0.5484790000000 1.0
C      1  0.4626100000000  0.5626130000000  0.4626070000000 1.0
C      1  0.4620560000000  0.5152380000000  0.4306950000000 1.0
C      1  0.4618450000000  0.5686200000000  0.4927190000000 1.0
C      1  0.4618480000000  0.5290630000000  0.5644180000000 1.0
C      1  0.4628970000000  0.4444610000000  0.5484810000000 1.0
C      1  0.4626110000000  0.4373890000000  0.4626080000000 1.0
C      1  0.5376280000000  0.4715010000000  0.4337110000000 1.0
C      1  0.5372740000000  0.4270730000000  0.5064800000000 1.0
C      1  0.5373040000000  0.4846090000000  0.5704210000000 1.0
C      1  0.5382380000000  0.5607760000000  0.5348120000000 1.0
C      1  0.5382390000000  0.5520350000000  0.4531600000000 1.0
C      1  0.5376280000000  0.5284990000000  0.4337110000000 1.0
C      1  0.5372720000000  0.5729270000000  0.5064800000000 1.0
C      1  0.5373070000000  0.5153880000000  0.5704200000000 1.0
C      1  0.5382490000000  0.4392270000000  0.5348000000000 1.0
C      1  0.5382390000000  0.4479640000000  0.4531600000000 1.0
C      1  0.4870670000000  0.4290220000000  0.5072650000000 1.0
C      1  0.4868900000000  0.4851790000000  0.5692600000000 1.0
C      1  0.4878340000000  0.5632660000000  0.5357910000000 1.0
C      1  0.4877120000000  0.5539240000000  0.4506840000000 1.0
C      1  0.4872970000000  0.4704570000000  0.4338190000000 1.0
C      1  0.4870640000000  0.5709750000000  0.5072640000000 1.0
C      1  0.4868930000000  0.5148230000000  0.5692620000000 1.0
C      1  0.4878360000000  0.4367290000000  0.5357920000000 1.0
C      1  0.4877120000000  0.4460760000000  0.4506850000000 1.0
C      1  0.4872970000000  0.5295430000000  0.4338190000000 1.0
C      1  0.4370610000000  0.4849090000000  0.5493400000000 1.0
C      1  0.4394250000000  0.5427760000000  0.5316720000000 1.0
C      1  0.4397560000000  0.5418310000000  0.4691190000000 1.0
C      1  0.4388100000000  0.4830630000000  0.4526030000000 1.0
C      1  0.4381790000000  0.4519490000000  0.5020330000000 1.0
C      1  0.4370570000000  0.5150970000000  0.5493510000000 1.0
C      1  0.4394250000000  0.4572250000000  0.5316690000000 1.0
C      1  0.4397570000000  0.4581730000000  0.4691200000000 1.0
C      1  0.4388110000000  0.5169380000000  0.4526020000000 1.0
C      1  0.4381780000000  0.5480500000000  0.5020340000000 1.0
C      1  0.5130400000000  0.4467830000000  0.5475730000000 1.0
C      1  0.5124190000000  0.5294670000000  0.5651900000000 1.0
C      1  0.5122760000000  0.5722210000000  0.4917290000000 1.0
C      1  0.5124400000000  0.5148210000000  0.4286800000000 1.0
C      1  0.5129370000000  0.4377440000000  0.4638310000000 1.0
C      1  0.5130440000000  0.5532130000000  0.5475730000000 1.0
C      1  0.5124230000000  0.4705330000000  0.5651900000000 1.0
C      1  0.5122750000000  0.4277780000000  0.4917290000000 1.0
C      1  0.5124400000000  0.4851790000000  0.4286800000000 1.0
C      1  0.5129360000000  0.5622550000000  0.4638310000000 1.0
END
