TITL C-3985245-9316-313 0.00423422220768831 125000 -318.703959738194 0 0 60 (C1) n - 1
REM
REM in /home/nfs/bkarasulu/CARBON/AIRSS/Generating-Clusters/TERSOFF/Higher-Symm/Only-C60
REM
REM
REM
REM
REM
REM ./C.cell (28575a23ae977d3b5fae324c64b13b57)
REM
REM compiler GCC version 9.2.1 20190827 (Red Hat 9.2.1-1)
REM options -cpp -mtune=generic -march=x86-64 -g -O0 -fpre-include=/usr/include/finclude/math-vector-fortran.h
REM seed 85293778 -64999634 543796693 1320284674 748311292 -429663362 1062823728 1185733483 -1822414771 -643718143 844170146 -1990054448 -1557425861 1719150053 -1662674507 -831593943 -583443053 -80628431 697570057 734718423 1891266258 -782577336 489033183 -966498553 -873948570 541262347 424563504 -80362234 1447993259 1295034098 925275095 -2076003278 1768333054
REM
CELL 1.54180   50.00000   50.00000   50.00000   90.00000   90.00000   90.00000
LATT -1
SFAC C  
C      1  0.5292860000000  0.4966800000000  0.4495750000000 1.0
C      1  0.5196890000000  0.5193090000000  0.5655890000000 1.0
C      1  0.4937290000000  0.4331470000000  0.4901500000000 1.0
C      1  0.5743520000000  0.5043850000000  0.4731760000000 1.0
C      1  0.5717900000000  0.5046190000000  0.5361710000000 1.0
C      1  0.5340800000000  0.5425090000000  0.4637080000000 1.0
C      1  0.5146120000000  0.5235430000000  0.4987070000000 1.0
C      1  0.4918540000000  0.5324130000000  0.5734320000000 1.0
C      1  0.4789340000000  0.4755920000000  0.5157500000000 1.0
C      1  0.4936120000000  0.4628710000000  0.5528670000000 1.0
C      1  0.4306740000000  0.5068510000000  0.5497610000000 1.0
C      1  0.4712090000000  0.4534920000000  0.4463130000000 1.0
C      1  0.4950080000000  0.5590750000000  0.5603630000000 1.0
C      1  0.4809850000000  0.5561540000000  0.4917040000000 1.0
C      1  0.5380320000000  0.4374860000000  0.5131100000000 1.0
C      1  0.5258600000000  0.5195270000000  0.4274410000000 1.0
C      1  0.4401530000000  0.4981720000000  0.4439240000000 1.0
C      1  0.4734040000000  0.4562140000000  0.4765630000000 1.0
C      1  0.5044750000000  0.5411540000000  0.4339260000000 1.0
C      1  0.4392570000000  0.5285920000000  0.4793500000000 1.0
C      1  0.5202380000000  0.4477450000000  0.4514440000000 1.0
C      1  0.5102090000000  0.4941680000000  0.5482530000000 1.0
C      1  0.4373380000000  0.4702430000000  0.5152070000000 1.0
C      1  0.5508650000000  0.5477060000000  0.4883190000000 1.0
C      1  0.4773780000000  0.5043140000000  0.4988140000000 1.0
C      1  0.5188430000000  0.5001580000000  0.5172000000000 1.0
C      1  0.4607460000000  0.4679810000000  0.5398500000000 1.0
C      1  0.5232080000000  0.4750820000000  0.5016940000000 1.0
C      1  0.4834800000000  0.5235390000000  0.4516590000000 1.0
C      1  0.4693820000000  0.5309470000000  0.4781970000000 1.0
C      1  0.5523330000000  0.4588670000000  0.4762100000000 1.0
C      1  0.4965570000000  0.4814850000000  0.4779770000000 1.0
C      1  0.5060860000000  0.5690290000000  0.4810220000000 1.0
C      1  0.5142430000000  0.5597520000000  0.5349570000000 1.0
C      1  0.4836160000000  0.4766030000000  0.4318600000000 1.0
C      1  0.4456450000000  0.4671820000000  0.4861720000000 1.0
C      1  0.5140060000000  0.5183670000000  0.4677030000000 1.0
C      1  0.4416030000000  0.5287030000000  0.5302840000000 1.0
C      1  0.5211750000000  0.4411730000000  0.5442790000000 1.0
C      1  0.5161270000000  0.5647200000000  0.4518260000000 1.0
C      1  0.4563150000000  0.4928540000000  0.5575390000000 1.0
C      1  0.5690700000000  0.5253100000000  0.4929860000000 1.0
C      1  0.5577990000000  0.4789620000000  0.5336200000000 1.0
C      1  0.5344090000000  0.4720630000000  0.5498390000000 1.0
C      1  0.5338680000000  0.5384810000000  0.5478010000000 1.0
C      1  0.4687340000000  0.5013500000000  0.4378560000000 1.0
C      1  0.5087630000000  0.4749690000000  0.4489160000000 1.0
C      1  0.4247850000000  0.5236380000000  0.5044250000000 1.0
C      1  0.4806940000000  0.5105710000000  0.5527570000000 1.0
C      1  0.5549760000000  0.4634930000000  0.5071940000000 1.0
C      1  0.5540720000000  0.4858250000000  0.4624900000000 1.0
C      1  0.4719230000000  0.5247510000000  0.5268930000000 1.0
C      1  0.4848400000000  0.5506790000000  0.5205180000000 1.0
C      1  0.5589700000000  0.5310680000000  0.5345080000000 1.0
C      1  0.5003360000000  0.4571340000000  0.5118080000000 1.0
C      1  0.5256600000000  0.4344570000000  0.4792990000000 1.0
C      1  0.4981550000000  0.4257330000000  0.5254370000000 1.0
C      1  0.4198120000000  0.4939420000000  0.5214700000000 1.0
C      1  0.5234490000000  0.5536030000000  0.5043040000000 1.0
C      1  0.4293010000000  0.4815670000000  0.4658340000000 1.0
END
