TITL C-3985247-764-359 -5.99115204947008e-09 125000 -319.673489203574 0 0 60 (D4) n - 1
REM
REM in /home/nfs/bkarasulu/CARBON/AIRSS/Generating-Clusters/TERSOFF/Higher-Symm/Only-C60
REM
REM
REM
REM
REM
REM ./C.cell (28575a23ae977d3b5fae324c64b13b57)
REM
REM compiler GCC version 9.2.1 20190827 (Red Hat 9.2.1-1)
REM options -cpp -mtune=generic -march=x86-64 -g -O0 -fpre-include=/usr/include/finclude/math-vector-fortran.h
REM seed 2042987891 -854907471 -738858713 1206486068 -2113131601 -1154644846 -981786031 2080117561 202058678 -1910641621 1486438766 1755856769 346888376 -1824910393 1226188102 465139779 -928243982 519508341 -1132199021 1467661326 -465752000 -1759566865 2142314485 642789482 95180012 -2124180224 -180715305 828292175 1218624493 -1517422665 52906056 -59381608 1289710871
REM
CELL 1.54180   50.00000   50.00000   50.00000   90.00000   90.00000   90.00000
LATT -1
SFAC C  
C      1  0.4535820000000  0.5359180000000  0.5198610000000 1.0
C      1  0.4535820000000  0.4801390000000  0.5359180000000 1.0
C      1  0.4535820000000  0.4640820000000  0.4801390000000 1.0
C      1  0.4535820000000  0.5198610000000  0.4640820000000 1.0
C      1  0.5430950000000  0.4640820000000  0.5198610000000 1.0
C      1  0.5430950000000  0.5198610000000  0.5359180000000 1.0
C      1  0.5430950000000  0.5359180000000  0.4801390000000 1.0
C      1  0.5430950000000  0.4801390000000  0.4640820000000 1.0
C      1  0.4820220000000  0.5572380000000  0.5264560000000 1.0
C      1  0.4820220000000  0.4735440000000  0.5572380000000 1.0
C      1  0.4820220000000  0.4427620000000  0.4735440000000 1.0
C      1  0.4820220000000  0.5264560000000  0.4427620000000 1.0
C      1  0.5146540000000  0.4427620000000  0.5264560000000 1.0
C      1  0.5146540000000  0.5264560000000  0.5572380000000 1.0
C      1  0.5146540000000  0.5572380000000  0.4735440000000 1.0
C      1  0.5146540000000  0.4735440000000  0.4427620000000 1.0
C      1  0.5026450000000  0.4655780000000  0.4861540000000 1.0
C      1  0.5026450000000  0.5138460000000  0.4655780000000 1.0
C      1  0.5026450000000  0.5344220000000  0.5138460000000 1.0
C      1  0.5026450000000  0.4861540000000  0.5344220000000 1.0
C      1  0.4940310000000  0.5344220000000  0.4861540000000 1.0
C      1  0.4940310000000  0.4861540000000  0.4655780000000 1.0
C      1  0.4940310000000  0.4655780000000  0.5138460000000 1.0
C      1  0.4940310000000  0.5138460000000  0.5344220000000 1.0
C      1  0.4279940000000  0.5199390000000  0.5106460000000 1.0
C      1  0.4279940000000  0.4893540000000  0.5199390000000 1.0
C      1  0.4279940000000  0.4800610000000  0.4893540000000 1.0
C      1  0.4279940000000  0.5106460000000  0.4800610000000 1.0
C      1  0.5686830000000  0.4800610000000  0.5106460000000 1.0
C      1  0.5686830000000  0.5106460000000  0.5199390000000 1.0
C      1  0.5686830000000  0.5199390000000  0.4893540000000 1.0
C      1  0.5686830000000  0.4893540000000  0.4800610000000 1.0
C      1  0.4642540000000  0.5399030000000  0.4865010000000 1.0
C      1  0.4642540000000  0.5134990000000  0.5399030000000 1.0
C      1  0.4642540000000  0.4600970000000  0.5134990000000 1.0
C      1  0.4642540000000  0.4865010000000  0.4600970000000 1.0
C      1  0.5324230000000  0.4600970000000  0.4865010000000 1.0
C      1  0.5324230000000  0.4865010000000  0.5399030000000 1.0
C      1  0.5324230000000  0.5399030000000  0.5134990000000 1.0
C      1  0.5324230000000  0.5134990000000  0.4600970000000 1.0
C      1  0.5124330000000  0.4946790000000  0.4196350000000 1.0
C      1  0.5124330000000  0.5803650000000  0.4946790000000 1.0
C      1  0.5124330000000  0.5053210000000  0.5803650000000 1.0
C      1  0.5124330000000  0.4196350000000  0.5053210000000 1.0
C      1  0.4842440000000  0.5053210000000  0.4196350000000 1.0
C      1  0.4842440000000  0.4196350000000  0.4946790000000 1.0
C      1  0.4842440000000  0.4946790000000  0.5803650000000 1.0
C      1  0.4842440000000  0.5803650000000  0.5053210000000 1.0
C      1  0.5324630000000  0.4295620000000  0.4850170000000 1.0
C      1  0.5324630000000  0.5149830000000  0.4295620000000 1.0
C      1  0.5324630000000  0.5704380000000  0.5149830000000 1.0
C      1  0.5324630000000  0.4850170000000  0.5704380000000 1.0
C      1  0.4642140000000  0.5704380000000  0.4850170000000 1.0
C      1  0.4642140000000  0.4850170000000  0.4295620000000 1.0
C      1  0.4642140000000  0.4295620000000  0.5149830000000 1.0
C      1  0.4642140000000  0.5149830000000  0.5704380000000 1.0
C      1  0.4983380000000  0.5529570000000  0.5529570000000 1.0
C      1  0.4983380000000  0.4470430000000  0.5529570000000 1.0
C      1  0.4983380000000  0.5529570000000  0.4470430000000 1.0
C      1  0.4983380000000  0.4470430000000  0.4470430000000 1.0
END
