TITL C-3985257-5396-219 -1.48232025751658e-07 125000 -314.325525527273 0 0 60 (C1) n - 1
REM
REM in /home/nfs/bkarasulu/CARBON/AIRSS/Generating-Clusters/TERSOFF/Higher-Symm/Only-C60
REM
REM
REM
REM
REM
REM ./C.cell (28575a23ae977d3b5fae324c64b13b57)
REM
REM compiler GCC version 9.2.1 20190827 (Red Hat 9.2.1-1)
REM options -cpp -mtune=generic -march=x86-64 -g -O0 -fpre-include=/usr/include/finclude/math-vector-fortran.h
REM seed 1635825426 -830394074 -1785754137 -222004963 -653930119 1864849269 664768250 -1111331708 1672867976 -868385682 868635386 -1984141535 -1942755389 315196083 2036009552 -1546162706 -799384841 -1825121049 -390836701 1971423579 -1256780237 1895889945 -399374711 1426485139 -570406406 -1726330082 2013157293 -1291718215 774345425 -1824515584 1296359198 1689992540 -1211466761
REM
CELL 1.54180   50.00000   50.00000   50.00000   90.00000   90.00000   90.00000
LATT -1
SFAC C  
C      1  0.5228390000000  0.4411100000000  0.4591700000000 1.0
C      1  0.5367700000000  0.4716720000000  0.4913850000000 1.0
C      1  0.5558280000000  0.5416890000000  0.5135360000000 1.0
C      1  0.4753070000000  0.5120140000000  0.4662450000000 1.0
C      1  0.4385500000000  0.4912860000000  0.4943320000000 1.0
C      1  0.5739660000000  0.4940750000000  0.5200450000000 1.0
C      1  0.4724680000000  0.5220800000000  0.4956140000000 1.0
C      1  0.5249560000000  0.4553690000000  0.5147240000000 1.0
C      1  0.4273790000000  0.5378920000000  0.5032610000000 1.0
C      1  0.4298440000000  0.5242170000000  0.4588050000000 1.0
C      1  0.5218130000000  0.5008480000000  0.4393550000000 1.0
C      1  0.4586490000000  0.5002860000000  0.5173590000000 1.0
C      1  0.5568670000000  0.4794370000000  0.5566320000000 1.0
C      1  0.4364570000000  0.4551480000000  0.5156290000000 1.0
C      1  0.5131240000000  0.4218060000000  0.4808150000000 1.0
C      1  0.4895720000000  0.5378070000000  0.4562570000000 1.0
C      1  0.4521820000000  0.4772880000000  0.4704120000000 1.0
C      1  0.5286000000000  0.4263700000000  0.5064860000000 1.0
C      1  0.5471140000000  0.4930660000000  0.5079240000000 1.0
C      1  0.4873690000000  0.4371120000000  0.4880700000000 1.0
C      1  0.5023900000000  0.5247660000000  0.4988860000000 1.0
C      1  0.5225980000000  0.5211290000000  0.4761140000000 1.0
C      1  0.4574160000000  0.5456400000000  0.5450220000000 1.0
C      1  0.4559930000000  0.5488810000000  0.4965950000000 1.0
C      1  0.4946580000000  0.4602310000000  0.5074280000000 1.0
C      1  0.5163910000000  0.4982440000000  0.5607440000000 1.0
C      1  0.4451140000000  0.5200260000000  0.5368650000000 1.0
C      1  0.5432140000000  0.5589760000000  0.4865720000000 1.0
C      1  0.4914780000000  0.5613100000000  0.4742180000000 1.0
C      1  0.5031710000000  0.4778010000000  0.4311930000000 1.0
C      1  0.5130730000000  0.5650560000000  0.4945110000000 1.0
C      1  0.4498340000000  0.5031620000000  0.4503870000000 1.0
C      1  0.4906650000000  0.4895770000000  0.5185450000000 1.0
C      1  0.5170100000000  0.4893510000000  0.4732350000000 1.0
C      1  0.4201340000000  0.5142340000000  0.4865220000000 1.0
C      1  0.5277820000000  0.4686580000000  0.5481210000000 1.0
C      1  0.4890840000000  0.5080150000000  0.5568870000000 1.0
C      1  0.4648460000000  0.4457450000000  0.4675360000000 1.0
C      1  0.5509930000000  0.5079790000000  0.4477250000000 1.0
C      1  0.5162340000000  0.5314420000000  0.4457740000000 1.0
C      1  0.5496350000000  0.4582060000000  0.4673980000000 1.0
C      1  0.5778890000000  0.5212640000000  0.5329210000000 1.0
C      1  0.5645550000000  0.4819060000000  0.4543740000000 1.0
C      1  0.5176410000000  0.5083070000000  0.5200600000000 1.0
C      1  0.4653900000000  0.4896770000000  0.5576420000000 1.0
C      1  0.4444830000000  0.5500040000000  0.4668700000000 1.0
C      1  0.4857740000000  0.5374660000000  0.5506200000000 1.0
C      1  0.4876050000000  0.4795690000000  0.4772820000000 1.0
C      1  0.4572980000000  0.4694710000000  0.5342350000000 1.0
C      1  0.4813660000000  0.4516350000000  0.5338960000000 1.0
C      1  0.4690310000000  0.5621670000000  0.5210980000000 1.0
C      1  0.5043040000000  0.5569120000000  0.5263710000000 1.0
C      1  0.5630300000000  0.5094240000000  0.5575730000000 1.0
C      1  0.5018120000000  0.4527510000000  0.5550740000000 1.0
C      1  0.4964720000000  0.4570590000000  0.4520640000000 1.0
C      1  0.5291680000000  0.5364280000000  0.5323500000000 1.0
C      1  0.5481800000000  0.5178940000000  0.4928720000000 1.0
C      1  0.4434810000000  0.4378970000000  0.4917170000000 1.0
C      1  0.5553280000000  0.5403970000000  0.4582010000000 1.0
C      1  0.5358260000000  0.5207710000000  0.5584470000000 1.0
END
