TITL C-3985247-764-711 -3.64873533345545e-07 125000 -333.492074837825 0 0 60 (C1) n - 1
REM
REM in /home/nfs/bkarasulu/CARBON/AIRSS/Generating-Clusters/TERSOFF/Higher-Symm/Only-C60
REM
REM
REM
REM
REM
REM ./C.cell (28575a23ae977d3b5fae324c64b13b57)
REM
REM compiler GCC version 9.2.1 20190827 (Red Hat 9.2.1-1)
REM options -cpp -mtune=generic -march=x86-64 -g -O0 -fpre-include=/usr/include/finclude/math-vector-fortran.h
REM seed 1444637092 -236986662 721804027 1935211962 -1040252988 2061365777 1746210710 -245335436 -2105006759 -2093625153 51255331 1162456052 -1234171240 1337501465 2132724541 -471409012 54227613 -63292023 -498134543 -544377778 -1579039723 9450819 -720056944 390333397 -1855081123 -1813796281 264362993 316943001 -1872382830 1638777677 -623496108 -2119694195 -27895828
REM
CELL 1.54180   50.00000   50.00000   50.00000   90.00000   90.00000   90.00000
LATT -1
SFAC C  
C      1  0.5323760000000  0.5196010000000  0.5637280000000 1.0
C      1  0.4405950000000  0.5048980000000  0.5519790000000 1.0
C      1  0.4833760000000  0.5483960000000  0.5255910000000 1.0
C      1  0.5484100000000  0.4435100000000  0.5001610000000 1.0
C      1  0.5234050000000  0.4493240000000  0.4764610000000 1.0
C      1  0.5204820000000  0.5705860000000  0.5012450000000 1.0
C      1  0.5184700000000  0.4917350000000  0.5647980000000 1.0
C      1  0.5123570000000  0.5182970000000  0.5214360000000 1.0
C      1  0.4284040000000  0.5409770000000  0.5107490000000 1.0
C      1  0.5231860000000  0.4900080000000  0.5344160000000 1.0
C      1  0.4704650000000  0.5606400000000  0.5007520000000 1.0
C      1  0.4587280000000  0.4272780000000  0.5055110000000 1.0
C      1  0.4496270000000  0.4984770000000  0.4767380000000 1.0
C      1  0.4470040000000  0.5478310000000  0.4888360000000 1.0
C      1  0.4893860000000  0.4842870000000  0.5657370000000 1.0
C      1  0.4673450000000  0.5273160000000  0.4399600000000 1.0
C      1  0.5402560000000  0.5353650000000  0.5200670000000 1.0
C      1  0.5306790000000  0.5000260000000  0.4864330000000 1.0
C      1  0.5624990000000  0.4921650000000  0.4539530000000 1.0
C      1  0.4786850000000  0.4867180000000  0.5131750000000 1.0
C      1  0.4290780000000  0.5146320000000  0.5227980000000 1.0
C      1  0.5500870000000  0.5192380000000  0.4547270000000 1.0
C      1  0.4504800000000  0.4710370000000  0.5164520000000 1.0
C      1  0.5220780000000  0.5529850000000  0.4525680000000 1.0
C      1  0.5540190000000  0.4867140000000  0.5293150000000 1.0
C      1  0.5022150000000  0.4427970000000  0.5301210000000 1.0
C      1  0.5478460000000  0.4724050000000  0.4392000000000 1.0
C      1  0.5788060000000  0.5146760000000  0.4904380000000 1.0
C      1  0.5153830000000  0.5586990000000  0.5318820000000 1.0
C      1  0.5125090000000  0.5419210000000  0.5602730000000 1.0
C      1  0.4360820000000  0.4938210000000  0.5034740000000 1.0
C      1  0.4401800000000  0.4725800000000  0.4605450000000 1.0
C      1  0.4462750000000  0.4517410000000  0.4901990000000 1.0
C      1  0.4802870000000  0.5158380000000  0.5294570000000 1.0
C      1  0.5020920000000  0.5300870000000  0.4927770000000 1.0
C      1  0.5539900000000  0.5177270000000  0.5411620000000 1.0
C      1  0.4927610000000  0.5093880000000  0.4327970000000 1.0
C      1  0.5050420000000  0.5091500000000  0.4728000000000 1.0
C      1  0.5326080000000  0.4352430000000  0.5256560000000 1.0
C      1  0.5195420000000  0.5231520000000  0.4445900000000 1.0
C      1  0.4711970000000  0.5093280000000  0.5581350000000 1.0
C      1  0.5515220000000  0.5295150000000  0.4890890000000 1.0
C      1  0.5201660000000  0.4739530000000  0.4945740000000 1.0
C      1  0.5762170000000  0.4860590000000  0.4815820000000 1.0
C      1  0.4393120000000  0.4749960000000  0.5445040000000 1.0
C      1  0.4955370000000  0.5603220000000  0.4856700000000 1.0
C      1  0.4960480000000  0.5668900000000  0.4564090000000 1.0
C      1  0.4682450000000  0.4627250000000  0.4437970000000 1.0
C      1  0.5219580000000  0.4635560000000  0.4480850000000 1.0
C      1  0.5629940000000  0.4706090000000  0.5044340000000 1.0
C      1  0.4854120000000  0.4557360000000  0.5549570000000 1.0
C      1  0.4941810000000  0.4780790000000  0.4375430000000 1.0
C      1  0.4511340000000  0.5256590000000  0.4662040000000 1.0
C      1  0.4800030000000  0.4890050000000  0.4817870000000 1.0
C      1  0.4762740000000  0.4562190000000  0.4739350000000 1.0
C      1  0.4882560000000  0.4267610000000  0.5080410000000 1.0
C      1  0.4969910000000  0.4368840000000  0.4811080000000 1.0
C      1  0.4848160000000  0.5347280000000  0.5688930000000 1.0
C      1  0.5047170000000  0.4715180000000  0.5193070000000 1.0
C      1  0.5379260000000  0.5561920000000  0.4789920000000 1.0
END
