TITL C-3985259-1859-1138 5.52837794562598e-07 125000 -352.096162905209 0 0 60 (D3) n - 1
REM
REM in /home/nfs/bkarasulu/CARBON/AIRSS/Generating-Clusters/TERSOFF/Higher-Symm/Only-C60
REM
REM
REM
REM
REM
REM ./C.cell (28575a23ae977d3b5fae324c64b13b57)
REM
REM compiler GCC version 9.2.1 20190827 (Red Hat 9.2.1-1)
REM options -cpp -mtune=generic -march=x86-64 -g -O0 -fpre-include=/usr/include/finclude/math-vector-fortran.h
REM seed 1549853466 383490906 1595638575 249181810 -355426563 -294821091 4458088 60021364 1580922143 -1355482121 -1086249851 -219023146 662564589 1910982494 765615112 115605330 -1022947159 -1377453885 -1812936568 1723794057 -864576378 -1311814923 346188932 1661986494 1494882155 1237178284 1422258593 275699373 498099292 -1401368022 -81963385 -1932495316 -1135025289
REM
CELL 1.54180   50.00000   50.00000   50.00000   90.00000   90.00000   90.00000
LATT -1
SFAC C  
C      1  0.5568740000000  0.4733550000000  0.4886460000000 1.0
C      1  0.4945910000000  0.5613600000000  0.4886480000000 1.0
C      1  0.4495180000000  0.4634190000000  0.4886370000000 1.0
C      1  0.4437790000000  0.4733530000000  0.5147140000000 1.0
C      1  0.5060620000000  0.5613580000000  0.5147250000000 1.0
C      1  0.5511360000000  0.4634170000000  0.5147210000000 1.0
C      1  0.5189000000000  0.4387950000000  0.4547180000000 1.0
C      1  0.5435140000000  0.5457560000000  0.4547270000000 1.0
C      1  0.4385760000000  0.5135910000000  0.4547180000000 1.0
C      1  0.4817530000000  0.4387880000000  0.5486370000000 1.0
C      1  0.4571390000000  0.5457490000000  0.5486430000000 1.0
C      1  0.5620770000000  0.5135850000000  0.5486480000000 1.0
C      1  0.4729140000000  0.5355420000000  0.4820680000000 1.0
C      1  0.4827170000000  0.4575550000000  0.4820630000000 1.0
C      1  0.5453540000000  0.5050380000000  0.4820710000000 1.0
C      1  0.5277400000000  0.5355390000000  0.5213010000000 1.0
C      1  0.5179370000000  0.4575520000000  0.5212940000000 1.0
C      1  0.4552990000000  0.5050350000000  0.5212940000000 1.0
C      1  0.4594220000000  0.5296180000000  0.5737250000000 1.0
C      1  0.4945770000000  0.4488290000000  0.5737220000000 1.0
C      1  0.5469650000000  0.5196680000000  0.5737310000000 1.0
C      1  0.5412310000000  0.5296290000000  0.4296430000000 1.0
C      1  0.5060770000000  0.4488390000000  0.4296350000000 1.0
C      1  0.4536880000000  0.5196790000000  0.4296360000000 1.0
C      1  0.5569140000000  0.4834710000000  0.5431390000000 1.0
C      1  0.4858010000000  0.5563340000000  0.5431390000000 1.0
C      1  0.4582560000000  0.4583170000000  0.5431300000000 1.0
C      1  0.4437400000000  0.4834770000000  0.4602220000000 1.0
C      1  0.5148520000000  0.5563400000000  0.4602330000000 1.0
C      1  0.5423970000000  0.4583240000000  0.4602280000000 1.0
C      1  0.5288580000000  0.5029490000000  0.4309360000000 1.0
C      1  0.4829800000000  0.5223030000000  0.4309340000000 1.0
C      1  0.4891570000000  0.4728950000000  0.4309310000000 1.0
C      1  0.4717960000000  0.5029380000000  0.5724290000000 1.0
C      1  0.5176730000000  0.5222930000000  0.5724330000000 1.0
C      1  0.5114960000000  0.4728840000000  0.5724290000000 1.0
C      1  0.5271040000000  0.4728520000000  0.5477420000000 1.0
C      1  0.5099010000000  0.5358270000000  0.5477460000000 1.0
C      1  0.4639650000000  0.4894420000000  0.5477390000000 1.0
C      1  0.4735500000000  0.4728590000000  0.4556180000000 1.0
C      1  0.4907520000000  0.5358330000000  0.4556240000000 1.0
C      1  0.5366880000000  0.4894490000000  0.4556230000000 1.0
C      1  0.5032860000000  0.4324310000000  0.5268800000000 1.0
C      1  0.5568200000000  0.5354120000000  0.5268910000000 1.0
C      1  0.4408680000000  0.5302830000000  0.5268820000000 1.0
C      1  0.4973670000000  0.4324350000000  0.4764740000000 1.0
C      1  0.4438330000000  0.5354150000000  0.4764780000000 1.0
C      1  0.5597840000000  0.5302870000000  0.4764860000000 1.0
C      1  0.5003260000000  0.4162560000000  0.5016760000000 1.0
C      1  0.4283410000000  0.5409370000000  0.5016800000000 1.0
C      1  0.5723120000000  0.5409380000000  0.5016900000000 1.0
C      1  0.5240910000000  0.5130980000000  0.5016850000000 1.0
C      1  0.4765620000000  0.5130970000000  0.5016820000000 1.0
C      1  0.5003270000000  0.4719360000000  0.5016800000000 1.0
C      1  0.4032350000000  0.5554310000000  0.5016790000000 1.0
C      1  0.5974160000000  0.5554330000000  0.5016930000000 1.0
C      1  0.5003240000000  0.3872670000000  0.5016740000000 1.0
C      1  0.5003320000000  0.4993830000000  0.4235850000000 1.0
C      1  0.5003210000000  0.4993710000000  0.5797780000000 1.0
C      1  0.5003270000000  0.4993770000000  0.5016820000000 1.0
END
