TITL C-3985247-764-499 -0.0110938508352116 125000 -300.62974705216 0 0 60 (D2) n - 1
REM
REM in /home/nfs/bkarasulu/CARBON/AIRSS/Generating-Clusters/TERSOFF/Higher-Symm/Only-C60
REM
REM
REM
REM
REM
REM ./C.cell (28575a23ae977d3b5fae324c64b13b57)
REM
REM compiler GCC version 9.2.1 20190827 (Red Hat 9.2.1-1)
REM options -cpp -mtune=generic -march=x86-64 -g -O0 -fpre-include=/usr/include/finclude/math-vector-fortran.h
REM seed -372055807 986085237 323396424 1256725726 1258740692 1836092862 693861577 -1316037474 836017801 -437075265 -1717812264 1619991714 905356924 1008960064 374757761 -92001121 -1289146242 739117332 -883937759 -1289551953 52062911 724740782 -471545882 1945512562 -2107555287 -166507909 -908128241 1385194709 -1455732739 1769578805 -1424765419 -1797880086 -1882170074
REM
CELL 1.54180   50.00000   50.00000   50.00000   90.00000   90.00000   90.00000
LATT -1
SFAC C  
C      1  0.5382970000000  0.5102760000000  0.5487650000000 1.0
C      1  0.5382970000000  0.4897240000000  0.4512350000000 1.0
C      1  0.4617030000000  0.4897240000000  0.5487650000000 1.0
C      1  0.4617030000000  0.5102760000000  0.4512350000000 1.0
C      1  0.4765040000000  0.5301630000000  0.4281400000000 1.0
C      1  0.4765040000000  0.4698370000000  0.5718600000000 1.0
C      1  0.5234960000000  0.4698370000000  0.4281400000000 1.0
C      1  0.5234960000000  0.5301630000000  0.5718600000000 1.0
C      1  0.5047930000000  0.5447600000000  0.4656230000000 1.0
C      1  0.5047930000000  0.4552400000000  0.5343770000000 1.0
C      1  0.4952070000000  0.4552400000000  0.4656230000000 1.0
C      1  0.4952070000000  0.5447600000000  0.5343770000000 1.0
C      1  0.5569400000000  0.4800680000000  0.4809760000000 1.0
C      1  0.5569400000000  0.5199320000000  0.5190240000000 1.0
C      1  0.4430600000000  0.5199320000000  0.4809760000000 1.0
C      1  0.4430600000000  0.4800680000000  0.5190240000000 1.0
C      1  0.5278060000000  0.4664710000000  0.5790730000000 1.0
C      1  0.5278060000000  0.5335290000000  0.4209270000000 1.0
C      1  0.4721940000000  0.5335290000000  0.5790730000000 1.0
C      1  0.4721940000000  0.4664710000000  0.4209270000000 1.0
C      1  0.4612090000000  0.4510260000000  0.5088800000000 1.0
C      1  0.4612090000000  0.5489740000000  0.4911200000000 1.0
C      1  0.5387910000000  0.5489740000000  0.5088800000000 1.0
C      1  0.5387910000000  0.4510260000000  0.4911200000000 1.0
C      1  0.4826050000000  0.4847900000000  0.4961540000000 1.0
C      1  0.4826050000000  0.5152100000000  0.5038460000000 1.0
C      1  0.5173950000000  0.5152100000000  0.4961540000000 1.0
C      1  0.5173950000000  0.4847900000000  0.5038460000000 1.0
C      1  0.5373910000000  0.5165250000000  0.4707980000000 1.0
C      1  0.5373910000000  0.4834750000000  0.5292020000000 1.0
C      1  0.4626090000000  0.4834750000000  0.4707980000000 1.0
C      1  0.4626090000000  0.5165250000000  0.5292020000000 1.0
C      1  0.5207370000000  0.5586250000000  0.5286880000000 1.0
C      1  0.5207370000000  0.4413750000000  0.4713120000000 1.0
C      1  0.4792630000000  0.4413750000000  0.5286880000000 1.0
C      1  0.4792630000000  0.5586250000000  0.4713120000000 1.0
C      1  0.5665390000000  0.5153310000000  0.4859850000000 1.0
C      1  0.5665390000000  0.4846690000000  0.5140150000000 1.0
C      1  0.4334610000000  0.4846690000000  0.4859850000000 1.0
C      1  0.4334610000000  0.5153310000000  0.5140150000000 1.0
C      1  0.5458640000000  0.4876690000000  0.5701370000000 1.0
C      1  0.5458640000000  0.5123310000000  0.4298630000000 1.0
C      1  0.4541360000000  0.5123310000000  0.5701370000000 1.0
C      1  0.4541360000000  0.4876690000000  0.4298630000000 1.0
C      1  0.5638480000000  0.4596390000000  0.5368510000000 1.0
C      1  0.5638480000000  0.5403610000000  0.4631490000000 1.0
C      1  0.4361520000000  0.5403610000000  0.5368510000000 1.0
C      1  0.4361520000000  0.4596390000000  0.4631490000000 1.0
C      1  0.5035790000000  0.4585380000000  0.5651500000000 1.0
C      1  0.5035790000000  0.5414620000000  0.4348500000000 1.0
C      1  0.4964210000000  0.5414620000000  0.5651500000000 1.0
C      1  0.4964210000000  0.4585380000000  0.4348500000000 1.0
C      1  0.5080620000000  0.4875780000000  0.4629510000000 1.0
C      1  0.5080620000000  0.5124220000000  0.5370490000000 1.0
C      1  0.4919380000000  0.5124220000000  0.4629510000000 1.0
C      1  0.4919380000000  0.4875780000000  0.5370490000000 1.0
C      1  0.5294330000000  0.4434900000000  0.5193520000000 1.0
C      1  0.5294330000000  0.5565100000000  0.4806480000000 1.0
C      1  0.4705670000000  0.5565100000000  0.5193520000000 1.0
C      1  0.4705670000000  0.4434900000000  0.4806480000000 1.0
END
