TITL C-3985247-764-654 0.0112816573838112 125000 -278.70461493241 0 0 60 (D5) n - 1
REM
REM in /home/nfs/bkarasulu/CARBON/AIRSS/Generating-Clusters/TERSOFF/Higher-Symm/Only-C60
REM
REM
REM
REM
REM
REM ./C.cell (28575a23ae977d3b5fae324c64b13b57)
REM
REM compiler GCC version 9.2.1 20190827 (Red Hat 9.2.1-1)
REM options -cpp -mtune=generic -march=x86-64 -g -O0 -fpre-include=/usr/include/finclude/math-vector-fortran.h
REM seed 1846493601 -1497155328 -1321799945 -2042066014 1619485160 -1385980141 1312407021 1402595724 1938159801 -1710489285 200114125 -1167306801 2046609426 -1528511018 -990612474 907070607 881538031 2142863401 -997179636 316488983 -1991046831 1325492591 2017586349 -1942365541 1470722755 2061108186 -83839441 -1159279984 2011085660 -1252078432 -2112773521 -215686560 -601972199
REM
CELL 1.54180   50.00000   50.00000   50.00000   90.00000   90.00000   90.00000
LATT -1
SFAC C  
C      1  0.4875730000000  0.4828580000000  0.4725490000000 1.0
C      1  0.5222050000000  0.4830120000000  0.4797560000000 1.0
C      1  0.5261030000000  0.4828700000000  0.5148250000000 1.0
C      1  0.4938250000000  0.4827710000000  0.5294790000000 1.0
C      1  0.4701240000000  0.4829530000000  0.5032080000000 1.0
C      1  0.5124270000000  0.5171420000000  0.4725490000000 1.0
C      1  0.4777950000000  0.5169880000000  0.4797560000000 1.0
C      1  0.4738970000000  0.5171300000000  0.5148250000000 1.0
C      1  0.5061750000000  0.5172290000000  0.5294790000000 1.0
C      1  0.5298760000000  0.5170470000000  0.5032080000000 1.0
C      1  0.5249360000000  0.4290840000000  0.4935840000000 1.0
C      1  0.5138140000000  0.4290920000000  0.5217290000000 1.0
C      1  0.4836100000000  0.4290810000000  0.5198610000000 1.0
C      1  0.4760360000000  0.4291220000000  0.4905400000000 1.0
C      1  0.5015990000000  0.4290740000000  0.4742890000000 1.0
C      1  0.4750640000000  0.5709160000000  0.4935840000000 1.0
C      1  0.4861860000000  0.5709080000000  0.5217290000000 1.0
C      1  0.5163900000000  0.5709190000000  0.5198610000000 1.0
C      1  0.5239640000000  0.5708780000000  0.4905400000000 1.0
C      1  0.4984010000000  0.5709260000000  0.4742890000000 1.0
C      1  0.5517150000000  0.5290090000000  0.4798800000000 1.0
C      1  0.5351830000000  0.5291600000000  0.5430140000000 1.0
C      1  0.4701030000000  0.5290320000000  0.5466430000000 1.0
C      1  0.4464040000000  0.5290150000000  0.4859150000000 1.0
C      1  0.4968490000000  0.5290480000000  0.4446440000000 1.0
C      1  0.4482850000000  0.4709910000000  0.4798800000000 1.0
C      1  0.4648170000000  0.4708400000000  0.5430140000000 1.0
C      1  0.5298970000000  0.4709680000000  0.5466430000000 1.0
C      1  0.5535960000000  0.4709850000000  0.4859150000000 1.0
C      1  0.5031510000000  0.4709520000000  0.4446440000000 1.0
C      1  0.5052560000000  0.4833890000000  0.5641380000000 1.0
C      1  0.4407490000000  0.4833190000000  0.5250330000000 1.0
C      1  0.4578420000000  0.4834360000000  0.4512930000000 1.0
C      1  0.5332930000000  0.4834790000000  0.4448670000000 1.0
C      1  0.5626480000000  0.4835620000000  0.5147080000000 1.0
C      1  0.4947440000000  0.5166110000000  0.5641380000000 1.0
C      1  0.5592510000000  0.5166810000000  0.5250330000000 1.0
C      1  0.5421580000000  0.5165640000000  0.4512930000000 1.0
C      1  0.4667070000000  0.5165210000000  0.4448670000000 1.0
C      1  0.4373520000000  0.5164380000000  0.5147080000000 1.0
C      1  0.5330230000000  0.5584200000000  0.5403170000000 1.0
C      1  0.4719390000000  0.5582510000000  0.5437890000000 1.0
C      1  0.4496700000000  0.5582490000000  0.4868790000000 1.0
C      1  0.4969340000000  0.5582830000000  0.4480510000000 1.0
C      1  0.5484740000000  0.5582480000000  0.4810450000000 1.0
C      1  0.4669770000000  0.4415800000000  0.5403170000000 1.0
C      1  0.5280610000000  0.4417490000000  0.5437890000000 1.0
C      1  0.5503300000000  0.4417510000000  0.4868790000000 1.0
C      1  0.5030660000000  0.4417170000000  0.4480510000000 1.0
C      1  0.4515260000000  0.4417520000000  0.4810450000000 1.0
C      1  0.4249560000000  0.4906360000000  0.4917720000000 1.0
C      1  0.4846130000000  0.4905770000000  0.4260930000000 1.0
C      1  0.5654940000000  0.4905200000000  0.4625240000000 1.0
C      1  0.5557580000000  0.4905450000000  0.5506820000000 1.0
C      1  0.4690790000000  0.4906140000000  0.5688920000000 1.0
C      1  0.5750440000000  0.5093640000000  0.4917720000000 1.0
C      1  0.5153870000000  0.5094230000000  0.4260930000000 1.0
C      1  0.4345060000000  0.5094800000000  0.4625240000000 1.0
C      1  0.4442420000000  0.5094550000000  0.5506820000000 1.0
C      1  0.5309210000000  0.5093860000000  0.5688920000000 1.0
END
