TITL C-3985256-5419-84 -5.01849856811594e-05 125000 -333.268555154546 0 0 60 (C1) n - 1
REM
REM in /home/nfs/bkarasulu/CARBON/AIRSS/Generating-Clusters/TERSOFF/Higher-Symm/Only-C60
REM
REM
REM
REM
REM
REM ./C.cell (28575a23ae977d3b5fae324c64b13b57)
REM
REM compiler GCC version 9.2.1 20190827 (Red Hat 9.2.1-1)
REM options -cpp -mtune=generic -march=x86-64 -g -O0 -fpre-include=/usr/include/finclude/math-vector-fortran.h
REM seed 1524349068 1392523376 1776691471 -1054487649 2007725024 158727401 -1814474233 649741775 1104097938 1639686365 -1921855933 -2136571026 -733234921 880689800 907079278 -378016291 257029305 -807958391 1787707080 415184503 -510047920 -1692566738 375712911 -194129149 399294879 737886674 -932571238 1584461728 1276744532 -342062750 827782446 775031825 673742167
REM
CELL 1.54180   50.00000   50.00000   50.00000   90.00000   90.00000   90.00000
LATT -1
SFAC C  
C      1  0.5049090000000  0.5019660000000  0.4805490000000 1.0
C      1  0.5351370000000  0.4987360000000  0.4402880000000 1.0
C      1  0.5276940000000  0.4679160000000  0.5007760000000 1.0
C      1  0.4434530000000  0.5033310000000  0.5561640000000 1.0
C      1  0.5710790000000  0.4923490000000  0.5071460000000 1.0
C      1  0.5546200000000  0.4603120000000  0.4652780000000 1.0
C      1  0.5111250000000  0.4484300000000  0.4656620000000 1.0
C      1  0.4956230000000  0.4322110000000  0.5341970000000 1.0
C      1  0.5161660000000  0.5501700000000  0.4524010000000 1.0
C      1  0.4255220000000  0.5244830000000  0.5415380000000 1.0
C      1  0.5378890000000  0.4356640000000  0.4759640000000 1.0
C      1  0.4750230000000  0.4474380000000  0.4871310000000 1.0
C      1  0.4329600000000  0.4748570000000  0.4909270000000 1.0
C      1  0.5350200000000  0.5072360000000  0.4696350000000 1.0
C      1  0.4907320000000  0.4773920000000  0.5199710000000 1.0
C      1  0.5416620000000  0.4848230000000  0.5470340000000 1.0
C      1  0.5077940000000  0.5419540000000  0.5555060000000 1.0
C      1  0.5082550000000  0.5063210000000  0.4283090000000 1.0
C      1  0.4817770000000  0.5751060000000  0.4839730000000 1.0
C      1  0.4982300000000  0.4757980000000  0.5650610000000 1.0
C      1  0.5423360000000  0.4696220000000  0.4384140000000 1.0
C      1  0.4715520000000  0.5138610000000  0.5496640000000 1.0
C      1  0.5508070000000  0.4840370000000  0.4865600000000 1.0
C      1  0.4934960000000  0.4795850000000  0.4292630000000 1.0
C      1  0.4501880000000  0.4535740000000  0.5023130000000 1.0
C      1  0.4958100000000  0.4280800000000  0.5031500000000 1.0
C      1  0.4352710000000  0.4820180000000  0.5374040000000 1.0
C      1  0.4808030000000  0.4575780000000  0.5410110000000 1.0
C      1  0.4956470000000  0.5113750000000  0.5702920000000 1.0
C      1  0.4978830000000  0.5212680000000  0.5050430000000 1.0
C      1  0.4640930000000  0.5388990000000  0.5338920000000 1.0
C      1  0.4544600000000  0.5031480000000  0.4561860000000 1.0
C      1  0.4401740000000  0.5273250000000  0.5088540000000 1.0
C      1  0.4662170000000  0.4509220000000  0.4583380000000 1.0
C      1  0.4964180000000  0.5297850000000  0.4431420000000 1.0
C      1  0.4720300000000  0.5324510000000  0.4932470000000 1.0
C      1  0.5249100000000  0.5073940000000  0.5389690000000 1.0
C      1  0.5249800000000  0.4373400000000  0.5421870000000 1.0
C      1  0.4865670000000  0.5587160000000  0.5387450000000 1.0
C      1  0.5152900000000  0.5432330000000  0.5124070000000 1.0
C      1  0.4985780000000  0.4712160000000  0.4894000000000 1.0
C      1  0.5391830000000  0.5378160000000  0.4670540000000 1.0
C      1  0.4360040000000  0.5278540000000  0.4727110000000 1.0
C      1  0.4283250000000  0.4956040000000  0.5112040000000 1.0
C      1  0.4799240000000  0.5175020000000  0.4655290000000 1.0
C      1  0.5663250000000  0.4800000000000  0.5329200000000 1.0
C      1  0.5483380000000  0.5551920000000  0.4895030000000 1.0
C      1  0.5279100000000  0.5776750000000  0.4919680000000 1.0
C      1  0.5304850000000  0.4370510000000  0.5079380000000 1.0
C      1  0.5260640000000  0.4631470000000  0.5581330000000 1.0
C      1  0.4676070000000  0.4767680000000  0.4437090000000 1.0
C      1  0.5077750000000  0.5753580000000  0.4667430000000 1.0
C      1  0.5135950000000  0.4587400000000  0.4374320000000 1.0
C      1  0.4953540000000  0.5037490000000  0.5290540000000 1.0
C      1  0.5000590000000  0.5718420000000  0.5119630000000 1.0
C      1  0.4571190000000  0.5571080000000  0.4771990000000 1.0
C      1  0.5357780000000  0.5367900000000  0.5362600000000 1.0
C      1  0.5778620000000  0.5205890000000  0.5089500000000 1.0
C      1  0.4520470000000  0.4577810000000  0.5322160000000 1.0
C      1  0.5580630000000  0.5415160000000  0.5135250000000 1.0
END
