TITL C-3985246-2097-119 1.15801462903773e-06 125000 -312.382020158236 0 0 60 (C3) n - 1
REM
REM in /home/nfs/bkarasulu/CARBON/AIRSS/Generating-Clusters/TERSOFF/Higher-Symm/Only-C60
REM
REM
REM
REM
REM
REM ./C.cell (28575a23ae977d3b5fae324c64b13b57)
REM
REM compiler GCC version 9.2.1 20190827 (Red Hat 9.2.1-1)
REM options -cpp -mtune=generic -march=x86-64 -g -O0 -fpre-include=/usr/include/finclude/math-vector-fortran.h
REM seed 1458236629 1798160407 1134859973 -1365564811 521704972 -1424876109 -1715191400 2123011333 1751256068 934905513 -1564907237 1160494805 2005186105 -1818459251 -461727463 750329099 1778456483 -1917278644 -1144748559 -1704762619 1944092610 578553042 -1056004802 1692732230 -803921766 -322976691 710788496 447483034 678451005 405310095 890753987 1692113283 -624255023
REM
CELL 1.54180   50.00000   50.00000   50.00000   90.00000   90.00000   90.00000
LATT -1
SFAC C  
C      1  0.4732040000000  0.4945680000000  0.5417440000000 1.0
C      1  0.5181050000000  0.4795110000000  0.5417440000000 1.0
C      1  0.5086940000000  0.5259260000000  0.5417420000000 1.0
C      1  0.5579660000000  0.4811940000000  0.5646120000000 1.0
C      1  0.4873050000000  0.5596050000000  0.5646090000000 1.0
C      1  0.4547280000000  0.4592070000000  0.5646130000000 1.0
C      1  0.5190540000000  0.4977630000000  0.4244600000000 1.0
C      1  0.4924080000000  0.5176170000000  0.4244580000000 1.0
C      1  0.4885360000000  0.4846140000000  0.4244610000000 1.0
C      1  0.4725990000000  0.5812830000000  0.4528940000000 1.0
C      1  0.4433050000000  0.4356270000000  0.4528990000000 1.0
C      1  0.5840940000000  0.4830860000000  0.4528970000000 1.0
C      1  0.5101170000000  0.5412370000000  0.5667560000000 1.0
C      1  0.4592310000000  0.4881470000000  0.5667570000000 1.0
C      1  0.5306520000000  0.4706240000000  0.5667590000000 1.0
C      1  0.4602620000000  0.5430070000000  0.5198960000000 1.0
C      1  0.4826250000000  0.4440840000000  0.5199010000000 1.0
C      1  0.5571130000000  0.5129120000000  0.5198980000000 1.0
C      1  0.4701430000000  0.5579290000000  0.4367360000000 1.0
C      1  0.4647580000000  0.4451770000000  0.4367400000000 1.0
C      1  0.5650970000000  0.4968900000000  0.4367380000000 1.0
C      1  0.4469450000000  0.4516550000000  0.4775150000000 1.0
C      1  0.5683940000000  0.4782250000000  0.4775130000000 1.0
C      1  0.4846590000000  0.5701180000000  0.4775110000000 1.0
C      1  0.5662510000000  0.4862880000000  0.5367930000000 1.0
C      1  0.4787510000000  0.5642320000000  0.5367900000000 1.0
C      1  0.4549980000000  0.4494820000000  0.5367950000000 1.0
C      1  0.5599270000000  0.5651370000000  0.5275540000000 1.0
C      1  0.4136400000000  0.5193200000000  0.5275940000000 1.0
C      1  0.5264460000000  0.4155370000000  0.5275650000000 1.0
C      1  0.4570420000000  0.4867930000000  0.4706760000000 1.0
C      1  0.5329150000000  0.4694010000000  0.4706750000000 1.0
C      1  0.5100410000000  0.5438050000000  0.4706720000000 1.0
C      1  0.5277980000000  0.5057980000000  0.5307020000000 1.0
C      1  0.4810810000000  0.5211770000000  0.5307020000000 1.0
C      1  0.4911220000000  0.4730290000000  0.5307040000000 1.0
C      1  0.5192990000000  0.4954800000000  0.5006430000000 1.0
C      1  0.4942650000000  0.5189740000000  0.5006420000000 1.0
C      1  0.4864360000000  0.4855460000000  0.5006430000000 1.0
C      1  0.4848800000000  0.5342130000000  0.4465330000000 1.0
C      1  0.4779270000000  0.4697980000000  0.4465360000000 1.0
C      1  0.5371900000000  0.4959850000000  0.4465340000000 1.0
C      1  0.5308040000000  0.5144060000000  0.4731780000000 1.0
C      1  0.4721210000000  0.5194740000000  0.4731780000000 1.0
C      1  0.4970730000000  0.4661190000000  0.4731800000000 1.0
C      1  0.4254090000000  0.4503790000000  0.4974560000000 1.0
C      1  0.5802670000000  0.4602130000000  0.4974550000000 1.0
C      1  0.4943220000000  0.5894070000000  0.4974510000000 1.0
C      1  0.5607660000000  0.4635740000000  0.5184480000000 1.0
C      1  0.5011630000000  0.5708390000000  0.5184450000000 1.0
C      1  0.4380700000000  0.4655880000000  0.5184480000000 1.0
C      1  0.4653140000000  0.5470650000000  0.4891840000000 1.0
C      1  0.4765830000000  0.4464290000000  0.4891880000000 1.0
C      1  0.5581010000000  0.5065060000000  0.4891850000000 1.0
C      1  0.5163490000000  0.5468780000000  0.5061910000000 1.0
C      1  0.4512280000000  0.4907180000000  0.5061950000000 1.0
C      1  0.5324230000000  0.4624030000000  0.5061940000000 1.0
C      1  0.4410430000000  0.5173430000000  0.5180120000000 1.0
C      1  0.5144590000000  0.4402680000000  0.5180070000000 1.0
C      1  0.5445010000000  0.5423900000000  0.5180010000000 1.0
END
