TITL C-3985252-168-385 1.43789264175833e-05 125000 -323.335403639998 0 0 60 (Cs) n - 1
REM
REM in /home/nfs/bkarasulu/CARBON/AIRSS/Generating-Clusters/TERSOFF/Higher-Symm/Only-C60
REM
REM
REM
REM
REM
REM ./C.cell (28575a23ae977d3b5fae324c64b13b57)
REM
REM compiler GCC version 9.2.1 20190827 (Red Hat 9.2.1-1)
REM options -cpp -mtune=generic -march=x86-64 -g -O0 -fpre-include=/usr/include/finclude/math-vector-fortran.h
REM seed -2140706255 382237909 1357049984 360552415 -587156612 1714954639 -212588174 -235015717 -2032237219 -1595167082 1878415652 2128659614 -49124973 1104811789 1075759987 614350364 -1739831917 1144516261 -1719629835 1044373338 1240497638 1886875965 2128829802 -1168332098 2132345967 -1233606640 1629433495 1035493658 706208876 -375124293 2107846139 -503535790 1423170201
REM
CELL 1.54180   50.00000   50.00000   50.00000   90.00000   90.00000   90.00000
LATT -1
SFAC C  
C      1  0.5623880000000  0.5164360000000  0.4497470000000 1.0
C      1  0.5628270000000  0.4609500000000  0.4696850000000 1.0
C      1  0.5621990000000  0.4596730000000  0.5270410000000 1.0
C      1  0.5603350000000  0.5149850000000  0.5489600000000 1.0
C      1  0.5608310000000  0.5524780000000  0.4997440000000 1.0
C      1  0.5623880000000  0.4835630000000  0.4497470000000 1.0
C      1  0.5628270000000  0.5390490000000  0.4696850000000 1.0
C      1  0.5622000000000  0.5403270000000  0.5270400000000 1.0
C      1  0.5603350000000  0.4850160000000  0.5489600000000 1.0
C      1  0.5608200000000  0.4475180000000  0.4997240000000 1.0
C      1  0.5386740000000  0.5514960000000  0.5462970000000 1.0
C      1  0.5387900000000  0.5604890000000  0.4648950000000 1.0
C      1  0.5383200000000  0.4844030000000  0.4289930000000 1.0
C      1  0.5379820000000  0.4267790000000  0.4934360000000 1.0
C      1  0.5378410000000  0.4716520000000  0.5667330000000 1.0
C      1  0.5386740000000  0.4485030000000  0.5462980000000 1.0
C      1  0.5388020000000  0.4395150000000  0.4649140000000 1.0
C      1  0.5383190000000  0.5155970000000  0.4289930000000 1.0
C      1  0.5379820000000  0.5732210000000  0.4934360000000 1.0
C      1  0.5378400000000  0.5283480000000  0.5667330000000 1.0
C      1  0.4353470000000  0.4846500000000  0.5704720000000 1.0
C      1  0.4363540000000  0.5617320000000  0.5354430000000 1.0
C      1  0.4364700000000  0.5529750000000  0.4524060000000 1.0
C      1  0.4355650000000  0.4712730000000  0.4337850000000 1.0
C      1  0.4349870000000  0.4275880000000  0.5067470000000 1.0
C      1  0.4353470000000  0.5153500000000  0.5704720000000 1.0
C      1  0.4363540000000  0.4382680000000  0.5354430000000 1.0
C      1  0.4364700000000  0.4470250000000  0.4524060000000 1.0
C      1  0.4355660000000  0.5287270000000  0.4337850000000 1.0
C      1  0.4349870000000  0.5724120000000  0.5067470000000 1.0
C      1  0.4623520000000  0.5172150000000  0.4473310000000 1.0
C      1  0.4628480000000  0.4551330000000  0.4681700000000 1.0
C      1  0.4627660000000  0.4555780000000  0.5329470000000 1.0
C      1  0.4621630000000  0.5171140000000  0.5532360000000 1.0
C      1  0.4620230000000  0.5559870000000  0.5005620000000 1.0
C      1  0.4623520000000  0.4827850000000  0.4473310000000 1.0
C      1  0.4628480000000  0.5448660000000  0.4681700000000 1.0
C      1  0.4627660000000  0.5444220000000  0.5329470000000 1.0
C      1  0.4621630000000  0.4828860000000  0.5532360000000 1.0
C      1  0.4620230000000  0.4440120000000  0.5005620000000 1.0
C      1  0.4881520000000  0.4705110000000  0.5671160000000 1.0
C      1  0.4887500000000  0.5542350000000  0.5487120000000 1.0
C      1  0.4888890000000  0.5627980000000  0.4636980000000 1.0
C      1  0.4885130000000  0.4846300000000  0.4289280000000 1.0
C      1  0.4883080000000  0.4272460000000  0.4928520000000 1.0
C      1  0.4881520000000  0.5294890000000  0.5671160000000 1.0
C      1  0.4887500000000  0.4457650000000  0.5487120000000 1.0
C      1  0.4888880000000  0.4372030000000  0.4636970000000 1.0
C      1  0.4885130000000  0.5153700000000  0.4289280000000 1.0
C      1  0.4883080000000  0.5727540000000  0.4928520000000 1.0
C      1  0.5133750000000  0.4699210000000  0.4336770000000 1.0
C      1  0.5130410000000  0.4267280000000  0.5085310000000 1.0
C      1  0.5126950000000  0.4853680000000  0.5724600000000 1.0
C      1  0.5135350000000  0.5626410000000  0.5357670000000 1.0
C      1  0.5136820000000  0.5531260000000  0.4516310000000 1.0
C      1  0.5133770000000  0.5300800000000  0.4336770000000 1.0
C      1  0.5130400000000  0.5732730000000  0.5085310000000 1.0
C      1  0.5126950000000  0.5146320000000  0.5724600000000 1.0
C      1  0.5135350000000  0.4373590000000  0.5357660000000 1.0
C      1  0.5136830000000  0.4468740000000  0.4516310000000 1.0
END
