TITL C-3985258-5380-102 -0.00442878070406272 125000 -299.059737288027 0 0 60 (C3i) n - 1
REM
REM in /home/nfs/bkarasulu/CARBON/AIRSS/Generating-Clusters/TERSOFF/Higher-Symm/Only-C60
REM
REM
REM
REM
REM
REM ./C.cell (28575a23ae977d3b5fae324c64b13b57)
REM
REM compiler GCC version 9.2.1 20190827 (Red Hat 9.2.1-1)
REM options -cpp -mtune=generic -march=x86-64 -g -O0 -fpre-include=/usr/include/finclude/math-vector-fortran.h
REM seed 1642367565 1179331963 -878011468 -1297178544 514390530 -806209411 -2095684001 676311670 673345427 766752737 1674725552 -1074953960 -824025949 -1313315156 -361160515 471292482 414855293 -1797779169 1509141042 -1582552351 -837802624 568702957 1086676590 466685654 -1328670217 -864361757 1376058351 -188791535 -439126546 -204892285 1732759977 981536165 -2025228819
REM
CELL 1.54180   50.00000   50.00000   50.00000   90.00000   90.00000   90.00000
LATT -1
SFAC C  
C      1  0.5428890000000  0.4836790000000  0.4748550000000 1.0
C      1  0.4571210000000  0.5136130000000  0.4732870000000 1.0
C      1  0.5428770000000  0.5299450000000  0.4984390000000 1.0
C      1  0.4571060000000  0.5163220000000  0.5251450000000 1.0
C      1  0.5428810000000  0.4863860000000  0.5267130000000 1.0
C      1  0.4571060000000  0.4700570000000  0.5015650000000 1.0
C      1  0.4487990000000  0.4934340000000  0.5434430000000 1.0
C      1  0.5512100000000  0.4590850000000  0.5160320000000 1.0
C      1  0.4487750000000  0.4656570000000  0.4725950000000 1.0
C      1  0.5511960000000  0.5065630000000  0.4565540000000 1.0
C      1  0.4487900000000  0.5409120000000  0.4839630000000 1.0
C      1  0.5512120000000  0.5343400000000  0.5274190000000 1.0
C      1  0.4871150000000  0.5026370000000  0.4759220000000 1.0
C      1  0.5129020000000  0.5221510000000  0.4902330000000 1.0
C      1  0.4870940000000  0.5195520000000  0.5143290000000 1.0
C      1  0.5128860000000  0.4973630000000  0.5240790000000 1.0
C      1  0.4871010000000  0.4778500000000  0.5097660000000 1.0
C      1  0.5129060000000  0.4804490000000  0.4856720000000 1.0
C      1  0.5163180000000  0.4379620000000  0.5258370000000 1.0
C      1  0.4836910000000  0.4466500000000  0.4591980000000 1.0
C      1  0.5163010000000  0.5086610000000  0.4333760000000 1.0
C      1  0.4836740000000  0.5620340000000  0.4741650000000 1.0
C      1  0.5163160000000  0.5533500000000  0.5408050000000 1.0
C      1  0.4836920000000  0.4913430000000  0.5666240000000 1.0
C      1  0.4375460000000  0.4741090000000  0.5226170000000 1.0
C      1  0.5624480000000  0.4674610000000  0.4888990000000 1.0
C      1  0.4375370000000  0.4933550000000  0.4662670000000 1.0
C      1  0.5624620000000  0.5258940000000  0.4773820000000 1.0
C      1  0.4375530000000  0.5325400000000  0.5111010000000 1.0
C      1  0.5624550000000  0.5066660000000  0.5337280000000 1.0
C      1  0.4804420000000  0.5329390000000  0.5708970000000 1.0
C      1  0.5195650000000  0.4550620000000  0.5639990000000 1.0
C      1  0.4804350000000  0.4221030000000  0.4930510000000 1.0
C      1  0.5196020000000  0.4670710000000  0.4290680000000 1.0
C      1  0.4804390000000  0.5449360000000  0.4360040000000 1.0
C      1  0.5195740000000  0.5778860000000  0.5069490000000 1.0
C      1  0.5424200000000  0.4913680000000  0.4276640000000 1.0
C      1  0.4575600000000  0.5583200000000  0.4563570000000 1.0
C      1  0.5424380000000  0.5669540000000  0.5286870000000 1.0
C      1  0.4575600000000  0.5086270000000  0.5723350000000 1.0
C      1  0.5424390000000  0.4416750000000  0.5436420000000 1.0
C      1  0.4575450000000  0.4330490000000  0.4713270000000 1.0
C      1  0.4790850000000  0.4774910000000  0.4565600000000 1.0
C      1  0.5209220000000  0.5263450000000  0.4588150000000 1.0
C      1  0.4791020000000  0.5488290000000  0.5022800000000 1.0
C      1  0.5209010000000  0.5225090000000  0.5434410000000 1.0
C      1  0.4790790000000  0.4736570000000  0.5411830000000 1.0
C      1  0.5209000000000  0.4511790000000  0.4977270000000 1.0
C      1  0.4909950000000  0.4892080000000  0.4307450000000 1.0
C      1  0.5090150000000  0.5546200000000  0.4560380000000 1.0
C      1  0.4909830000000  0.5653650000000  0.5252810000000 1.0
C      1  0.5090210000000  0.5107700000000  0.5692670000000 1.0
C      1  0.4909840000000  0.4453790000000  0.5439660000000 1.0
C      1  0.5090300000000  0.4346070000000  0.4746970000000 1.0
C      1  0.4770780000000  0.5587820000000  0.5547850000000 1.0
C      1  0.5229300000000  0.4819440000000  0.5782730000000 1.0
C      1  0.4770770000000  0.4231940000000  0.5235140000000 1.0
C      1  0.5229300000000  0.4412390000000  0.4452250000000 1.0
C      1  0.4770720000000  0.5180630000000  0.4217230000000 1.0
C      1  0.5229170000000  0.5768100000000  0.4764890000000 1.0
END
