TITL C-3985259-1859-1258 0.00416352612429653 125000 -322.111320314046 0 0 60 (C3) n - 1
REM
REM in /home/nfs/bkarasulu/CARBON/AIRSS/Generating-Clusters/TERSOFF/Higher-Symm/Only-C60
REM
REM
REM
REM
REM
REM ./C.cell (28575a23ae977d3b5fae324c64b13b57)
REM
REM compiler GCC version 9.2.1 20190827 (Red Hat 9.2.1-1)
REM options -cpp -mtune=generic -march=x86-64 -g -O0 -fpre-include=/usr/include/finclude/math-vector-fortran.h
REM seed -493751154 1141859359 -1935224454 -1791370938 108896590 386679382 -53634674 1124582000 -1443363920 -1975508604 732665164 79379954 1865896247 -1677895455 -870870979 -534046558 -306157685 2089181838 -1023633169 709423533 -2018859743 -448571318 1802782135 766965241 -438253699 723921642 -1557205359 -1357690657 708769597 -614925236 1195441763 729202338 -455237059
REM
CELL 1.54180   50.00000   50.00000   50.00000   90.00000   90.00000   90.00000
LATT -1
SFAC C  
C      1  0.4978280000000  0.4555330000000  0.4742300000000 1.0
C      1  0.4787650000000  0.4555430000000  0.5147650000000 1.0
C      1  0.5233960000000  0.4555450000000  0.5110000000000 1.0
C      1  0.4596500000000  0.5276520000000  0.4730410000000 1.0
C      1  0.4968250000000  0.5276500000000  0.5484130000000 1.0
C      1  0.5435380000000  0.5276580000000  0.4785450000000 1.0
C      1  0.4810590000000  0.5735520000000  0.4703290000000 1.0
C      1  0.4837730000000  0.5735460000000  0.5312250000000 1.0
C      1  0.5351660000000  0.5735550000000  0.4984400000000 1.0
C      1  0.5324210000000  0.5581180000000  0.4733430000000 1.0
C      1  0.4607160000000  0.5580960000000  0.4852420000000 1.0
C      1  0.5068550000000  0.5580890000000  0.5413830000000 1.0
C      1  0.5123830000000  0.4837040000000  0.5139070000000 1.0
C      1  0.5058880000000  0.4836910000000  0.4822990000000 1.0
C      1  0.4817560000000  0.4836960000000  0.5037430000000 1.0
C      1  0.4430080000000  0.5362940000000  0.5334440000000 1.0
C      1  0.5574700000000  0.5362910000000  0.5326380000000 1.0
C      1  0.4995290000000  0.5362870000000  0.4339230000000 1.0
C      1  0.4786240000000  0.4730890000000  0.4330090000000 1.0
C      1  0.4526670000000  0.4730900000000  0.5520130000000 1.0
C      1  0.5687080000000  0.4730850000000  0.5149870000000 1.0
C      1  0.5190970000000  0.4408200000000  0.4565470000000 1.0
C      1  0.4528190000000  0.4408320000000  0.5051910000000 1.0
C      1  0.5280730000000  0.4408340000000  0.5382610000000 1.0
C      1  0.5170390000000  0.5110200000000  0.5235860000000 1.0
C      1  0.5118940000000  0.5110450000000  0.4734450000000 1.0
C      1  0.4710510000000  0.5110080000000  0.5029500000000 1.0
C      1  0.4316020000000  0.5135470000000  0.5170690000000 1.0
C      1  0.5489780000000  0.5135550000000  0.5507020000000 1.0
C      1  0.5194200000000  0.5135510000000  0.4322430000000 1.0
C      1  0.5600240000000  0.4455230000000  0.5289200000000 1.0
C      1  0.4950280000000  0.4455260000000  0.4335600000000 1.0
C      1  0.4449480000000  0.4455280000000  0.5375290000000 1.0
C      1  0.4338160000000  0.5117390000000  0.4837980000000 1.0
C      1  0.5190590000000  0.5117390000000  0.5654110000000 1.0
C      1  0.5471200000000  0.5117390000000  0.4507930000000 1.0
C      1  0.4348750000000  0.4818020000000  0.4764650000000 1.0
C      1  0.5121770000000  0.4818020000000  0.5681680000000 1.0
C      1  0.5529450000000  0.4817940000000  0.4553730000000 1.0
C      1  0.5599750000000  0.4684770000000  0.4830410000000 1.0
C      1  0.4553250000000  0.4684800000000  0.4565480000000 1.0
C      1  0.4847020000000  0.4684860000000  0.5604190000000 1.0
C      1  0.4352730000000  0.4847790000000  0.5261520000000 1.0
C      1  0.5550080000000  0.4847750000000  0.5429800000000 1.0
C      1  0.5097160000000  0.4847730000000  0.4308780000000 1.0
C      1  0.4936330000000  0.4481480000000  0.5396550000000 1.0
C      1  0.5375290000000  0.4481300000000  0.4856850000000 1.0
C      1  0.4688380000000  0.4481300000000  0.4746570000000 1.0
C      1  0.5349720000000  0.4666630000000  0.5555260000000 1.0
C      1  0.5305980000000  0.4666580000000  0.4419520000000 1.0
C      1  0.4344270000000  0.4666530000000  0.5025320000000 1.0
C      1  0.5329460000000  0.5582370000000  0.5248680000000 1.0
C      1  0.5050620000000  0.5582350000000  0.4590440000000 1.0
C      1  0.4619950000000  0.5582260000000  0.5160910000000 1.0
C      1  0.4635300000000  0.5279670000000  0.5556440000000 1.0
C      1  0.5664350000000  0.5279730000000  0.5037650000000 1.0
C      1  0.4700440000000  0.5279600000000  0.4405960000000 1.0
C      1  0.4819580000000  0.5333620000000  0.5183400000000 1.0
C      1  0.5249070000000  0.5333500000000  0.5064740000000 1.0
C      1  0.4931400000000  0.5333670000000  0.4752180000000 1.0
END
