TITL C-3985244-725-359 2.49373821626365e-07 125000 -326.339974508516 0 0 60 (D4h) n - 1
REM
REM in /home/nfs/bkarasulu/CARBON/AIRSS/Generating-Clusters/TERSOFF/Higher-Symm/Only-C60
REM
REM
REM
REM
REM
REM ./C.cell (28575a23ae977d3b5fae324c64b13b57)
REM
REM compiler GCC version 9.2.1 20190827 (Red Hat 9.2.1-1)
REM options -cpp -mtune=generic -march=x86-64 -g -O0 -fpre-include=/usr/include/finclude/math-vector-fortran.h
REM seed 1807370388 -1461756908 1849363120 171969230 -1896312349 -1331610275 1265659263 -406727756 731728730 1669655027 1184203719 -878024298 -151128474 -2017068082 -1244192544 2093662820 -1140234349 -983957291 -1786753871 -1750933971 1869533538 -1693200163 -503229846 1243778633 25198635 -440530874 -2076833783 -1466950713 1957363441 905904982 1899867671 -1480917453 1450894810
REM
CELL 1.54180   50.00000   50.00000   50.00000   90.00000   90.00000   90.00000
LATT -1
SFAC C  
C      1  0.4437260000000  0.4675440000000  0.5227600000000 1.0
C      1  0.4675440000000  0.5562740000000  0.5227600000000 1.0
C      1  0.5562740000000  0.5324560000000  0.5227600000000 1.0
C      1  0.5324560000000  0.4437260000000  0.5227600000000 1.0
C      1  0.4437260000000  0.4675440000000  0.4747220000000 1.0
C      1  0.4675440000000  0.5562740000000  0.4747220000000 1.0
C      1  0.5562740000000  0.5324560000000  0.4747220000000 1.0
C      1  0.5324560000000  0.4437260000000  0.4747220000000 1.0
C      1  0.5075870000000  0.4614380000000  0.5698580000000 1.0
C      1  0.4614380000000  0.4924130000000  0.5698580000000 1.0
C      1  0.4924130000000  0.5385620000000  0.5698580000000 1.0
C      1  0.5385620000000  0.5075870000000  0.5698580000000 1.0
C      1  0.5075870000000  0.4614380000000  0.4276240000000 1.0
C      1  0.4614380000000  0.4924130000000  0.4276240000000 1.0
C      1  0.4924130000000  0.5385620000000  0.4276240000000 1.0
C      1  0.5385620000000  0.5075870000000  0.4276240000000 1.0
C      1  0.4809500000000  0.5127860000000  0.5297430000000 1.0
C      1  0.5127860000000  0.5190500000000  0.5297430000000 1.0
C      1  0.5190500000000  0.4872140000000  0.5297430000000 1.0
C      1  0.4872140000000  0.4809500000000  0.5297430000000 1.0
C      1  0.4809500000000  0.5127860000000  0.4677390000000 1.0
C      1  0.5127860000000  0.5190500000000  0.4677390000000 1.0
C      1  0.5190500000000  0.4872140000000  0.4677390000000 1.0
C      1  0.4872140000000  0.4809500000000  0.4677390000000 1.0
C      1  0.4912810000000  0.4356250000000  0.4747220000000 1.0
C      1  0.4356250000000  0.5087190000000  0.4747220000000 1.0
C      1  0.5087190000000  0.5643750000000  0.4747220000000 1.0
C      1  0.5643750000000  0.4912810000000  0.4747220000000 1.0
C      1  0.4912810000000  0.4356250000000  0.5227600000000 1.0
C      1  0.4356250000000  0.5087190000000  0.5227600000000 1.0
C      1  0.5087190000000  0.5643750000000  0.5227600000000 1.0
C      1  0.5643750000000  0.4912810000000  0.5227600000000 1.0
C      1  0.4881290000000  0.5603370000000  0.5483700000000 1.0
C      1  0.5603370000000  0.5118710000000  0.5483700000000 1.0
C      1  0.5118710000000  0.4396630000000  0.5483700000000 1.0
C      1  0.4396630000000  0.4881290000000  0.5483700000000 1.0
C      1  0.4881290000000  0.5603370000000  0.4491120000000 1.0
C      1  0.5603370000000  0.5118710000000  0.4491120000000 1.0
C      1  0.5118710000000  0.4396630000000  0.4491120000000 1.0
C      1  0.4396630000000  0.4881290000000  0.4491120000000 1.0
C      1  0.4731970000000  0.5179900000000  0.4387120000000 1.0
C      1  0.5179900000000  0.5268030000000  0.4387120000000 1.0
C      1  0.5268030000000  0.4820100000000  0.4387120000000 1.0
C      1  0.4820100000000  0.4731970000000  0.4387120000000 1.0
C      1  0.4731970000000  0.5179900000000  0.5587700000000 1.0
C      1  0.5179900000000  0.5268030000000  0.5587700000000 1.0
C      1  0.5268030000000  0.4820100000000  0.5587700000000 1.0
C      1  0.4820100000000  0.4731970000000  0.5587700000000 1.0
C      1  0.5271360000000  0.5404280000000  0.5139160000000 1.0
C      1  0.5404280000000  0.4728640000000  0.5139160000000 1.0
C      1  0.4728640000000  0.4595720000000  0.5139160000000 1.0
C      1  0.4595720000000  0.5271360000000  0.5139160000000 1.0
C      1  0.5271360000000  0.5404280000000  0.4835660000000 1.0
C      1  0.5404280000000  0.4728640000000  0.4835660000000 1.0
C      1  0.4728640000000  0.4595720000000  0.4835660000000 1.0
C      1  0.4595720000000  0.5271360000000  0.4835660000000 1.0
C      1  0.4857290000000  0.5725370000000  0.4987410000000 1.0
C      1  0.5725370000000  0.5142710000000  0.4987410000000 1.0
C      1  0.5142710000000  0.4274630000000  0.4987410000000 1.0
C      1  0.4274630000000  0.4857290000000  0.4987410000000 1.0
END
