TITL C-3985254-1270-1479 1.14615356181201e-07 125000 -346.051555886059 0 0 60 (C5) n - 1
REM
REM in /home/nfs/bkarasulu/CARBON/AIRSS/Generating-Clusters/TERSOFF/Higher-Symm/Only-C60
REM
REM
REM
REM
REM
REM ./C.cell (28575a23ae977d3b5fae324c64b13b57)
REM
REM compiler GCC version 9.2.1 20190827 (Red Hat 9.2.1-1)
REM options -cpp -mtune=generic -march=x86-64 -g -O0 -fpre-include=/usr/include/finclude/math-vector-fortran.h
REM seed -1632699807 -1191232180 -912140140 -415484778 791607494 2002272697 -2133215247 734306789 766095790 -1644905378 -555290045 961193083 1346032442 -1899174374 -282890268 2105789313 1309440666 2133797141 -319679106 2128758606 1402085254 1688234425 -1824051111 1661743553 545217759 -1122624920 1508514874 -1753184974 -1330105829 2132405037 74411347 2090783064 345022721
REM
CELL 1.54180   50.00000   50.00000   50.00000   90.00000   90.00000   90.00000
LATT -1
SFAC C  
C      1  0.5239510000000  0.4890380000000  0.5158630000000 1.0
C      1  0.5178260000000  0.5193910000000  0.5158630000000 1.0
C      1  0.4870670000000  0.5229460000000  0.5158630000000 1.0
C      1  0.4741810000000  0.4947900000000  0.5158630000000 1.0
C      1  0.4969760000000  0.4738340000000  0.5158630000000 1.0
C      1  0.5239510000000  0.4890380000000  0.4841370000000 1.0
C      1  0.5178260000000  0.5193910000000  0.4841370000000 1.0
C      1  0.4870670000000  0.5229460000000  0.4841370000000 1.0
C      1  0.4741810000000  0.4947900000000  0.4841370000000 1.0
C      1  0.4969760000000  0.4738340000000  0.4841370000000 1.0
C      1  0.5492730000000  0.4773930000000  0.4751760000000 1.0
C      1  0.5367260000000  0.5398750000000  0.4751760000000 1.0
C      1  0.4734250000000  0.5472510000000  0.4751760000000 1.0
C      1  0.4468500000000  0.4893270000000  0.4751760000000 1.0
C      1  0.4937260000000  0.4461530000000  0.4751760000000 1.0
C      1  0.5492730000000  0.4773930000000  0.5248240000000 1.0
C      1  0.5367260000000  0.5398750000000  0.5248240000000 1.0
C      1  0.4734250000000  0.5472510000000  0.5248240000000 1.0
C      1  0.4468500000000  0.4893270000000  0.5248240000000 1.0
C      1  0.4937260000000  0.4461530000000  0.5248240000000 1.0
C      1  0.5101350000000  0.5538750000000  0.5625510000000 1.0
C      1  0.4518940000000  0.5262870000000  0.5625510000000 1.0
C      1  0.4601340000000  0.4623720000000  0.5625510000000 1.0
C      1  0.5234670000000  0.4504570000000  0.5625510000000 1.0
C      1  0.5543700000000  0.5070090000000  0.5625510000000 1.0
C      1  0.5101350000000  0.5538750000000  0.4374490000000 1.0
C      1  0.4518940000000  0.5262870000000  0.4374490000000 1.0
C      1  0.4601340000000  0.4623720000000  0.4374490000000 1.0
C      1  0.5234670000000  0.4504570000000  0.4374490000000 1.0
C      1  0.5543700000000  0.5070090000000  0.4374490000000 1.0
C      1  0.5048360000000  0.5257870000000  0.5707840000000 1.0
C      1  0.4769700000000  0.5125680000000  0.5707840000000 1.0
C      1  0.4809310000000  0.4819810000000  0.5707840000000 1.0
C      1  0.5112450000000  0.4762960000000  0.5707840000000 1.0
C      1  0.5260190000000  0.5033690000000  0.5707840000000 1.0
C      1  0.5048360000000  0.5257870000000  0.4292160000000 1.0
C      1  0.4769700000000  0.5125680000000  0.4292160000000 1.0
C      1  0.4809310000000  0.4819810000000  0.4292160000000 1.0
C      1  0.5112450000000  0.4762960000000  0.4292160000000 1.0
C      1  0.5260190000000  0.5033690000000  0.4292160000000 1.0
C      1  0.4324800000000  0.5158990000000  0.5160230000000 1.0
C      1  0.4640140000000  0.4406980000000  0.5160230000000 1.0
C      1  0.5452800000000  0.4474500000000  0.5160230000000 1.0
C      1  0.5639700000000  0.5268250000000  0.5160230000000 1.0
C      1  0.4942560000000  0.5691280000000  0.5160230000000 1.0
C      1  0.4324800000000  0.5158990000000  0.4839770000000 1.0
C      1  0.4640140000000  0.4406980000000  0.4839770000000 1.0
C      1  0.5452800000000  0.4474500000000  0.4839770000000 1.0
C      1  0.5639700000000  0.5268250000000  0.4839770000000 1.0
C      1  0.4942560000000  0.5691280000000  0.4839770000000 1.0
C      1  0.4485400000000  0.4606080000000  0.4650190000000 1.0
C      1  0.5215620000000  0.4388850000000  0.4650190000000 1.0
C      1  0.5647860000000  0.5016210000000  0.4650190000000 1.0
C      1  0.5184780000000  0.5621170000000  0.4650190000000 1.0
C      1  0.4466340000000  0.5367690000000  0.4650190000000 1.0
C      1  0.4485400000000  0.4606080000000  0.5349810000000 1.0
C      1  0.5215620000000  0.4388850000000  0.5349810000000 1.0
C      1  0.5647860000000  0.5016210000000  0.5349810000000 1.0
C      1  0.5184780000000  0.5621170000000  0.5349810000000 1.0
C      1  0.4466340000000  0.5367690000000  0.5349810000000 1.0
END
