TITL C-3985253-1688-604 0.0015825239934189 125000 -357.876748214289 0 0 60 (C1) n - 1
REM
REM in /home/nfs/bkarasulu/CARBON/AIRSS/Generating-Clusters/TERSOFF/Higher-Symm/Only-C60
REM
REM
REM
REM
REM
REM ./C.cell (28575a23ae977d3b5fae324c64b13b57)
REM
REM compiler GCC version 9.2.1 20190827 (Red Hat 9.2.1-1)
REM options -cpp -mtune=generic -march=x86-64 -g -O0 -fpre-include=/usr/include/finclude/math-vector-fortran.h
REM seed -1821996368 1625697255 935329916 1024961671 -611188411 -1604486000 -1674295094 418139389 367337741 -361067698 -2233801 97499370 -1385493205 1549893624 -537888420 463360932 1941737196 1700355051 1191648171 182007017 667773773 -703238414 2126672489 336549001 -1788759604 1567723574 -1943997349 -1194079492 249544363 424014584 811351200 1755543287 1000936999
REM
CELL 1.54180   50.00000   50.00000   50.00000   90.00000   90.00000   90.00000
LATT -1
SFAC C  
C      1  0.4933120000000  0.4836630000000  0.5250460000000 1.0
C      1  0.5216380000000  0.4856450000000  0.4941680000000 1.0
C      1  0.4835040000000  0.4848440000000  0.4767020000000 1.0
C      1  0.5106470000000  0.4705420000000  0.4704900000000 1.0
C      1  0.4742620000000  0.4698680000000  0.5034890000000 1.0
C      1  0.5187820000000  0.4660930000000  0.5179500000000 1.0
C      1  0.4681370000000  0.4763180000000  0.4334870000000 1.0
C      1  0.4579890000000  0.4800630000000  0.5627720000000 1.0
C      1  0.5735560000000  0.4785080000000  0.5044990000000 1.0
C      1  0.5586920000000  0.4608360000000  0.4855430000000 1.0
C      1  0.4581210000000  0.4582540000000  0.4563960000000 1.0
C      1  0.4809810000000  0.4610300000000  0.5598040000000 1.0
C      1  0.5117060000000  0.5514890000000  0.4634330000000 1.0
C      1  0.4619110000000  0.5547670000000  0.5074980000000 1.0
C      1  0.5277840000000  0.5533570000000  0.5295550000000 1.0
C      1  0.5275500000000  0.5484710000000  0.4400930000000 1.0
C      1  0.4336250000000  0.5491230000000  0.5071810000000 1.0
C      1  0.5419880000000  0.5483460000000  0.5539420000000 1.0
C      1  0.4404200000000  0.5291020000000  0.4467630000000 1.0
C      1  0.4856720000000  0.5313310000000  0.5775860000000 1.0
C      1  0.5763000000000  0.5306310000000  0.4738860000000 1.0
C      1  0.4364300000000  0.4683210000000  0.4747910000000 1.0
C      1  0.5084480000000  0.4697150000000  0.5674030000000 1.0
C      1  0.5552770000000  0.4694800000000  0.4566930000000 1.0
C      1  0.5636170000000  0.5295650000000  0.5014960000000 1.0
C      1  0.4707130000000  0.5281670000000  0.4433230000000 1.0
C      1  0.4672680000000  0.5303650000000  0.5531690000000 1.0
C      1  0.5216030000000  0.5377180000000  0.4870380000000 1.0
C      1  0.4731830000000  0.5373430000000  0.4870000000000 1.0
C      1  0.5025460000000  0.5375760000000  0.5301620000000 1.0
C      1  0.4380540000000  0.4994460000000  0.5171490000000 1.0
C      1  0.5450840000000  0.4988180000000  0.5441930000000 1.0
C      1  0.5183490000000  0.4994390000000  0.4345060000000 1.0
C      1  0.4762200000000  0.4370290000000  0.4665120000000 1.0
C      1  0.4783770000000  0.4388060000000  0.5414960000000 1.0
C      1  0.5447270000000  0.4367420000000  0.4959010000000 1.0
C      1  0.4679950000000  0.5088860000000  0.4892710000000 1.0
C      1  0.5028630000000  0.5092240000000  0.5394520000000 1.0
C      1  0.5094940000000  0.5127730000000  0.4964750000000 1.0
C      1  0.4833880000000  0.5472300000000  0.4620590000000 1.0
C      1  0.4761910000000  0.5503290000000  0.5321070000000 1.0
C      1  0.5415700000000  0.5489970000000  0.5042400000000 1.0
C      1  0.5271510000000  0.4746000000000  0.4478390000000 1.0
C      1  0.4454270000000  0.4740180000000  0.5030860000000 1.0
C      1  0.5289070000000  0.4733520000000  0.5453160000000 1.0
C      1  0.4852040000000  0.5020750000000  0.4358780000000 1.0
C      1  0.4529690000000  0.5041010000000  0.5452280000000 1.0
C      1  0.5623960000000  0.5030190000000  0.5175380000000 1.0
C      1  0.5659100000000  0.5162920000000  0.4493120000000 1.0
C      1  0.4248010000000  0.5154000000000  0.4689660000000 1.0
C      1  0.5120360000000  0.5164030000000  0.5804750000000 1.0
C      1  0.5365560000000  0.5215290000000  0.5629040000000 1.0
C      1  0.5386400000000  0.5225100000000  0.4363370000000 1.0
C      1  0.4277240000000  0.5220290000000  0.4990510000000 1.0
C      1  0.4843670000000  0.4422460000000  0.5134400000000 1.0
C      1  0.5142450000000  0.4358540000000  0.5044490000000 1.0
C      1  0.5033620000000  0.4427520000000  0.4759990000000 1.0
C      1  0.4183450000000  0.4878000000000  0.4642630000000 1.0
C      1  0.5101880000000  0.4889550000000  0.5884450000000 1.0
C      1  0.5737990000000  0.4888190000000  0.4467540000000 1.0
END
