TITL C-3985245-9316-225 -8.96945006957017e-05 125000 -312.16609627892 0 0 60 (S4) n - 1
REM
REM in /home/nfs/bkarasulu/CARBON/AIRSS/Generating-Clusters/TERSOFF/Higher-Symm/Only-C60
REM
REM
REM
REM
REM
REM ./C.cell (28575a23ae977d3b5fae324c64b13b57)
REM
REM compiler GCC version 9.2.1 20190827 (Red Hat 9.2.1-1)
REM options -cpp -mtune=generic -march=x86-64 -g -O0 -fpre-include=/usr/include/finclude/math-vector-fortran.h
REM seed 554068826 -1418402945 -428253341 -1962891036 -1366123244 -1204801895 -165154918 -114226839 222955545 709003299 1414823065 725625268 -243428973 -934521130 -1769003362 -1228437040 -778994593 982172762 53524978 -2016440599 1676731238 1548201199 -1841387612 -538478135 149685857 -488007686 1963634622 1063695967 -1257560118 431573278 1891317458 -1395835198 1468214448
REM
CELL 1.54180   50.00000   50.00000   50.00000   90.00000   90.00000   90.00000
LATT -1
SFAC C  
C      1  0.4343400000000  0.4591400000000  0.4907020000000 1.0
C      1  0.4907020000000  0.5408600000000  0.5656570000000 1.0
C      1  0.5656620000000  0.4591400000000  0.5092980000000 1.0
C      1  0.5092980000000  0.5408600000000  0.4343440000000 1.0
C      1  0.5342650000000  0.5269570000000  0.4530420000000 1.0
C      1  0.4530420000000  0.4730430000000  0.4657350000000 1.0
C      1  0.4657350000000  0.5269570000000  0.5469580000000 1.0
C      1  0.5469580000000  0.4730430000000  0.5342650000000 1.0
C      1  0.4809390000000  0.4273860000000  0.4912070000000 1.0
C      1  0.4912090000000  0.5726150000000  0.5190610000000 1.0
C      1  0.5190630000000  0.4273850000000  0.5087920000000 1.0
C      1  0.5087920000000  0.5726150000000  0.4809400000000 1.0
C      1  0.4389920000000  0.5454310000000  0.4964030000000 1.0
C      1  0.4964030000000  0.4545690000000  0.5610080000000 1.0
C      1  0.5610080000000  0.5454310000000  0.5035970000000 1.0
C      1  0.5035970000000  0.4545690000000  0.4389920000000 1.0
C      1  0.5160650000000  0.5329650000000  0.5193600000000 1.0
C      1  0.5193600000000  0.4670350000000  0.4839340000000 1.0
C      1  0.4839350000000  0.5329650000000  0.4806400000000 1.0
C      1  0.4806400000000  0.4670350000000  0.5160660000000 1.0
C      1  0.4927830000000  0.4997950000000  0.4298650000000 1.0
C      1  0.4298650000000  0.5002050000000  0.5072170000000 1.0
C      1  0.5072170000000  0.4997950000000  0.5701350000000 1.0
C      1  0.5701350000000  0.5002050000000  0.4927830000000 1.0
C      1  0.4761200000000  0.4600650000000  0.4866040000000 1.0
C      1  0.4866050000000  0.5399340000000  0.5238840000000 1.0
C      1  0.5238780000000  0.4600650000000  0.5133960000000 1.0
C      1  0.5133950000000  0.5399340000000  0.4761150000000 1.0
C      1  0.4776420000000  0.5004290000000  0.5650400000000 1.0
C      1  0.5650400000000  0.4995710000000  0.5223580000000 1.0
C      1  0.5223580000000  0.5004290000000  0.4349600000000 1.0
C      1  0.4349600000000  0.4995710000000  0.4776420000000 1.0
C      1  0.5220340000000  0.4741460000000  0.5603670000000 1.0
C      1  0.5603670000000  0.5258540000000  0.4779660000000 1.0
C      1  0.4779660000000  0.4741460000000  0.4396330000000 1.0
C      1  0.4396330000000  0.5258540000000  0.5220340000000 1.0
C      1  0.4915920000000  0.4177830000000  0.5223440000000 1.0
C      1  0.5223440000000  0.5822170000000  0.5084080000000 1.0
C      1  0.5084080000000  0.4177830000000  0.4776560000000 1.0
C      1  0.4776560000000  0.5822170000000  0.4915920000000 1.0
C      1  0.5098200000000  0.4451830000000  0.4664620000000 1.0
C      1  0.4664600000000  0.5548160000000  0.4901770000000 1.0
C      1  0.4901770000000  0.4451860000000  0.5335390000000 1.0
C      1  0.5335390000000  0.5548180000000  0.5098210000000 1.0
C      1  0.5328930000000  0.4730060000000  0.4386480000000 1.0
C      1  0.4386480000000  0.5269940000000  0.4671070000000 1.0
C      1  0.4671070000000  0.4730060000000  0.5613520000000 1.0
C      1  0.5613530000000  0.5269940000000  0.5328930000000 1.0
C      1  0.5205000000000  0.5108960000000  0.4966230000000 1.0
C      1  0.4966230000000  0.4891040000000  0.4795000000000 1.0
C      1  0.4795000000000  0.5108960000000  0.5033770000000 1.0
C      1  0.5033770000000  0.4891040000000  0.5205000000000 1.0
C      1  0.4669460000000  0.5294240000000  0.4567600000000 1.0
C      1  0.4567620000000  0.4705750000000  0.5330540000000 1.0
C      1  0.5330540000000  0.5294230000000  0.5432420000000 1.0
C      1  0.5432400000000  0.4705760000000  0.4669460000000 1.0
C      1  0.5681130000000  0.4731530000000  0.4817810000000 1.0
C      1  0.4817810000000  0.5268470000000  0.4318870000000 1.0
C      1  0.4318870000000  0.4731530000000  0.5182190000000 1.0
C      1  0.5182190000000  0.5268470000000  0.5681130000000 1.0
END
