TITL C-3985253-1688-276 2.60737874936001e-07 125000 -337.382420005075 0 0 60 (C5) n - 1
REM
REM in /home/nfs/bkarasulu/CARBON/AIRSS/Generating-Clusters/TERSOFF/Higher-Symm/Only-C60
REM
REM
REM
REM
REM
REM ./C.cell (28575a23ae977d3b5fae324c64b13b57)
REM
REM compiler GCC version 9.2.1 20190827 (Red Hat 9.2.1-1)
REM options -cpp -mtune=generic -march=x86-64 -g -O0 -fpre-include=/usr/include/finclude/math-vector-fortran.h
REM seed -269984464 1230485343 -491415088 1519097404 213832819 899467820 133855914 -1666771155 -466474659 1498641404 -1073386145 -707378706 2103086345 -54462496 -588901664 -498406783 -672411107 1050864056 1256891693 -2100050830 1495983536 1510686561 -601564699 -1982426603 1395402692 820927859 -1256208393 -1406934767 -1118251857 554539820 -902796027 -1702079049 2047703498
REM
CELL 1.54180   50.00000   50.00000   50.00000   90.00000   90.00000   90.00000
LATT -1
SFAC C  
C      1  0.5160660000000  0.4485960000000  0.5502290000000 1.0
C      1  0.5160660000000  0.5318860000000  0.5644100000000 1.0
C      1  0.5160660000000  0.5711110000000  0.4895780000000 1.0
C      1  0.5160660000000  0.5120630000000  0.4291490000000 1.0
C      1  0.5160660000000  0.4363440000000  0.4666330000000 1.0
C      1  0.4839340000000  0.4485960000000  0.5502290000000 1.0
C      1  0.4839340000000  0.5318860000000  0.5644100000000 1.0
C      1  0.4839340000000  0.5711110000000  0.4895780000000 1.0
C      1  0.4839340000000  0.5120630000000  0.4291490000000 1.0
C      1  0.4839340000000  0.4363440000000  0.4666330000000 1.0
C      1  0.5167980000000  0.4239610000000  0.5316500000000 1.0
C      1  0.5167980000000  0.5066030000000  0.5820980000000 1.0
C      1  0.5167980000000  0.5801200000000  0.5190900000000 1.0
C      1  0.5167980000000  0.5429140000000  0.4297000000000 1.0
C      1  0.5167980000000  0.4464020000000  0.4374630000000 1.0
C      1  0.4832020000000  0.4239610000000  0.5316500000000 1.0
C      1  0.4832020000000  0.5066030000000  0.5820980000000 1.0
C      1  0.4832020000000  0.5801200000000  0.5190900000000 1.0
C      1  0.4832020000000  0.5429140000000  0.4297000000000 1.0
C      1  0.4832020000000  0.4464020000000  0.4374630000000 1.0
C      1  0.4666850000000  0.5484090000000  0.4780470000000 1.0
C      1  0.4666850000000  0.4940800000000  0.4471760000000 1.0
C      1  0.4666850000000  0.4479330000000  0.4893070000000 1.0
C      1  0.4666850000000  0.4737400000000  0.5462150000000 1.0
C      1  0.4666850000000  0.5358380000000  0.5392560000000 1.0
C      1  0.5333150000000  0.5484090000000  0.4780470000000 1.0
C      1  0.5333150000000  0.4940800000000  0.4471760000000 1.0
C      1  0.5333150000000  0.4479330000000  0.4893070000000 1.0
C      1  0.5333150000000  0.4737400000000  0.5462150000000 1.0
C      1  0.5333150000000  0.5358380000000  0.5392560000000 1.0
C      1  0.4421710000000  0.5249660000000  0.4895560000000 1.0
C      1  0.4421710000000  0.4977820000000  0.4730290000000 1.0
C      1  0.4421710000000  0.4736630000000  0.4937750000000 1.0
C      1  0.4421710000000  0.4859410000000  0.5231240000000 1.0
C      1  0.4421710000000  0.5176480000000  0.5205160000000 1.0
C      1  0.5578290000000  0.5249660000000  0.4895560000000 1.0
C      1  0.5578290000000  0.4977820000000  0.4730290000000 1.0
C      1  0.5578290000000  0.4736630000000  0.4937750000000 1.0
C      1  0.5578290000000  0.4859410000000  0.5231240000000 1.0
C      1  0.5578290000000  0.5176480000000  0.5205160000000 1.0
C      1  0.5342170000000  0.4855910000000  0.5731880000000 1.0
C      1  0.5342170000000  0.5651530000000  0.5363200000000 1.0
C      1  0.5342170000000  0.5546760000000  0.4492590000000 1.0
C      1  0.5342170000000  0.4686380000000  0.4323210000000 1.0
C      1  0.5342170000000  0.4259420000000  0.5089130000000 1.0
C      1  0.4657830000000  0.4855910000000  0.5731880000000 1.0
C      1  0.4657830000000  0.5651530000000  0.5363200000000 1.0
C      1  0.4657830000000  0.5546760000000  0.4492590000000 1.0
C      1  0.4657830000000  0.4686380000000  0.4323210000000 1.0
C      1  0.4657830000000  0.4259420000000  0.5089130000000 1.0
C      1  0.5159030000000  0.5246000000000  0.4883150000000 1.0
C      1  0.5159030000000  0.4964890000000  0.4729930000000 1.0
C      1  0.5159030000000  0.4732300000000  0.4949940000000 1.0
C      1  0.5159030000000  0.4869660000000  0.5239130000000 1.0
C      1  0.5159030000000  0.5187150000000  0.5197850000000 1.0
C      1  0.4840970000000  0.5246000000000  0.4883150000000 1.0
C      1  0.4840970000000  0.4964890000000  0.4729930000000 1.0
C      1  0.4840970000000  0.4732300000000  0.4949940000000 1.0
C      1  0.4840970000000  0.4869660000000  0.5239130000000 1.0
C      1  0.4840970000000  0.5187150000000  0.5197850000000 1.0
END
