TITL C-3985252-168-465 -2.99554584755446e-07 125000 -350.533476215144 0 0 60 (D4) n - 1
REM
REM in /home/nfs/bkarasulu/CARBON/AIRSS/Generating-Clusters/TERSOFF/Higher-Symm/Only-C60
REM
REM
REM
REM
REM
REM ./C.cell (28575a23ae977d3b5fae324c64b13b57)
REM
REM compiler GCC version 9.2.1 20190827 (Red Hat 9.2.1-1)
REM options -cpp -mtune=generic -march=x86-64 -g -O0 -fpre-include=/usr/include/finclude/math-vector-fortran.h
REM seed 216125625 44379801 -1762808931 1831657232 1163061987 1940474172 -304779255 447983698 208169079 -999224177 674741058 -1192649963 -1602087563 -794443533 -921461190 -2093523139 -332902373 -463347233 -1563818628 -2138160513 611941990 966304894 -414888725 -230842485 -1134273424 563703090 786652647 -476472982 -518713040 -1941680021 1063361998 -349180332 -1989281776
REM
CELL 1.54180   50.00000   50.00000   50.00000   90.00000   90.00000   90.00000
LATT -1
SFAC C  
C      1  0.4714040000000  0.4497150000000  0.5433210000000 1.0
C      1  0.4714040000000  0.5433210000000  0.5502850000000 1.0
C      1  0.4714040000000  0.5502850000000  0.4566790000000 1.0
C      1  0.4714040000000  0.4566790000000  0.4497150000000 1.0
C      1  0.5307400000000  0.4497150000000  0.4566790000000 1.0
C      1  0.5307400000000  0.5433210000000  0.4497150000000 1.0
C      1  0.5307400000000  0.5502850000000  0.5433210000000 1.0
C      1  0.5307400000000  0.4566790000000  0.5502850000000 1.0
C      1  0.4723020000000  0.4889100000000  0.4811320000000 1.0
C      1  0.4723020000000  0.4811320000000  0.5110900000000 1.0
C      1  0.4723020000000  0.5110900000000  0.5188680000000 1.0
C      1  0.4723020000000  0.5188680000000  0.4889100000000 1.0
C      1  0.5298420000000  0.4889100000000  0.5188680000000 1.0
C      1  0.5298420000000  0.4811320000000  0.4889100000000 1.0
C      1  0.5298420000000  0.5110900000000  0.4811320000000 1.0
C      1  0.5298420000000  0.5188680000000  0.5110900000000 1.0
C      1  0.5117870000000  0.4768850000000  0.5389250000000 1.0
C      1  0.5117870000000  0.5389250000000  0.5231150000000 1.0
C      1  0.5117870000000  0.5231150000000  0.4610750000000 1.0
C      1  0.5117870000000  0.4610750000000  0.4768850000000 1.0
C      1  0.4903580000000  0.4768850000000  0.4610750000000 1.0
C      1  0.4903580000000  0.5389250000000  0.4768850000000 1.0
C      1  0.4903580000000  0.5231150000000  0.5389250000000 1.0
C      1  0.4903580000000  0.4610750000000  0.5231150000000 1.0
C      1  0.4562800000000  0.4725090000000  0.5544640000000 1.0
C      1  0.4562800000000  0.5544640000000  0.5274910000000 1.0
C      1  0.4562800000000  0.5274910000000  0.4455360000000 1.0
C      1  0.4562800000000  0.4455360000000  0.4725090000000 1.0
C      1  0.5458650000000  0.4725090000000  0.4455360000000 1.0
C      1  0.5458650000000  0.5544640000000  0.4725090000000 1.0
C      1  0.5458650000000  0.5274910000000  0.5544640000000 1.0
C      1  0.5458650000000  0.4455360000000  0.5274910000000 1.0
C      1  0.5743580000000  0.5119390000000  0.4654950000000 1.0
C      1  0.5743580000000  0.4654950000000  0.4880610000000 1.0
C      1  0.5743580000000  0.4880610000000  0.5345050000000 1.0
C      1  0.5743580000000  0.5345050000000  0.5119390000000 1.0
C      1  0.4277860000000  0.5119390000000  0.5345050000000 1.0
C      1  0.4277860000000  0.4654950000000  0.5119390000000 1.0
C      1  0.4277860000000  0.4880610000000  0.4654950000000 1.0
C      1  0.4277860000000  0.5345050000000  0.4880610000000 1.0
C      1  0.5271660000000  0.5695690000000  0.4903170000000 1.0
C      1  0.5271660000000  0.4903170000000  0.4304310000000 1.0
C      1  0.5271660000000  0.4304310000000  0.5096830000000 1.0
C      1  0.5271660000000  0.5096830000000  0.5695690000000 1.0
C      1  0.4749780000000  0.5695690000000  0.5096830000000 1.0
C      1  0.4749780000000  0.4903170000000  0.5695690000000 1.0
C      1  0.4749780000000  0.4304310000000  0.4903170000000 1.0
C      1  0.4749780000000  0.5096830000000  0.4304310000000 1.0
C      1  0.4370110000000  0.4837390000000  0.5336990000000 1.0
C      1  0.4370110000000  0.5336990000000  0.5162610000000 1.0
C      1  0.4370110000000  0.5162610000000  0.4663010000000 1.0
C      1  0.4370110000000  0.4663010000000  0.4837390000000 1.0
C      1  0.5651340000000  0.4837390000000  0.4663010000000 1.0
C      1  0.5651340000000  0.5336990000000  0.4837390000000 1.0
C      1  0.5651340000000  0.5162610000000  0.5336990000000 1.0
C      1  0.5651340000000  0.4663010000000  0.5162610000000 1.0
C      1  0.5010720000000  0.5569720000000  0.5000000000000 1.0
C      1  0.5010720000000  0.5000000000000  0.4430280000000 1.0
C      1  0.5010720000000  0.4430280000000  0.5000000000000 1.0
C      1  0.5010720000000  0.5000000000000  0.5569720000000 1.0
END
