TITL C-3985254-1270-164 -0.00012574287210556 125000 -318.629768411276 0 0 60 (C3i) n - 1
REM
REM in /home/nfs/bkarasulu/CARBON/AIRSS/Generating-Clusters/TERSOFF/Higher-Symm/Only-C60
REM
REM
REM
REM
REM
REM ./C.cell (28575a23ae977d3b5fae324c64b13b57)
REM
REM compiler GCC version 9.2.1 20190827 (Red Hat 9.2.1-1)
REM options -cpp -mtune=generic -march=x86-64 -g -O0 -fpre-include=/usr/include/finclude/math-vector-fortran.h
REM seed -1212907160 -549269700 173180756 168229714 -2001957658 384132579 1697636655 -2103030359 1067231026 1553119346 2032968742 408205212 1259982225 1544709219 -17365530 -1561254358 -1454036609 -66381039 -1100328785 1860362359 -111373547 -1352749710 -258024417 -1436590069 -1256707119 50664852 -609279841 -1602920518 -615066065 1640299526 1562037169 1723042050 -653966574
REM
CELL 1.54180   50.00000   50.00000   50.00000   90.00000   90.00000   90.00000
LATT -1
SFAC C  
C      1  0.4896790000000  0.5100680000000  0.5697500000000 1.0
C      1  0.4345530000000  0.4900980000000  0.5259510000000 1.0
C      1  0.4448150000000  0.5099750000000  0.4562630000000 1.0
C      1  0.5103210000000  0.4899320000000  0.4302500000000 1.0
C      1  0.5654470000000  0.5099020000000  0.4740490000000 1.0
C      1  0.5551850000000  0.4900250000000  0.5437370000000 1.0
C      1  0.4677300000000  0.4381850000000  0.4951780000000 1.0
C      1  0.4880220000000  0.5618390000000  0.4697430000000 1.0
C      1  0.5203530000000  0.4380790000000  0.4743760000000 1.0
C      1  0.5322700000000  0.5618150000000  0.5048220000000 1.0
C      1  0.5119770000000  0.4381610000000  0.5302570000000 1.0
C      1  0.4796460000000  0.5619210000000  0.5256240000000 1.0
C      1  0.4818380000000  0.5291910000000  0.5233210000000 1.0
C      1  0.4709740000000  0.4709110000000  0.4958770000000 1.0
C      1  0.4888900000000  0.5291080000000  0.4729370000000 1.0
C      1  0.5181620000000  0.4708090000000  0.4766790000000 1.0
C      1  0.5290260000000  0.5290870000000  0.5041210000000 1.0
C      1  0.5111100000000  0.4708920000000  0.5270630000000 1.0
C      1  0.5135680000000  0.5311980000000  0.4373520000000 1.0
C      1  0.5612920000000  0.4686080000000  0.4804810000000 1.0
C      1  0.5474900000000  0.5313080000000  0.5432360000000 1.0
C      1  0.4864330000000  0.4688030000000  0.5626480000000 1.0
C      1  0.4387080000000  0.5313920000000  0.5195180000000 1.0
C      1  0.4525120000000  0.4686920000000  0.4567660000000 1.0
C      1  0.4361330000000  0.4604460000000  0.5303970000000 1.0
C      1  0.4417330000000  0.5396600000000  0.4598330000000 1.0
C      1  0.5055920000000  0.4602770000000  0.4293960000000 1.0
C      1  0.5638670000000  0.5395540000000  0.4696030000000 1.0
C      1  0.5582670000000  0.4603400000000  0.5401670000000 1.0
C      1  0.4944080000000  0.5397230000000  0.5706050000000 1.0
C      1  0.5303160000000  0.5557510000000  0.5365430000000 1.0
C      1  0.4835720000000  0.4443720000000  0.5444430000000 1.0
C      1  0.4531650000000  0.5557780000000  0.5080020000000 1.0
C      1  0.4696820000000  0.4442470000000  0.4634580000000 1.0
C      1  0.5164280000000  0.5556280000000  0.4555570000000 1.0
C      1  0.5468340000000  0.4442210000000  0.4919980000000 1.0
C      1  0.4577670000000  0.5567180000000  0.4783680000000 1.0
C      1  0.4976280000000  0.4432710000000  0.4525860000000 1.0
C      1  0.5398140000000  0.5565650000000  0.4743030000000 1.0
C      1  0.5422320000000  0.4432820000000  0.5216320000000 1.0
C      1  0.5023720000000  0.5567290000000  0.5474140000000 1.0
C      1  0.4601860000000  0.4434350000000  0.5256970000000 1.0
C      1  0.4841220000000  0.5212500000000  0.4432070000000 1.0
C      1  0.5417010000000  0.4786670000000  0.4577150000000 1.0
C      1  0.5572150000000  0.5211980000000  0.5148620000000 1.0
C      1  0.5158780000000  0.4787510000000  0.5567920000000 1.0
C      1  0.4582990000000  0.5213330000000  0.5422850000000 1.0
C      1  0.4427850000000  0.4788020000000  0.4851380000000 1.0
C      1  0.4721350000000  0.4931040000000  0.4473970000000 1.0
C      1  0.5313660000000  0.5067370000000  0.4497420000000 1.0
C      1  0.5593030000000  0.4931220000000  0.5020730000000 1.0
C      1  0.5278650000000  0.5068960000000  0.5526030000000 1.0
C      1  0.4686340000000  0.4932630000000  0.5502590000000 1.0
C      1  0.4406980000000  0.5068780000000  0.4979260000000 1.0
C      1  0.4718050000000  0.5199840000000  0.4963800000000 1.0
C      1  0.4892580000000  0.4799950000000  0.4735860000000 1.0
C      1  0.5172500000000  0.5198870000000  0.4775950000000 1.0
C      1  0.5281950000000  0.4800160000000  0.5036190000000 1.0
C      1  0.5107420000000  0.5200070000000  0.5264140000000 1.0
C      1  0.4827500000000  0.4801130000000  0.5224050000000 1.0
END
