TITL C-3985251-913-124 0.0115732212975538 125000 -304.714397017372 0 0 60 (C1) n - 1
REM
REM in /home/nfs/bkarasulu/CARBON/AIRSS/Generating-Clusters/TERSOFF/Higher-Symm/Only-C60
REM
REM
REM
REM
REM
REM ./C.cell (28575a23ae977d3b5fae324c64b13b57)
REM
REM compiler GCC version 9.2.1 20190827 (Red Hat 9.2.1-1)
REM options -cpp -mtune=generic -march=x86-64 -g -O0 -fpre-include=/usr/include/finclude/math-vector-fortran.h
REM seed -459219849 1992034557 2040427464 584699298 1374918169 682246009 -866384164 430664098 -1930622460 -179989059 175439649 615098975 1025508483 882356569 -347847410 -1733016112 741305660 844983227 -1985562764 -1965042609 -1033200176 1628670814 -1059329202 904092751 1409632110 -483719535 352755133 -359091715 -635281184 1544585021 -1783942878 637272447 1756481298
REM
CELL 1.54180   50.00000   50.00000   50.00000   90.00000   90.00000   90.00000
LATT -1
SFAC C  
C      1  0.4489840000000  0.5432040000000  0.4891230000000 1.0
C      1  0.4384820000000  0.4628460000000  0.4933170000000 1.0
C      1  0.5167340000000  0.5457230000000  0.5654740000000 1.0
C      1  0.4995410000000  0.4808670000000  0.5675870000000 1.0
C      1  0.4977350000000  0.5136730000000  0.4726060000000 1.0
C      1  0.4367300000000  0.4923340000000  0.5386140000000 1.0
C      1  0.5208040000000  0.5149420000000  0.5142810000000 1.0
C      1  0.5541210000000  0.5278330000000  0.4527480000000 1.0
C      1  0.5231090000000  0.5254480000000  0.4392280000000 1.0
C      1  0.4469060000000  0.5060060000000  0.4535830000000 1.0
C      1  0.4541470000000  0.5339320000000  0.4586800000000 1.0
C      1  0.4684490000000  0.5023690000000  0.5061370000000 1.0
C      1  0.5159660000000  0.4600980000000  0.5478030000000 1.0
C      1  0.5512620000000  0.4515610000000  0.5065640000000 1.0
C      1  0.5540000000000  0.4987490000000  0.4854530000000 1.0
C      1  0.5066780000000  0.4228680000000  0.5106080000000 1.0
C      1  0.4835360000000  0.4735370000000  0.4382970000000 1.0
C      1  0.4428870000000  0.4607100000000  0.5257980000000 1.0
C      1  0.4929880000000  0.5356830000000  0.5241610000000 1.0
C      1  0.4942580000000  0.4673920000000  0.5266320000000 1.0
C      1  0.5645220000000  0.4793930000000  0.5057700000000 1.0
C      1  0.5639170000000  0.4631370000000  0.4570920000000 1.0
C      1  0.4644860000000  0.5256580000000  0.5641780000000 1.0
C      1  0.5205750000000  0.4964900000000  0.4862510000000 1.0
C      1  0.4816870000000  0.5327870000000  0.4919640000000 1.0
C      1  0.4698680000000  0.4484750000000  0.5291980000000 1.0
C      1  0.4379620000000  0.4969590000000  0.5052530000000 1.0
C      1  0.4557120000000  0.5735530000000  0.5335410000000 1.0
C      1  0.5700900000000  0.4958150000000  0.4586060000000 1.0
C      1  0.4768670000000  0.4284440000000  0.5088030000000 1.0
C      1  0.5030370000000  0.5495920000000  0.4489980000000 1.0
C      1  0.5273430000000  0.4416920000000  0.5238230000000 1.0
C      1  0.4578600000000  0.5454160000000  0.5239200000000 1.0
C      1  0.5458850000000  0.4481150000000  0.4774600000000 1.0
C      1  0.5145520000000  0.4478080000000  0.4710260000000 1.0
C      1  0.5110930000000  0.5563490000000  0.5381890000000 1.0
C      1  0.4644630000000  0.4829690000000  0.5592790000000 1.0
C      1  0.5692190000000  0.4961140000000  0.5279020000000 1.0
C      1  0.4632680000000  0.4412460000000  0.4840290000000 1.0
C      1  0.5287650000000  0.4942630000000  0.4521630000000 1.0
C      1  0.5419370000000  0.5127670000000  0.5606890000000 1.0
C      1  0.5193720000000  0.5721930000000  0.4930670000000 1.0
C      1  0.5468210000000  0.4700470000000  0.4323230000000 1.0
C      1  0.5149200000000  0.4646520000000  0.4428630000000 1.0
C      1  0.4824820000000  0.4454990000000  0.4612550000000 1.0
C      1  0.5523940000000  0.5427740000000  0.5149330000000 1.0
C      1  0.5489410000000  0.5164540000000  0.5328040000000 1.0
C      1  0.5041930000000  0.4697960000000  0.4930480000000 1.0
C      1  0.5317650000000  0.5637100000000  0.5181330000000 1.0
C      1  0.5588550000000  0.5316160000000  0.4866830000000 1.0
C      1  0.4742590000000  0.5473680000000  0.4415520000000 1.0
C      1  0.4276840000000  0.5215910000000  0.4934040000000 1.0
C      1  0.4805370000000  0.4939370000000  0.5325170000000 1.0
C      1  0.4909950000000  0.5088380000000  0.4414880000000 1.0
C      1  0.4894360000000  0.5178290000000  0.5504530000000 1.0
C      1  0.4637870000000  0.4831030000000  0.4604340000000 1.0
C      1  0.4427500000000  0.5246380000000  0.5441580000000 1.0
C      1  0.5137720000000  0.5127890000000  0.5706040000000 1.0
C      1  0.4756340000000  0.4810900000000  0.4872980000000 1.0
C      1  0.5009750000000  0.5552570000000  0.4781520000000 1.0
END
