TITL C-3985248-2097-201 -0.000108302675558741 125000 -325.240878160715 0 0 60 (C2) n - 1
REM
REM in /home/nfs/bkarasulu/CARBON/AIRSS/Generating-Clusters/TERSOFF/Higher-Symm/Only-C60
REM
REM
REM
REM
REM
REM ./C.cell (28575a23ae977d3b5fae324c64b13b57)
REM
REM compiler GCC version 9.2.1 20190827 (Red Hat 9.2.1-1)
REM options -cpp -mtune=generic -march=x86-64 -g -O0 -fpre-include=/usr/include/finclude/math-vector-fortran.h
REM seed -190571731 1909406831 1536225932 1415850994 -749340191 -681742044 -586420445 1489386277 -573636820 1324021747 360792675 -1451398161 1011833976 -1042039491 1714895252 620993623 448255659 1019849811 -141623467 1061943123 419294734 892326623 -1600621744 -1748621632 -1649129656 -2057607501 -1846888990 -448086725 2056569738 1927931288 1358057264 -164521911 1632733697
REM
CELL 1.54180   50.00000   50.00000   50.00000   90.00000   90.00000   90.00000
LATT -1
SFAC C  
C      1  0.5000460000000  0.5176350000000  0.5706750000000 1.0
C      1  0.4755330000000  0.5164490000000  0.5543540000000 1.0
C      1  0.4312460000000  0.5114320000000  0.5189920000000 1.0
C      1  0.4339730000000  0.5140540000000  0.4861850000000 1.0
C      1  0.4736950000000  0.5167680000000  0.4453690000000 1.0
C      1  0.4999540000000  0.5176350000000  0.4293250000000 1.0
C      1  0.5244670000000  0.5164490000000  0.4456460000000 1.0
C      1  0.5687550000000  0.5114310000000  0.4810080000000 1.0
C      1  0.5660270000000  0.5140530000000  0.5138150000000 1.0
C      1  0.5263060000000  0.5167680000000  0.5546310000000 1.0
C      1  0.4298890000000  0.4943260000000  0.5660490000000 1.0
C      1  0.4028910000000  0.4736900000000  0.5008390000000 1.0
C      1  0.4182160000000  0.4886730000000  0.4464260000000 1.0
C      1  0.4677430000000  0.4799510000000  0.4102780000000 1.0
C      1  0.5203730000000  0.4801940000000  0.4040410000000 1.0
C      1  0.5701100000000  0.4943260000000  0.4339510000000 1.0
C      1  0.5971080000000  0.4736890000000  0.4991610000000 1.0
C      1  0.5817850000000  0.4886720000000  0.5535740000000 1.0
C      1  0.5322580000000  0.4799510000000  0.5897220000000 1.0
C      1  0.4796270000000  0.4801940000000  0.5959590000000 1.0
C      1  0.4540850000000  0.4837130000000  0.5218270000000 1.0
C      1  0.4513070000000  0.4863680000000  0.4874510000000 1.0
C      1  0.4693540000000  0.4880960000000  0.4604600000000 1.0
C      1  0.4948910000000  0.4723460000000  0.4541740000000 1.0
C      1  0.5236020000000  0.4859330000000  0.4558560000000 1.0
C      1  0.5459150000000  0.4837120000000  0.4781730000000 1.0
C      1  0.5486930000000  0.4863670000000  0.5125490000000 1.0
C      1  0.5306460000000  0.4880960000000  0.5395410000000 1.0
C      1  0.5051090000000  0.4723450000000  0.5458260000000 1.0
C      1  0.4763980000000  0.4859330000000  0.5441440000000 1.0
C      1  0.5959370000000  0.4969350000000  0.4816640000000 1.0
C      1  0.5871380000000  0.5088660000000  0.5336850000000 1.0
C      1  0.5408380000000  0.5065710000000  0.5802540000000 1.0
C      1  0.4976020000000  0.5028790000000  0.5958180000000 1.0
C      1  0.4498620000000  0.5150230000000  0.5705260000000 1.0
C      1  0.4040630000000  0.4969360000000  0.5183360000000 1.0
C      1  0.4128620000000  0.5088670000000  0.4663150000000 1.0
C      1  0.4591620000000  0.5065710000000  0.4197470000000 1.0
C      1  0.5023970000000  0.5028780000000  0.4041820000000 1.0
C      1  0.5501380000000  0.5150230000000  0.4294740000000 1.0
C      1  0.4445160000000  0.4764620000000  0.4450880000000 1.0
C      1  0.4861750000000  0.4634000000000  0.4263520000000 1.0
C      1  0.5326200000000  0.4724720000000  0.4292300000000 1.0
C      1  0.5683600000000  0.4769160000000  0.4571130000000 1.0
C      1  0.5732040000000  0.4674030000000  0.5146090000000 1.0
C      1  0.5554840000000  0.4764610000000  0.5549120000000 1.0
C      1  0.5138240000000  0.4634000000000  0.5736480000000 1.0
C      1  0.4673800000000  0.4724720000000  0.5707690000000 1.0
C      1  0.4316400000000  0.4769160000000  0.5428870000000 1.0
C      1  0.4267950000000  0.4674030000000  0.4853910000000 1.0
C      1  0.4751750000000  0.5366580000000  0.5328530000000 1.0
C      1  0.4512020000000  0.5377950000000  0.5162090000000 1.0
C      1  0.4509240000000  0.5400990000000  0.4843100000000 1.0
C      1  0.4735140000000  0.5392460000000  0.4660250000000 1.0
C      1  0.4997050000000  0.5496500000000  0.4741960000000 1.0
C      1  0.5248260000000  0.5366580000000  0.4671470000000 1.0
C      1  0.5487980000000  0.5377950000000  0.4837920000000 1.0
C      1  0.5490760000000  0.5400990000000  0.5156900000000 1.0
C      1  0.5264870000000  0.5392450000000  0.5339750000000 1.0
C      1  0.5002960000000  0.5496490000000  0.5258040000000 1.0
END
