TITL C-3985259-1859-416 -0.00047899065144749 125000 -329.897796577169 0 0 60 (C5) n - 1
REM
REM in /home/nfs/bkarasulu/CARBON/AIRSS/Generating-Clusters/TERSOFF/Higher-Symm/Only-C60
REM
REM
REM
REM
REM
REM ./C.cell (28575a23ae977d3b5fae324c64b13b57)
REM
REM compiler GCC version 9.2.1 20190827 (Red Hat 9.2.1-1)
REM options -cpp -mtune=generic -march=x86-64 -g -O0 -fpre-include=/usr/include/finclude/math-vector-fortran.h
REM seed -709766049 -193193440 1673049203 1328693067 -1803926232 -693821817 649566155 1160836607 -1752034101 -1418937199 1006068378 -1887733010 -889870501 -1129072761 -94507102 33071766 -891218327 1143608334 11907205 360306496 -289936775 -1284311956 790645026 937939384 -1319728121 295158053 1222184371 769878717 1382670117 696009611 -1625953749 811956951 1126880843
REM
CELL 1.54180   50.00000   50.00000   50.00000   90.00000   90.00000   90.00000
LATT -1
SFAC C  
C      1  0.4601440000000  0.4557320000000  0.4641830000000 1.0
C      1  0.4536170000000  0.4557280000000  0.5268540000000 1.0
C      1  0.5112090000000  0.4557190000000  0.5524140000000 1.0
C      1  0.5533020000000  0.4557180000000  0.5055470000000 1.0
C      1  0.5217510000000  0.4557260000000  0.4510340000000 1.0
C      1  0.4796630000000  0.4405040000000  0.4826190000000 1.0
C      1  0.4771820000000  0.4405030000000  0.5139800000000 1.0
C      1  0.5062430000000  0.4404920000000  0.5260280000000 1.0
C      1  0.5266790000000  0.4404880000000  0.5021140000000 1.0
C      1  0.5102520000000  0.4404950000000  0.4752890000000 1.0
C      1  0.5380940000000  0.4782610000000  0.4612540000000 1.0
C      1  0.4749180000000  0.4782600000000  0.4517830000000 1.0
C      1  0.4463850000000  0.4782490000000  0.5089620000000 1.0
C      1  0.4919620000000  0.4782400000000  0.5537540000000 1.0
C      1  0.5486240000000  0.4782490000000  0.5242510000000 1.0
C      1  0.5769100000000  0.4948750000000  0.4792920000000 1.0
C      1  0.5040810000000  0.4948660000000  0.4204460000000 1.0
C      1  0.4256020000000  0.4948810000000  0.4715360000000 1.0
C      1  0.4499340000000  0.4948880000000  0.5619660000000 1.0
C      1  0.5434650000000  0.4948840000000  0.5667590000000 1.0
C      1  0.4597540000000  0.4999450000000  0.4391130000000 1.0
C      1  0.4296550000000  0.4999420000000  0.5194620000000 1.0
C      1  0.4967740000000  0.4999300000000  0.5729120000000 1.0
C      1  0.5683410000000  0.4999310000000  0.5255970000000 1.0
C      1  0.5454670000000  0.4999340000000  0.4429090000000 1.0
C      1  0.4415000000000  0.5154490000000  0.4562770000000 1.0
C      1  0.4403370000000  0.5154500000000  0.5421240000000 1.0
C      1  0.5216260000000  0.5154430000000  0.5697590000000 1.0
C      1  0.5730240000000  0.5154410000000  0.5009870000000 1.0
C      1  0.5235070000000  0.5154390000000  0.4308450000000 1.0
C      1  0.4736540000000  0.5204640000000  0.5013740000000 1.0
C      1  0.4931730000000  0.5204560000000  0.5254760000000 1.0
C      1  0.5221290000000  0.5204770000000  0.5143610000000 1.0
C      1  0.5205070000000  0.5204990000000  0.4833860000000 1.0
C      1  0.4905450000000  0.5204880000000  0.4753590000000 1.0
C      1  0.5558340000000  0.5439460000000  0.4967640000000 1.0
C      1  0.5141690000000  0.5439400000000  0.4458930000000 1.0
C      1  0.4529240000000  0.5439480000000  0.4698120000000 1.0
C      1  0.4567400000000  0.5439500000000  0.5354400000000 1.0
C      1  0.5203290000000  0.5439480000000  0.5520980000000 1.0
C      1  0.5067900000000  0.5601140000000  0.4748220000000 1.0
C      1  0.4781520000000  0.5601170000000  0.4857600000000 1.0
C      1  0.4797070000000  0.5601210000000  0.5163810000000 1.0
C      1  0.5093060000000  0.5601280000000  0.5243610000000 1.0
C      1  0.5260440000000  0.5601180000000  0.4986790000000 1.0
C      1  0.5202880000000  0.4887330000000  0.4819220000000 1.0
C      1  0.4890740000000  0.4887220000000  0.4751120000000 1.0
C      1  0.4729510000000  0.4886980000000  0.5026960000000 1.0
C      1  0.4942040000000  0.4886910000000  0.5265540000000 1.0
C      1  0.5234580000000  0.4887120000000  0.5137110000000 1.0
C      1  0.5376570000000  0.4656520000000  0.5627480000000 1.0
C      1  0.5713060000000  0.4656440000000  0.4835870000000 1.0
C      1  0.5064350000000  0.4656380000000  0.4271180000000 1.0
C      1  0.4326670000000  0.4656520000000  0.4713570000000 1.0
C      1  0.4519540000000  0.4656580000000  0.5552000000000 1.0
C      1  0.4813970000000  0.5363760000000  0.4512810000000 1.0
C      1  0.4479340000000  0.5363550000000  0.5026370000000 1.0
C      1  0.4864070000000  0.5363440000000  0.5503220000000 1.0
C      1  0.5436670000000  0.5363620000000  0.5284820000000 1.0
C      1  0.5405950000000  0.5363830000000  0.4672550000000 1.0
END
