TITL C-3985259-1859-900 -1.52851478181117e-05 125000 -312.758473257819 0 0 60 (S4) n - 1
REM
REM in /home/nfs/bkarasulu/CARBON/AIRSS/Generating-Clusters/TERSOFF/Higher-Symm/Only-C60
REM
REM
REM
REM
REM
REM ./C.cell (28575a23ae977d3b5fae324c64b13b57)
REM
REM compiler GCC version 9.2.1 20190827 (Red Hat 9.2.1-1)
REM options -cpp -mtune=generic -march=x86-64 -g -O0 -fpre-include=/usr/include/finclude/math-vector-fortran.h
REM seed 1767885433 -1343522553 1812840516 -443822387 1283943484 1423089273 1171358876 2070436105 97095554 1786003483 -230529370 -361491317 13577944 445549359 -1417377963 335166599 -255064112 -1437333653 1812741792 -482576506 -1982638021 846688926 -1771090638 -834789178 623277455 -952718300 -1169864616 173932764 -1053202183 -1051453676 1718219605 -376617798 610083117
REM
CELL 1.54180   50.00000   50.00000   50.00000   90.00000   90.00000   90.00000
LATT -1
SFAC C  
C      1  0.5250630000000  0.5552120000000  0.4681520000000 1.0
C      1  0.5318480000000  0.4447880000000  0.5250630000000 1.0
C      1  0.4749370000000  0.5552120000000  0.5318480000000 1.0
C      1  0.4681520000000  0.4447880000000  0.4749370000000 1.0
C      1  0.5436980000000  0.5698750000000  0.4869970000000 1.0
C      1  0.5130030000000  0.4301250000000  0.5436980000000 1.0
C      1  0.4563020000000  0.5698750000000  0.5130030000000 1.0
C      1  0.4869970000000  0.4301250000000  0.4563020000000 1.0
C      1  0.5484800000000  0.4735050000000  0.4873790000000 1.0
C      1  0.5126210000000  0.5264950000000  0.5484800000000 1.0
C      1  0.4515200000000  0.4735050000000  0.5126210000000 1.0
C      1  0.4873790000000  0.5264950000000  0.4515200000000 1.0
C      1  0.4893490000000  0.4746640000000  0.4434370000000 1.0
C      1  0.5565630000000  0.5253360000000  0.4893490000000 1.0
C      1  0.5106510000000  0.4746640000000  0.5565630000000 1.0
C      1  0.4434370000000  0.5253360000000  0.5106510000000 1.0
C      1  0.4623690000000  0.5713350000000  0.4492910000000 1.0
C      1  0.5507090000000  0.4286650000000  0.4623690000000 1.0
C      1  0.5376310000000  0.5713350000000  0.5507090000000 1.0
C      1  0.4492910000000  0.4286650000000  0.5376310000000 1.0
C      1  0.5053940000000  0.5292570000000  0.5769220000000 1.0
C      1  0.4230780000000  0.4707420000000  0.5053940000000 1.0
C      1  0.4946060000000  0.5292580000000  0.4230780000000 1.0
C      1  0.5769220000000  0.4707430000000  0.4946060000000 1.0
C      1  0.5055800000000  0.5072010000000  0.4657310000000 1.0
C      1  0.5342690000000  0.4927990000000  0.5055800000000 1.0
C      1  0.4944200000000  0.5072010000000  0.5342690000000 1.0
C      1  0.4657310000000  0.4927990000000  0.4944200000000 1.0
C      1  0.5161530000000  0.4457210000000  0.4986220000000 1.0
C      1  0.5013780000000  0.5542790000000  0.5161530000000 1.0
C      1  0.4838470000000  0.4457210000000  0.5013780000000 1.0
C      1  0.4986220000000  0.5542790000000  0.4838470000000 1.0
C      1  0.5372050000000  0.4720280000000  0.5419590000000 1.0
C      1  0.4580410000000  0.5279720000000  0.5372050000000 1.0
C      1  0.4627950000000  0.4720280000000  0.4580410000000 1.0
C      1  0.5419590000000  0.5279720000000  0.4627950000000 1.0
C      1  0.4484320000000  0.5492820000000  0.4927230000000 1.0
C      1  0.5072780000000  0.4507180000000  0.4484320000000 1.0
C      1  0.5515680000000  0.5492820000000  0.5072770000000 1.0
C      1  0.4927230000000  0.4507180000000  0.5515680000000 1.0
C      1  0.5155980000000  0.5172490000000  0.4936470000000 1.0
C      1  0.5063530000000  0.4827510000000  0.5155970000000 1.0
C      1  0.4844020000000  0.5172490000000  0.5063530000000 1.0
C      1  0.4936470000000  0.4827510000000  0.4844020000000 1.0
C      1  0.5197620000000  0.5145970000000  0.4199640000000 1.0
C      1  0.5800360000000  0.4854030000000  0.5197620000000 1.0
C      1  0.4802380000000  0.5145970000000  0.5800360000000 1.0
C      1  0.4199640000000  0.4854030000000  0.4802380000000 1.0
C      1  0.5538880000000  0.5235350000000  0.5413070000000 1.0
C      1  0.4586930000000  0.4764650000000  0.5538880000000 1.0
C      1  0.4461120000000  0.5235350000000  0.4586930000000 1.0
C      1  0.5413070000000  0.4764650000000  0.4461120000000 1.0
C      1  0.5536910000000  0.4964510000000  0.5301750000000 1.0
C      1  0.4698250000000  0.5035490000000  0.5536910000000 1.0
C      1  0.4463090000000  0.4964510000000  0.4698250000000 1.0
C      1  0.5301750000000  0.5035490000000  0.4463090000000 1.0
C      1  0.4676530000000  0.5473280000000  0.4668690000000 1.0
C      1  0.5331310000000  0.4526720000000  0.4676530000000 1.0
C      1  0.5323470000000  0.5473280000000  0.5331310000000 1.0
C      1  0.4668690000000  0.4526720000000  0.5323470000000 1.0
END
