TITL C-3985250-725-869 5.34332728024543e-06 125000 -319.165237373801 0 0 60 (C1) n - 1
REM
REM in /home/nfs/bkarasulu/CARBON/AIRSS/Generating-Clusters/TERSOFF/Higher-Symm/Only-C60
REM
REM
REM
REM
REM
REM ./C.cell (28575a23ae977d3b5fae324c64b13b57)
REM
REM compiler GCC version 9.2.1 20190827 (Red Hat 9.2.1-1)
REM options -cpp -mtune=generic -march=x86-64 -g -O0 -fpre-include=/usr/include/finclude/math-vector-fortran.h
REM seed -1888428523 570576653 1396826301 284051413 -33745399 467059426 36806441 -1917858979 -1842863179 239852837 -1789339701 1755533710 -162160425 2108714757 -1537249554 -263404558 1517889049 878778541 -2126860744 -1567152379 -568106747 1003611503 1742636984 -764516054 -1387190950 142804688 -1146712831 -1670930710 1105572071 1075712062 989776321 1017635164 -1275460282
REM
CELL 1.54180   50.00000   50.00000   50.00000   90.00000   90.00000   90.00000
LATT -1
SFAC C  
C      1  0.5349420000000  0.5253170000000  0.5473080000000 1.0
C      1  0.5305940000000  0.4455990000000  0.5009930000000 1.0
C      1  0.5284170000000  0.5290080000000  0.4490280000000 1.0
C      1  0.4952010000000  0.5247950000000  0.5141810000000 1.0
C      1  0.4974490000000  0.4770670000000  0.5160820000000 1.0
C      1  0.4978640000000  0.4987090000000  0.4733690000000 1.0
C      1  0.5329370000000  0.5342080000000  0.4983820000000 1.0
C      1  0.5338100000000  0.4750280000000  0.5457300000000 1.0
C      1  0.5373180000000  0.4785560000000  0.4612950000000 1.0
C      1  0.4569870000000  0.5043930000000  0.5336120000000 1.0
C      1  0.4590150000000  0.4691220000000  0.4876020000000 1.0
C      1  0.4575870000000  0.5263620000000  0.4791190000000 1.0
C      1  0.4843990000000  0.4685390000000  0.4373260000000 1.0
C      1  0.4864670000000  0.5693170000000  0.5038470000000 1.0
C      1  0.4802070000000  0.4610970000000  0.5586060000000 1.0
C      1  0.4897450000000  0.4759440000000  0.4888690000000 1.0
C      1  0.4875830000000  0.5219740000000  0.4861750000000 1.0
C      1  0.4878070000000  0.5011050000000  0.5277230000000 1.0
C      1  0.4448750000000  0.5575250000000  0.4857560000000 1.0
C      1  0.4414490000000  0.4837290000000  0.5559320000000 1.0
C      1  0.4449530000000  0.4581810000000  0.4581270000000 1.0
C      1  0.5467000000000  0.4959640000000  0.5305250000000 1.0
C      1  0.5537450000000  0.4924410000000  0.4804430000000 1.0
C      1  0.5388430000000  0.5049690000000  0.5019190000000 1.0
C      1  0.5797190000000  0.5133840000000  0.5059900000000 1.0
C      1  0.5719280000000  0.4839040000000  0.5173180000000 1.0
C      1  0.5751640000000  0.5127620000000  0.4717710000000 1.0
C      1  0.4951400000000  0.4475220000000  0.4586510000000 1.0
C      1  0.4955920000000  0.5613930000000  0.4747770000000 1.0
C      1  0.4905460000000  0.4909460000000  0.5682580000000 1.0
C      1  0.5183870000000  0.4985440000000  0.4509980000000 1.0
C      1  0.5189230000000  0.5412720000000  0.5229580000000 1.0
C      1  0.5172000000000  0.4587490000000  0.5287440000000 1.0
C      1  0.5028160000000  0.4264480000000  0.5019130000000 1.0
C      1  0.5025230000000  0.5366760000000  0.4321550000000 1.0
C      1  0.5043890000000  0.5370390000000  0.5622250000000 1.0
C      1  0.4660440000000  0.5159060000000  0.4309350000000 1.0
C      1  0.4678700000000  0.5524700000000  0.5483900000000 1.0
C      1  0.4641280000000  0.4316010000000  0.5188790000000 1.0
C      1  0.5595410000000  0.5289120000000  0.4505630000000 1.0
C      1  0.5637350000000  0.5341660000000  0.5269340000000 1.0
C      1  0.5628980000000  0.4567610000000  0.5036900000000 1.0
C      1  0.4740490000000  0.5435920000000  0.4528260000000 1.0
C      1  0.4728690000000  0.5194470000000  0.5622290000000 1.0
C      1  0.4744720000000  0.4371540000000  0.4845720000000 1.0
C      1  0.4493190000000  0.4752530000000  0.5156420000000 1.0
C      1  0.4501590000000  0.4979030000000  0.4704690000000 1.0
C      1  0.4496440000000  0.5266070000000  0.5136470000000 1.0
C      1  0.4920300000000  0.5134660000000  0.4139550000000 1.0
C      1  0.4956140000000  0.5658660000000  0.5535620000000 1.0
C      1  0.4906620000000  0.4196380000000  0.5298930000000 1.0
C      1  0.5202540000000  0.4959160000000  0.5631420000000 1.0
C      1  0.5234710000000  0.4541270000000  0.4707900000000 1.0
C      1  0.5217360000000  0.5447130000000  0.4737490000000 1.0
C      1  0.5040900000000  0.4887550000000  0.4267230000000 1.0
C      1  0.5076440000000  0.5690470000000  0.5259270000000 1.0
C      1  0.5008690000000  0.4418480000000  0.5469290000000 1.0
C      1  0.4583450000000  0.5582910000000  0.5169720000000 1.0
C      1  0.4530240000000  0.4554970000000  0.5406880000000 1.0
C      1  0.4563140000000  0.4854770000000  0.4411870000000 1.0
END
