TITL C-3985250-725-1190 -5.50104304731079e-05 125000 -322.664482500797 0 0 60 (C1) n - 1
REM
REM in /home/nfs/bkarasulu/CARBON/AIRSS/Generating-Clusters/TERSOFF/Higher-Symm/Only-C60
REM
REM
REM
REM
REM
REM ./C.cell (28575a23ae977d3b5fae324c64b13b57)
REM
REM compiler GCC version 9.2.1 20190827 (Red Hat 9.2.1-1)
REM options -cpp -mtune=generic -march=x86-64 -g -O0 -fpre-include=/usr/include/finclude/math-vector-fortran.h
REM seed 1257708141 817554648 -1443761298 1838592733 -445196461 -1149324410 127720896 862186518 62013131 -203358104 -456290733 1289394968 -136494567 351767326 1381943763 204045382 1551463600 1710151683 1464827522 -1971948154 -1053566475 587952532 -852827688 -1894719781 -1676540188 526348608 -1049211172 2095069696 -1667961793 -1443610022 1273467255 189351874 -133889985
REM
CELL 1.54180   50.00000   50.00000   50.00000   90.00000   90.00000   90.00000
LATT -1
SFAC C  
C      1  0.5238240000000  0.4723990000000  0.5070390000000 1.0
C      1  0.5074760000000  0.5454450000000  0.4613030000000 1.0
C      1  0.4482360000000  0.4830950000000  0.5051820000000 1.0
C      1  0.4670180000000  0.4377660000000  0.4887820000000 1.0
C      1  0.4713780000000  0.4842290000000  0.4322390000000 1.0
C      1  0.5499300000000  0.5213590000000  0.5500640000000 1.0
C      1  0.4929290000000  0.5535220000000  0.4858700000000 1.0
C      1  0.5204700000000  0.4656100000000  0.4305160000000 1.0
C      1  0.4939270000000  0.4590220000000  0.4441730000000 1.0
C      1  0.5706020000000  0.5100120000000  0.4783820000000 1.0
C      1  0.4829560000000  0.4526340000000  0.5431140000000 1.0
C      1  0.4942050000000  0.5711790000000  0.5271680000000 1.0
C      1  0.4385950000000  0.4940560000000  0.5341790000000 1.0
C      1  0.5411050000000  0.5483590000000  0.5036480000000 1.0
C      1  0.4725450000000  0.5265880000000  0.5447930000000 1.0
C      1  0.5038220000000  0.5062320000000  0.5717090000000 1.0
C      1  0.4716330000000  0.4624290000000  0.5151700000000 1.0
C      1  0.4983940000000  0.4643340000000  0.4746900000000 1.0
C      1  0.5111270000000  0.5211030000000  0.5284920000000 1.0
C      1  0.4296210000000  0.5249190000000  0.5268370000000 1.0
C      1  0.4509040000000  0.5192200000000  0.5029090000000 1.0
C      1  0.4640700000000  0.5637160000000  0.5184380000000 1.0
C      1  0.4925270000000  0.5352270000000  0.5643890000000 1.0
C      1  0.4953690000000  0.5068350000000  0.4274220000000 1.0
C      1  0.5324610000000  0.5415260000000  0.5350890000000 1.0
C      1  0.4401460000000  0.4578250000000  0.4877750000000 1.0
C      1  0.5177910000000  0.5047960000000  0.4803730000000 1.0
C      1  0.5320400000000  0.4773240000000  0.4775530000000 1.0
C      1  0.5405910000000  0.4557670000000  0.5283350000000 1.0
C      1  0.4592400000000  0.5494620000000  0.4854920000000 1.0
C      1  0.5311840000000  0.4726420000000  0.5517130000000 1.0
C      1  0.5669990000000  0.5257660000000  0.5042250000000 1.0
C      1  0.5618740000000  0.4820750000000  0.4864440000000 1.0
C      1  0.4994530000000  0.4371820000000  0.4965530000000 1.0
C      1  0.4714670000000  0.4377670000000  0.4550600000000 1.0
C      1  0.4851960000000  0.5283390000000  0.5106520000000 1.0
C      1  0.5107910000000  0.4944130000000  0.5419740000000 1.0
C      1  0.5229060000000  0.4947120000000  0.4255170000000 1.0
C      1  0.4893840000000  0.5329530000000  0.4416850000000 1.0
C      1  0.4929350000000  0.5032030000000  0.4951890000000 1.0
C      1  0.4714430000000  0.4874610000000  0.4813330000000 1.0
C      1  0.5425830000000  0.4470820000000  0.4286420000000 1.0
C      1  0.5642340000000  0.4777300000000  0.5170480000000 1.0
C      1  0.5088190000000  0.5568410000000  0.5503950000000 1.0
C      1  0.4311690000000  0.4624090000000  0.4602990000000 1.0
C      1  0.4520900000000  0.4579820000000  0.4400770000000 1.0
C      1  0.5355200000000  0.5086690000000  0.5727750000000 1.0
C      1  0.4625700000000  0.4992070000000  0.5516550000000 1.0
C      1  0.5476650000000  0.5095970000000  0.4311580000000 1.0
C      1  0.4970900000000  0.4818760000000  0.5157520000000 1.0
C      1  0.5112280000000  0.4637640000000  0.5721070000000 1.0
C      1  0.5124460000000  0.5686720000000  0.5033230000000 1.0
C      1  0.5671750000000  0.5072050000000  0.5289540000000 1.0
C      1  0.5307680000000  0.5310760000000  0.4737180000000 1.0
C      1  0.5537930000000  0.5225600000000  0.4566610000000 1.0
C      1  0.4822190000000  0.4766990000000  0.5669840000000 1.0
C      1  0.4494890000000  0.5460270000000  0.5384690000000 1.0
C      1  0.4628210000000  0.5308190000000  0.4564190000000 1.0
C      1  0.5086600000000  0.4387990000000  0.5269430000000 1.0
C      1  0.4610990000000  0.5004870000000  0.4571520000000 1.0
END
