TITL C-3985250-725-162 -0.000806727882831025 125000 -300.316172979648 0 0 60 (C3) n - 1
REM
REM in /home/nfs/bkarasulu/CARBON/AIRSS/Generating-Clusters/TERSOFF/Higher-Symm/Only-C60
REM
REM
REM
REM
REM
REM ./C.cell (28575a23ae977d3b5fae324c64b13b57)
REM
REM compiler GCC version 9.2.1 20190827 (Red Hat 9.2.1-1)
REM options -cpp -mtune=generic -march=x86-64 -g -O0 -fpre-include=/usr/include/finclude/math-vector-fortran.h
REM seed 1756330282 -1664325932 417148384 -362981614 -1652733608 1688881899 905968191 515608768 1377332822 -1440201134 1924240211 -927683924 -1631038849 412778949 56062753 -1769872034 1185799623 -1714985831 153865895 -1399227111 1184306386 305168141 -1469375687 272432672 1167854840 1686743523 -904611370 190060430 -1991782496 -948188253 -165422993 628525117 1881804616
REM
CELL 1.54180   50.00000   50.00000   50.00000   90.00000   90.00000   90.00000
LATT -1
SFAC C  
C      1  0.5324310000000  0.5479350000000  0.5300490000000 1.0
C      1  0.4422500000000  0.5041120000000  0.5300600000000 1.0
C      1  0.5253100000000  0.4479420000000  0.5300550000000 1.0
C      1  0.5332390000000  0.5181270000000  0.4596150000000 1.0
C      1  0.4676690000000  0.5197390000000  0.4596050000000 1.0
C      1  0.4990810000000  0.4621540000000  0.4596240000000 1.0
C      1  0.4560570000000  0.4383120000000  0.4901540000000 1.0
C      1  0.5753950000000  0.4927760000000  0.4901530000000 1.0
C      1  0.4685520000000  0.5689060000000  0.4901570000000 1.0
C      1  0.4976730000000  0.5301520000000  0.4319790000000 1.0
C      1  0.4750440000000  0.4829100000000  0.4319840000000 1.0
C      1  0.5272830000000  0.4869280000000  0.4319610000000 1.0
C      1  0.5005230000000  0.4509280000000  0.5544220000000 1.0
C      1  0.5422290000000  0.5249830000000  0.5544190000000 1.0
C      1  0.4572400000000  0.5240890000000  0.5544240000000 1.0
C      1  0.4870620000000  0.4362060000000  0.4932420000000 1.0
C      1  0.5617180000000  0.5206820000000  0.4932350000000 1.0
C      1  0.4512060000000  0.5431190000000  0.4932450000000 1.0
C      1  0.4978190000000  0.4589740000000  0.5107830000000 1.0
C      1  0.5366380000000  0.5186070000000  0.5107910000000 1.0
C      1  0.4655370000000  0.5224270000000  0.5108070000000 1.0
C      1  0.5421000000000  0.5711630000000  0.5093250000000 1.0
C      1  0.4173070000000  0.5008760000000  0.5093240000000 1.0
C      1  0.5405880000000  0.4279500000000  0.5093270000000 1.0
C      1  0.5582910000000  0.4989220000000  0.5449030000000 1.0
C      1  0.4717870000000  0.5510250000000  0.5448890000000 1.0
C      1  0.4699280000000  0.4500580000000  0.5448860000000 1.0
C      1  0.4563720000000  0.4546400000000  0.5159720000000 1.0
C      1  0.5611380000000  0.4848730000000  0.5159920000000 1.0
C      1  0.4825360000000  0.5604820000000  0.5159760000000 1.0
C      1  0.5121400000000  0.4822110000000  0.4864110000000 1.0
C      1  0.5093370000000  0.5193690000000  0.4864270000000 1.0
C      1  0.4785220000000  0.4984300000000  0.4864160000000 1.0
C      1  0.5191730000000  0.5001970000000  0.5297570000000 1.0
C      1  0.4902300000000  0.5165020000000  0.5297540000000 1.0
C      1  0.4905930000000  0.4832940000000  0.5297550000000 1.0
C      1  0.5395690000000  0.4380580000000  0.4807070000000 1.0
C      1  0.5338640000000  0.5652350000000  0.4807010000000 1.0
C      1  0.4265670000000  0.4967070000000  0.4806950000000 1.0
C      1  0.5030490000000  0.5393040000000  0.5490120000000 1.0
C      1  0.4644320000000  0.4829840000000  0.5490150000000 1.0
C      1  0.5325170000000  0.4777060000000  0.5490200000000 1.0
C      1  0.5071010000000  0.5481110000000  0.5081520000000 1.0
C      1  0.4547660000000  0.4821040000000  0.5081650000000 1.0
C      1  0.5381330000000  0.4697830000000  0.5081670000000 1.0
C      1  0.4694550000000  0.4760810000000  0.4626460000000 1.0
C      1  0.5360110000000  0.4855040000000  0.4626190000000 1.0
C      1  0.4945570000000  0.5384180000000  0.4626390000000 1.0
C      1  0.5510460000000  0.5400500000000  0.4706020000000 1.0
C      1  0.4397830000000  0.5241890000000  0.4706090000000 1.0
C      1  0.5091670000000  0.4357680000000  0.4706080000000 1.0
C      1  0.4423570000000  0.4655620000000  0.4716550000000 1.0
C      1  0.5586590000000  0.4673060000000  0.4716600000000 1.0
C      1  0.4989860000000  0.5671360000000  0.4716580000000 1.0
C      1  0.5127920000000  0.5168880000000  0.5715540000000 1.0
C      1  0.4789740000000  0.5026380000000  0.5715510000000 1.0
C      1  0.5082240000000  0.4804760000000  0.5715540000000 1.0
C      1  0.5034590000000  0.4698570000000  0.4290510000000 1.0
C      1  0.5243700000000  0.5180630000000  0.4290440000000 1.0
C      1  0.4721610000000  0.5120730000000  0.4290400000000 1.0
END
