TITL C-3985254-1270-2015 3.97223148838858e-07 125000 -278.476109167609 0 0 60 (D2h) n - 1
REM
REM in /home/nfs/bkarasulu/CARBON/AIRSS/Generating-Clusters/TERSOFF/Higher-Symm/Only-C60
REM
REM
REM
REM
REM
REM ./C.cell (28575a23ae977d3b5fae324c64b13b57)
REM
REM compiler GCC version 9.2.1 20190827 (Red Hat 9.2.1-1)
REM options -cpp -mtune=generic -march=x86-64 -g -O0 -fpre-include=/usr/include/finclude/math-vector-fortran.h
REM seed -1260214723 -1971010443 -523146720 -352279809 -577728355 -1384611369 -1951666337 -2006749989 -1273088686 -1713986024 400875276 -36667590 552056946 -1606257128 -70810721 491124950 -1984490171 1555272938 1296749159 377878513 1336736155 467816221 1900560023 377946508 -1509807740 1746701817 -1272040002 -351477194 -178081247 -1396699910 -1021108889 -447173196 1923435357
REM
CELL 1.54180   50.00000   50.00000   50.00000   90.00000   90.00000   90.00000
LATT -1
SFAC C  
C      1  0.4543640000000  0.4404330000000  0.5350100000000 1.0
C      1  0.5456360000000  0.5595670000000  0.5350100000000 1.0
C      1  0.4543640000000  0.4404330000000  0.4649900000000 1.0
C      1  0.5456360000000  0.5595670000000  0.4649900000000 1.0
C      1  0.5456360000000  0.4404330000000  0.5350100000000 1.0
C      1  0.4543640000000  0.5595670000000  0.5350100000000 1.0
C      1  0.5456360000000  0.4404330000000  0.4649900000000 1.0
C      1  0.4543640000000  0.5595670000000  0.4649900000000 1.0
C      1  0.4844310000000  0.5524850000000  0.4791830000000 1.0
C      1  0.5155690000000  0.4475150000000  0.4791830000000 1.0
C      1  0.4844310000000  0.5524850000000  0.5208170000000 1.0
C      1  0.5155690000000  0.4475150000000  0.5208170000000 1.0
C      1  0.5155690000000  0.5524850000000  0.4791830000000 1.0
C      1  0.4844310000000  0.4475150000000  0.4791830000000 1.0
C      1  0.5155690000000  0.5524850000000  0.5208170000000 1.0
C      1  0.4844310000000  0.4475150000000  0.5208170000000 1.0
C      1  0.4593200000000  0.4843600000000  0.4344210000000 1.0
C      1  0.5406800000000  0.5156400000000  0.4344210000000 1.0
C      1  0.4593200000000  0.4843600000000  0.5655790000000 1.0
C      1  0.5406800000000  0.5156400000000  0.5655790000000 1.0
C      1  0.5406800000000  0.4843600000000  0.4344210000000 1.0
C      1  0.4593200000000  0.5156400000000  0.4344210000000 1.0
C      1  0.5406800000000  0.4843600000000  0.5655790000000 1.0
C      1  0.4593200000000  0.5156400000000  0.5655790000000 1.0
C      1  0.4847780000000  0.4790450000000  0.5483070000000 1.0
C      1  0.5152220000000  0.5209550000000  0.5483070000000 1.0
C      1  0.4847780000000  0.4790450000000  0.4516930000000 1.0
C      1  0.5152220000000  0.5209550000000  0.4516930000000 1.0
C      1  0.5152220000000  0.4790450000000  0.5483070000000 1.0
C      1  0.4847780000000  0.5209550000000  0.5483070000000 1.0
C      1  0.5152220000000  0.4790450000000  0.4516930000000 1.0
C      1  0.4847780000000  0.5209550000000  0.4516930000000 1.0
C      1  0.5606590000000  0.4838360000000  0.5173860000000 1.0
C      1  0.4393410000000  0.5161640000000  0.5173860000000 1.0
C      1  0.5606590000000  0.4838360000000  0.4826140000000 1.0
C      1  0.4393410000000  0.5161640000000  0.4826140000000 1.0
C      1  0.4393410000000  0.4838360000000  0.5173860000000 1.0
C      1  0.5606590000000  0.5161640000000  0.5173860000000 1.0
C      1  0.4393410000000  0.4838360000000  0.4826140000000 1.0
C      1  0.5606590000000  0.5161640000000  0.4826140000000 1.0
C      1  0.4423980000000  0.4672320000000  0.5438370000000 1.0
C      1  0.5576020000000  0.5327680000000  0.5438370000000 1.0
C      1  0.4423980000000  0.4672320000000  0.4561630000000 1.0
C      1  0.5576020000000  0.5327680000000  0.4561630000000 1.0
C      1  0.5576020000000  0.4672320000000  0.5438370000000 1.0
C      1  0.4423980000000  0.5327680000000  0.5438370000000 1.0
C      1  0.5576020000000  0.4672320000000  0.4561630000000 1.0
C      1  0.4423980000000  0.5327680000000  0.4561630000000 1.0
C      1  0.4742220000000  0.5182650000000  0.5172180000000 1.0
C      1  0.5257780000000  0.4817350000000  0.5172180000000 1.0
C      1  0.4742220000000  0.5182650000000  0.4827820000000 1.0
C      1  0.5257780000000  0.4817350000000  0.4827820000000 1.0
C      1  0.5257780000000  0.5182650000000  0.5172180000000 1.0
C      1  0.4742220000000  0.4817350000000  0.5172180000000 1.0
C      1  0.5257780000000  0.5182650000000  0.4827820000000 1.0
C      1  0.4742220000000  0.4817350000000  0.4827820000000 1.0
C      1  0.4605300000000  0.5691290000000  0.5000000000000 1.0
C      1  0.5394700000000  0.4308710000000  0.5000000000000 1.0
C      1  0.5394700000000  0.5691290000000  0.5000000000000 1.0
C      1  0.4605300000000  0.4308710000000  0.5000000000000 1.0
END
