TITL C-3985250-725-358 0.00177539480452642 125000 -341.152540771533 0 0 60 (C1) n - 1
REM
REM in /home/nfs/bkarasulu/CARBON/AIRSS/Generating-Clusters/TERSOFF/Higher-Symm/Only-C60
REM
REM
REM
REM
REM
REM ./C.cell (28575a23ae977d3b5fae324c64b13b57)
REM
REM compiler GCC version 9.2.1 20190827 (Red Hat 9.2.1-1)
REM options -cpp -mtune=generic -march=x86-64 -g -O0 -fpre-include=/usr/include/finclude/math-vector-fortran.h
REM seed 1597204814 1107004677 2010615286 -1586101513 658278480 -450537009 -1564227348 1179888395 1252177729 -724241987 -1394507720 -424894347 -50101658 2043207649 -1267617702 -1152713905 59133004 -1900044180 -394111177 2045825862 -212837420 462965234 721032466 -752365501 -1655531421 1524311222 -166408625 -631359787 1338612835 -2009801660 -1036594983 1864699006 2075072569
REM
CELL 1.54180   50.00000   50.00000   50.00000   90.00000   90.00000   90.00000
LATT -1
SFAC C  
C      1  0.5483780000000  0.5576340000000  0.4686000000000 1.0
C      1  0.4470230000000  0.5319040000000  0.5122660000000 1.0
C      1  0.5150830000000  0.5282730000000  0.4969150000000 1.0
C      1  0.4817490000000  0.5420370000000  0.5511020000000 1.0
C      1  0.5061760000000  0.4623450000000  0.5184600000000 1.0
C      1  0.4754030000000  0.5492500000000  0.4769580000000 1.0
C      1  0.5571880000000  0.5487680000000  0.5210490000000 1.0
C      1  0.4682420000000  0.5150830000000  0.4246990000000 1.0
C      1  0.4712160000000  0.4301660000000  0.5278860000000 1.0
C      1  0.5253110000000  0.5093840000000  0.5171570000000 1.0
C      1  0.5367190000000  0.5160140000000  0.4474880000000 1.0
C      1  0.5395440000000  0.4879550000000  0.5654370000000 1.0
C      1  0.4905230000000  0.5498650000000  0.5026700000000 1.0
C      1  0.5492420000000  0.5420030000000  0.4449640000000 1.0
C      1  0.4900860000000  0.4976730000000  0.4758690000000 1.0
C      1  0.4340080000000  0.5101860000000  0.5277280000000 1.0
C      1  0.5657290000000  0.5485140000000  0.4910620000000 1.0
C      1  0.4434280000000  0.4798210000000  0.4873770000000 1.0
C      1  0.4935650000000  0.5286770000000  0.4305880000000 1.0
C      1  0.4573330000000  0.4943500000000  0.4420890000000 1.0
C      1  0.5132760000000  0.5694210000000  0.5050270000000 1.0
C      1  0.4819570000000  0.5038560000000  0.5052880000000 1.0
C      1  0.5206070000000  0.5650840000000  0.4743900000000 1.0
C      1  0.4256260000000  0.4598450000000  0.5302360000000 1.0
C      1  0.5718010000000  0.5161380000000  0.4990330000000 1.0
C      1  0.4716640000000  0.4364640000000  0.4955260000000 1.0
C      1  0.5589850000000  0.4667860000000  0.5615410000000 1.0
C      1  0.4701550000000  0.4670730000000  0.5534430000000 1.0
C      1  0.5657980000000  0.5212430000000  0.5339540000000 1.0
C      1  0.4989070000000  0.4509670000000  0.4917380000000 1.0
C      1  0.5236880000000  0.4421810000000  0.4519150000000 1.0
C      1  0.5639450000000  0.4921870000000  0.4817950000000 1.0
C      1  0.4572680000000  0.5022940000000  0.4713430000000 1.0
C      1  0.5413170000000  0.4460690000000  0.4768160000000 1.0
C      1  0.5573580000000  0.4970060000000  0.4543280000000 1.0
C      1  0.4711840000000  0.5465910000000  0.5241790000000 1.0
C      1  0.5148520000000  0.5340560000000  0.5494160000000 1.0
C      1  0.4633990000000  0.4662930000000  0.5080140000000 1.0
C      1  0.4496630000000  0.4476890000000  0.5430590000000 1.0
C      1  0.5472410000000  0.4713180000000  0.4928000000000 1.0
C      1  0.4676550000000  0.4642090000000  0.4434880000000 1.0
C      1  0.5129090000000  0.5174590000000  0.4699280000000 1.0
C      1  0.4995260000000  0.4403400000000  0.5398050000000 1.0
C      1  0.4966320000000  0.4555270000000  0.5672920000000 1.0
C      1  0.5294800000000  0.5558700000000  0.5273780000000 1.0
C      1  0.5435040000000  0.5152540000000  0.5544590000000 1.0
C      1  0.4958610000000  0.5026610000000  0.5535030000000 1.0
C      1  0.4262860000000  0.4849820000000  0.5136970000000 1.0
C      1  0.4537450000000  0.4524530000000  0.4696060000000 1.0
C      1  0.4522050000000  0.5298720000000  0.4814480000000 1.0
C      1  0.4833080000000  0.4837770000000  0.5279970000000 1.0
C      1  0.4991240000000  0.4707460000000  0.4704790000000 1.0
C      1  0.4945840000000  0.5514530000000  0.4534690000000 1.0
C      1  0.5165380000000  0.5102620000000  0.4271160000000 1.0
C      1  0.5109100000000  0.4824630000000  0.5697150000000 1.0
C      1  0.5012560000000  0.4621840000000  0.4413650000000 1.0
C      1  0.4689660000000  0.5172840000000  0.5646620000000 1.0
C      1  0.5113010000000  0.4820010000000  0.4213010000000 1.0
C      1  0.4425130000000  0.5087220000000  0.5557500000000 1.0
C      1  0.5290630000000  0.4800190000000  0.5133380000000 1.0
END
