TITL C-3985253-1688-513 0.00333070142930109 125000 -313.140829657158 0 0 60 (C2) n - 1
REM
REM in /home/nfs/bkarasulu/CARBON/AIRSS/Generating-Clusters/TERSOFF/Higher-Symm/Only-C60
REM
REM
REM
REM
REM
REM ./C.cell (28575a23ae977d3b5fae324c64b13b57)
REM
REM compiler GCC version 9.2.1 20190827 (Red Hat 9.2.1-1)
REM options -cpp -mtune=generic -march=x86-64 -g -O0 -fpre-include=/usr/include/finclude/math-vector-fortran.h
REM seed 1325068789 -1212162 187337495 346867315 -1711541551 -1159516702 -833399581 2032302081 -2066528238 -279077607 -1042537788 872880973 -247630596 -2042790605 2036515846 -805438152 488866710 271496312 1412107930 -1513741532 1488601310 -752853416 -443082459 576367548 -2060032941 -1513626604 1674074007 -721968296 910022280 -1200834920 717332367 2068925209 34746305
REM
CELL 1.54180   50.00000   50.00000   50.00000   90.00000   90.00000   90.00000
LATT -1
SFAC C  
C      1  0.5519580000000  0.5452140000000  0.4617650000000 1.0
C      1  0.5519580000000  0.4547860000000  0.5382350000000 1.0
C      1  0.4714120000000  0.5540770000000  0.4628680000000 1.0
C      1  0.4714120000000  0.4459230000000  0.5371320000000 1.0
C      1  0.5460700000000  0.5661210000000  0.4826260000000 1.0
C      1  0.5460700000000  0.4338790000000  0.5173740000000 1.0
C      1  0.4703180000000  0.4952790000000  0.5548440000000 1.0
C      1  0.4703180000000  0.5047210000000  0.4451560000000 1.0
C      1  0.5226170000000  0.4701420000000  0.5533360000000 1.0
C      1  0.5226170000000  0.5298580000000  0.4466640000000 1.0
C      1  0.5189130000000  0.4425590000000  0.4714770000000 1.0
C      1  0.5189130000000  0.5574410000000  0.5285230000000 1.0
C      1  0.5123820000000  0.5016170000000  0.5476510000000 1.0
C      1  0.5123820000000  0.4983830000000  0.4523490000000 1.0
C      1  0.5394270000000  0.5337120000000  0.5464520000000 1.0
C      1  0.5394270000000  0.4662880000000  0.4535480000000 1.0
C      1  0.4674680000000  0.4702060000000  0.4533380000000 1.0
C      1  0.4674680000000  0.5297940000000  0.5466620000000 1.0
C      1  0.4867960000000  0.5335070000000  0.4420600000000 1.0
C      1  0.4867960000000  0.4664930000000  0.5579400000000 1.0
C      1  0.4437430000000  0.4517550000000  0.5236110000000 1.0
C      1  0.4437430000000  0.5482450000000  0.4763890000000 1.0
C      1  0.5210420000000  0.5212990000000  0.4991590000000 1.0
C      1  0.5210420000000  0.4787010000000  0.5008410000000 1.0
C      1  0.5019330000000  0.4891450000000  0.4800760000000 1.0
C      1  0.5019330000000  0.5108550000000  0.5199240000000 1.0
C      1  0.5636500000000  0.4786290000000  0.5210190000000 1.0
C      1  0.5636500000000  0.5213710000000  0.4789810000000 1.0
C      1  0.5605050000000  0.4905780000000  0.4671530000000 1.0
C      1  0.5605050000000  0.5094220000000  0.5328470000000 1.0
C      1  0.4945500000000  0.4397690000000  0.5190030000000 1.0
C      1  0.4945500000000  0.5602310000000  0.4809970000000 1.0
C      1  0.5612510000000  0.5294650000000  0.5088340000000 1.0
C      1  0.5612510000000  0.4705350000000  0.4911660000000 1.0
C      1  0.4384470000000  0.4653000000000  0.4697960000000 1.0
C      1  0.4384470000000  0.5347000000000  0.5302040000000 1.0
C      1  0.5180780000000  0.5237930000000  0.5669110000000 1.0
C      1  0.5180780000000  0.4762070000000  0.4330890000000 1.0
C      1  0.4919240000000  0.5573930000000  0.5101810000000 1.0
C      1  0.4919240000000  0.4426070000000  0.4898190000000 1.0
C      1  0.4788940000000  0.5093020000000  0.4753130000000 1.0
C      1  0.4788940000000  0.4906980000000  0.5246870000000 1.0
C      1  0.4596240000000  0.4854730000000  0.5043540000000 1.0
C      1  0.4596240000000  0.5145270000000  0.4956460000000 1.0
C      1  0.4330960000000  0.5182730000000  0.4794490000000 1.0
C      1  0.4330960000000  0.4817270000000  0.5205510000000 1.0
C      1  0.5134590000000  0.4620290000000  0.5233940000000 1.0
C      1  0.5134590000000  0.5379710000000  0.4766060000000 1.0
C      1  0.4780980000000  0.4681510000000  0.4830900000000 1.0
C      1  0.4780980000000  0.5318490000000  0.5169100000000 1.0
C      1  0.4381590000000  0.5552720000000  0.5067120000000 1.0
C      1  0.4381590000000  0.4447280000000  0.4932870000000 1.0
C      1  0.5513620000000  0.4911780000000  0.5590530000000 1.0
C      1  0.5513620000000  0.5088230000000  0.4409470000000 1.0
C      1  0.5455330000000  0.5555570000000  0.5103790000000 1.0
C      1  0.5455330000000  0.4444430000000  0.4896210000000 1.0
C      1  0.4972670000000  0.5436060000000  0.5539640000000 1.0
C      1  0.4972670000000  0.4563940000000  0.4460360000000 1.0
C      1  0.4220260000000  0.5095030000000  0.5290080000000 1.0
C      1  0.4220260000000  0.4904970000000  0.4709920000000 1.0
END
