TITL C-3985245-9316-890 -0.00321973833339803 125000 -275.421710484203 0 0 60 (C10) n - 1
REM
REM in /home/nfs/bkarasulu/CARBON/AIRSS/Generating-Clusters/TERSOFF/Higher-Symm/Only-C60
REM
REM
REM
REM
REM
REM ./C.cell (28575a23ae977d3b5fae324c64b13b57)
REM
REM compiler GCC version 9.2.1 20190827 (Red Hat 9.2.1-1)
REM options -cpp -mtune=generic -march=x86-64 -g -O0 -fpre-include=/usr/include/finclude/math-vector-fortran.h
REM seed 148025378 -314756783 1619135942 -448857420 1109382076 -1906858672 -740198982 470329202 419118573 -1794187505 856833760 1253735124 -325296926 -544930365 1882538766 1648897377 -2065800168 406003719 331400344 531802854 2015354050 -1778409523 542209655 71340645 -1296145211 -406793987 1331447885 1625971839 1912099916 -601442197 -1909349115 -492172301 623229254
REM
CELL 1.54180   50.00000   50.00000   50.00000   90.00000   90.00000   90.00000
LATT -1
SFAC C  
C      1  0.5386570000000  0.4232170000000  0.5244350000000 1.0
C      1  0.5763260000000  0.4606410000000  0.5243330000000 1.0
C      1  0.5850200000000  0.5130490000000  0.5244240000000 1.0
C      1  0.5610280000000  0.5604400000000  0.5243720000000 1.0
C      1  0.5138560000000  0.5848430000000  0.5243590000000 1.0
C      1  0.4613430000000  0.5767830000000  0.5244350000000 1.0
C      1  0.4236740000000  0.5393590000000  0.5243330000000 1.0
C      1  0.4149800000000  0.4869510000000  0.5244240000000 1.0
C      1  0.4389720000000  0.4395600000000  0.5243720000000 1.0
C      1  0.4861440000000  0.4151570000000  0.5243590000000 1.0
C      1  0.4623110000000  0.4644620000000  0.4442760000000 1.0
C      1  0.4904060000000  0.4491030000000  0.4442700000000 1.0
C      1  0.5221600000000  0.4531660000000  0.4443680000000 1.0
C      1  0.5454390000000  0.4751420000000  0.4442070000000 1.0
C      1  0.5513790000000  0.5066030000000  0.4443570000000 1.0
C      1  0.5376890000000  0.5355380000000  0.4442760000000 1.0
C      1  0.5095940000000  0.5508970000000  0.4442700000000 1.0
C      1  0.4778400000000  0.5468340000000  0.4443680000000 1.0
C      1  0.4545610000000  0.5248580000000  0.4442070000000 1.0
C      1  0.4486210000000  0.4933970000000  0.4443570000000 1.0
C      1  0.5074030000000  0.5441340000000  0.5163280000000 1.0
C      1  0.4800870000000  0.5400610000000  0.5164730000000 1.0
C      1  0.4603720000000  0.5206700000000  0.5161010000000 1.0
C      1  0.4557380000000  0.4933750000000  0.5165730000000 1.0
C      1  0.4681160000000  0.4686740000000  0.5162050000000 1.0
C      1  0.4925970000000  0.4558660000000  0.5163280000000 1.0
C      1  0.5199130000000  0.4599390000000  0.5164730000000 1.0
C      1  0.5396280000000  0.4793300000000  0.5161010000000 1.0
C      1  0.5442620000000  0.5066250000000  0.5165730000000 1.0
C      1  0.5318840000000  0.5313260000000  0.5162050000000 1.0
C      1  0.5269380000000  0.4461380000000  0.5436090000000 1.0
C      1  0.5534540000000  0.4722820000000  0.5434750000000 1.0
C      1  0.5596500000000  0.5089900000000  0.5436570000000 1.0
C      1  0.5428890000000  0.5422590000000  0.5435290000000 1.0
C      1  0.5098730000000  0.5594870000000  0.5435700000000 1.0
C      1  0.4730620000000  0.5538620000000  0.5436090000000 1.0
C      1  0.4465460000000  0.5277180000000  0.5434750000000 1.0
C      1  0.4403500000000  0.4910100000000  0.5436570000000 1.0
C      1  0.4571110000000  0.4577410000000  0.5435290000000 1.0
C      1  0.4901270000000  0.4405130000000  0.5435700000000 1.0
C      1  0.5597230000000  0.5601270000000  0.4942860000000 1.0
C      1  0.5130020000000  0.5838020000000  0.4942750000000 1.0
C      1  0.4613040000000  0.5753420000000  0.4943630000000 1.0
C      1  0.4242880000000  0.5382570000000  0.4942360000000 1.0
C      1  0.4162750000000  0.4864700000000  0.4943440000000 1.0
C      1  0.4402770000000  0.4398730000000  0.4942860000000 1.0
C      1  0.4869980000000  0.4161980000000  0.4942750000000 1.0
C      1  0.5386960000000  0.4246580000000  0.4943630000000 1.0
C      1  0.5757120000000  0.4617430000000  0.4942360000000 1.0
C      1  0.5837250000000  0.5135300000000  0.4943440000000 1.0
C      1  0.5091420000000  0.5578180000000  0.4771140000000 1.0
C      1  0.4734220000000  0.5521280000000  0.4771800000000 1.0
C      1  0.4478150000000  0.5265750000000  0.4769940000000 1.0
C      1  0.4422360000000  0.4908310000000  0.4772460000000 1.0
C      1  0.4586240000000  0.4585880000000  0.4770430000000 1.0
C      1  0.4908580000000  0.4421820000000  0.4771140000000 1.0
C      1  0.5265780000000  0.4478720000000  0.4771800000000 1.0
C      1  0.5521850000000  0.4734250000000  0.4769940000000 1.0
C      1  0.5577640000000  0.5091690000000  0.4772460000000 1.0
C      1  0.5413760000000  0.5414120000000  0.4770430000000 1.0
END
