TITL C-3985259-1859-1073 -0.000359097869342389 125000 -252.872696394245 0 0 60 (C6) n - 1
REM
REM in /home/nfs/bkarasulu/CARBON/AIRSS/Generating-Clusters/TERSOFF/Higher-Symm/Only-C60
REM
REM
REM
REM
REM
REM ./C.cell (28575a23ae977d3b5fae324c64b13b57)
REM
REM compiler GCC version 9.2.1 20190827 (Red Hat 9.2.1-1)
REM options -cpp -mtune=generic -march=x86-64 -g -O0 -fpre-include=/usr/include/finclude/math-vector-fortran.h
REM seed -240614993 -547414108 -1910802012 -1787249038 189135641 867722999 -2138960398 1157623808 1795231681 180612770 1560933833 -1503244554 1274127694 -538125594 1440700635 1712340032 1234114447 768151902 -571541691 -1276461799 -1096673215 1595953252 1699776297 1635953221 -285466580 755585981 1611897214 2033912162 1540694438 -1830260146 -1664363008 -1304202358 1860609258
REM
CELL 1.54180   50.00000   50.00000   50.00000   90.00000   90.00000   90.00000
LATT -1
SFAC C  
C      1  0.5268790000000  0.5627580000000  0.4505410000000 1.0
C      1  0.5566230000000  0.5629850000000  0.4984310000000 1.0
C      1  0.5295410000000  0.5628460000000  0.5481710000000 1.0
C      1  0.4731210000000  0.5627580000000  0.5494590000000 1.0
C      1  0.4433770000000  0.5629850000000  0.5015690000000 1.0
C      1  0.4704590000000  0.5628460000000  0.4518290000000 1.0
C      1  0.4731210000000  0.4372420000000  0.4505410000000 1.0
C      1  0.4433770000000  0.4370150000000  0.4984310000000 1.0
C      1  0.4704590000000  0.4371540000000  0.5481710000000 1.0
C      1  0.5268790000000  0.4372420000000  0.5494590000000 1.0
C      1  0.5566230000000  0.4370150000000  0.5015690000000 1.0
C      1  0.5295410000000  0.4371540000000  0.4518290000000 1.0
C      1  0.5289800000000  0.4794260000000  0.4917350000000 1.0
C      1  0.5219340000000  0.4812370000000  0.5209700000000 1.0
C      1  0.4927820000000  0.4803120000000  0.5293600000000 1.0
C      1  0.4710200000000  0.4794260000000  0.5082650000000 1.0
C      1  0.4780660000000  0.4812370000000  0.4790300000000 1.0
C      1  0.5072180000000  0.4803120000000  0.4706400000000 1.0
C      1  0.4710200000000  0.5205740000000  0.4917350000000 1.0
C      1  0.4780660000000  0.5187630000000  0.5209700000000 1.0
C      1  0.5072180000000  0.5196880000000  0.5293600000000 1.0
C      1  0.5289800000000  0.5205740000000  0.5082650000000 1.0
C      1  0.5219340000000  0.5187630000000  0.4790300000000 1.0
C      1  0.4927820000000  0.5196880000000  0.4706400000000 1.0
C      1  0.5319720000000  0.5808050000000  0.5170850000000 1.0
C      1  0.5011990000000  0.5807720000000  0.5360860000000 1.0
C      1  0.4692850000000  0.5808160000000  0.5190530000000 1.0
C      1  0.4680280000000  0.5808050000000  0.4829150000000 1.0
C      1  0.4988010000000  0.5807720000000  0.4639140000000 1.0
C      1  0.5307150000000  0.5808160000000  0.4809470000000 1.0
C      1  0.4680280000000  0.4191950000000  0.5170850000000 1.0
C      1  0.4988010000000  0.4192280000000  0.5360860000000 1.0
C      1  0.5307150000000  0.4191840000000  0.5190530000000 1.0
C      1  0.5319720000000  0.4191950000000  0.4829150000000 1.0
C      1  0.5011990000000  0.4192280000000  0.4639140000000 1.0
C      1  0.4692850000000  0.4191840000000  0.4809470000000 1.0
C      1  0.4410740000000  0.5335060000000  0.5011090000000 1.0
C      1  0.4697110000000  0.5333810000000  0.4496790000000 1.0
C      1  0.5283620000000  0.5333590000000  0.4488410000000 1.0
C      1  0.5589260000000  0.5335060000000  0.4988910000000 1.0
C      1  0.5302890000000  0.5333810000000  0.5503210000000 1.0
C      1  0.4716380000000  0.5333590000000  0.5511590000000 1.0
C      1  0.5589260000000  0.4664940000000  0.5011090000000 1.0
C      1  0.5302890000000  0.4666190000000  0.4496790000000 1.0
C      1  0.4716380000000  0.4666410000000  0.4488410000000 1.0
C      1  0.4410740000000  0.4664940000000  0.4988910000000 1.0
C      1  0.4697110000000  0.4666190000000  0.5503210000000 1.0
C      1  0.5283620000000  0.4666410000000  0.5511590000000 1.0
C      1  0.5547390000000  0.5158060000000  0.5305590000000 1.0
C      1  0.5008350000000  0.5157910000000  0.5628840000000 1.0
C      1  0.4458270000000  0.5157680000000  0.5321840000000 1.0
C      1  0.4452610000000  0.5158060000000  0.4694410000000 1.0
C      1  0.4991650000000  0.5157910000000  0.4371160000000 1.0
C      1  0.5541730000000  0.5157680000000  0.4678160000000 1.0
C      1  0.4452610000000  0.4841940000000  0.5305590000000 1.0
C      1  0.4991650000000  0.4842090000000  0.5628840000000 1.0
C      1  0.5541730000000  0.4842320000000  0.5321840000000 1.0
C      1  0.5547390000000  0.4841940000000  0.4694410000000 1.0
C      1  0.5008350000000  0.4842090000000  0.4371160000000 1.0
C      1  0.4458270000000  0.4842320000000  0.4678160000000 1.0
END
