TITL C-3985244-725-240 0.000671424109728366 125000 -360.016112227239 0 0 60 (C5) n - 1
REM
REM in /home/nfs/bkarasulu/CARBON/AIRSS/Generating-Clusters/TERSOFF/Higher-Symm/Only-C60
REM
REM
REM
REM
REM
REM ./C.cell (28575a23ae977d3b5fae324c64b13b57)
REM
REM compiler GCC version 9.2.1 20190827 (Red Hat 9.2.1-1)
REM options -cpp -mtune=generic -march=x86-64 -g -O0 -fpre-include=/usr/include/finclude/math-vector-fortran.h
REM seed -2104981520 -934711747 -307062455 1219087118 130076444 1126443658 1201910867 921461473 742382822 -1788172210 1326294064 -1124016674 2115492938 328981856 1612338329 2005857216 2031914647 1109707833 -459770625 180728893 1079299508 1685310099 266510705 -1732954801 1403145162 1006365325 600900886 -140211596 -1716270461 -638867089 1021983267 -1298395233 -1302038725
REM
CELL 1.54180   50.00000   50.00000   50.00000   90.00000   90.00000   90.00000
LATT -1
SFAC C  
C      1  0.5112930000000  0.5237950000000  0.4386040000000 1.0
C      1  0.4808600000000  0.5181010000000  0.4385970000000 1.0
C      1  0.4768720000000  0.4873990000000  0.4385910000000 1.0
C      1  0.5048390000000  0.4741170000000  0.4385980000000 1.0
C      1  0.5261130000000  0.4966110000000  0.4385990000000 1.0
C      1  0.5097050000000  0.4478390000000  0.5458010000000 1.0
C      1  0.5526390000000  0.4931320000000  0.5458050000000 1.0
C      1  0.5228070000000  0.5479310000000  0.5458370000000 1.0
C      1  0.4614770000000  0.5365020000000  0.5457980000000 1.0
C      1  0.4533880000000  0.4746870000000  0.5457870000000 1.0
C      1  0.4727010000000  0.4980160000000  0.5168550000000 1.0
C      1  0.4934810000000  0.4734270000000  0.5168900000000 1.0
C      1  0.5231980000000  0.4855490000000  0.5168290000000 1.0
C      1  0.5209030000000  0.5175780000000  0.5168380000000 1.0
C      1  0.4897430000000  0.5252530000000  0.5167540000000 1.0
C      1  0.4574320000000  0.4503170000000  0.4720320000000 1.0
C      1  0.5341000000000  0.4441730000000  0.4720360000000 1.0
C      1  0.5636460000000  0.5151910000000  0.4720270000000 1.0
C      1  0.5052260000000  0.5652220000000  0.4720400000000 1.0
C      1  0.4395760000000  0.5251270000000  0.4720240000000 1.0
C      1  0.5444960000000  0.5550990000000  0.4998190000000 1.0
C      1  0.4613470000000  0.5593190000000  0.4998140000000 1.0
C      1  0.4316100000000  0.4816030000000  0.4998060000000 1.0
C      1  0.4963800000000  0.4292490000000  0.4998120000000 1.0
C      1  0.5661750000000  0.4747120000000  0.4998110000000 1.0
C      1  0.4573540000000  0.4499230000000  0.5274190000000 1.0
C      1  0.5344820000000  0.4439920000000  0.5274190000000 1.0
C      1  0.5639810000000  0.5154780000000  0.5274310000000 1.0
C      1  0.5050160000000  0.5655490000000  0.5274240000000 1.0
C      1  0.4391370000000  0.5250780000000  0.5274500000000 1.0
C      1  0.4865480000000  0.4442300000000  0.4750370000000 1.0
C      1  0.5489140000000  0.4699720000000  0.4750190000000 1.0
C      1  0.5436480000000  0.5372070000000  0.4750440000000 1.0
C      1  0.4780720000000  0.5530600000000  0.4750060000000 1.0
C      1  0.4428170000000  0.4955630000000  0.4750320000000 1.0
C      1  0.5190790000000  0.5715050000000  0.4996980000000 1.0
C      1  0.4378320000000  0.5402850000000  0.4996760000000 1.0
C      1  0.4425050000000  0.4533840000000  0.4996760000000 1.0
C      1  0.5265860000000  0.4309250000000  0.4996790000000 1.0
C      1  0.5739580000000  0.5039480000000  0.4996660000000 1.0
C      1  0.5442560000000  0.5381220000000  0.5251910000000 1.0
C      1  0.4774350000000  0.5537880000000  0.5251310000000 1.0
C      1  0.4418100000000  0.4951900000000  0.5251730000000 1.0
C      1  0.4866060000000  0.4431220000000  0.5252060000000 1.0
C      1  0.5499590000000  0.4696890000000  0.5251700000000 1.0
C      1  0.4805290000000  0.5179450000000  0.5607840000000 1.0
C      1  0.4769350000000  0.4870460000000  0.5607620000000 1.0
C      1  0.5052070000000  0.4740750000000  0.5607450000000 1.0
C      1  0.5262940000000  0.4969330000000  0.5607520000000 1.0
C      1  0.5110420000000  0.5240520000000  0.5607770000000 1.0
C      1  0.4935350000000  0.4734690000000  0.4846140000000 1.0
C      1  0.5232140000000  0.4856390000000  0.4845970000000 1.0
C      1  0.5208250000000  0.5176440000000  0.4846110000000 1.0
C      1  0.4896580000000  0.5252540000000  0.4845350000000 1.0
C      1  0.4727870000000  0.4979580000000  0.4845850000000 1.0
C      1  0.5517800000000  0.4925720000000  0.4542520000000 1.0
C      1  0.5230670000000  0.5469450000000  0.4542710000000 1.0
C      1  0.4624630000000  0.5364530000000  0.4542470000000 1.0
C      1  0.4537370000000  0.4755870000000  0.4542510000000 1.0
C      1  0.5089230000000  0.4484680000000  0.4542640000000 1.0
END
