TITL C-3985247-764-812 -0.00176711991249671 125000 -328.943363692573 0 0 60 (C2) n - 1
REM
REM in /home/nfs/bkarasulu/CARBON/AIRSS/Generating-Clusters/TERSOFF/Higher-Symm/Only-C60
REM
REM
REM
REM
REM
REM ./C.cell (28575a23ae977d3b5fae324c64b13b57)
REM
REM compiler GCC version 9.2.1 20190827 (Red Hat 9.2.1-1)
REM options -cpp -mtune=generic -march=x86-64 -g -O0 -fpre-include=/usr/include/finclude/math-vector-fortran.h
REM seed 796136136 -688064790 1884546775 1525678548 -1060286882 -66069656 -1017408273 -1516004691 -327254195 -1500730464 -1940308933 -997384347 -847189081 -1744885657 1679475718 615793067 -178023613 359464695 -342228892 1691937659 1217690701 -1475939596 -1565507423 1168339170 1446538309 2125195060 600212213 -1449948501 1957588898 -1870738054 -280089852 -2138255887 -1397419366
REM
CELL 1.54180   50.00000   50.00000   50.00000   90.00000   90.00000   90.00000
LATT -1
SFAC C  
C      1  0.5110100000000  0.4374870000000  0.5467150000000 1.0
C      1  0.4889900000000  0.4374870000000  0.4532850000000 1.0
C      1  0.4915400000000  0.5331180000000  0.5507860000000 1.0
C      1  0.5084600000000  0.5331180000000  0.4492140000000 1.0
C      1  0.5229840000000  0.5084530000000  0.5227450000000 1.0
C      1  0.4770160000000  0.5084530000000  0.4772550000000 1.0
C      1  0.4587160000000  0.4664180000000  0.4736380000000 1.0
C      1  0.5412840000000  0.4664180000000  0.5263620000000 1.0
C      1  0.4726700000000  0.4940200000000  0.4448390000000 1.0
C      1  0.5273300000000  0.4940200000000  0.5551610000000 1.0
C      1  0.5040510000000  0.5563380000000  0.4698350000000 1.0
C      1  0.4959490000000  0.5563380000000  0.5301650000000 1.0
C      1  0.4403820000000  0.5020650000000  0.4443090000000 1.0
C      1  0.5596180000000  0.5020650000000  0.5556910000000 1.0
C      1  0.5657250000000  0.5332220000000  0.5080690000000 1.0
C      1  0.4342750000000  0.5332220000000  0.4919310000000 1.0
C      1  0.5298390000000  0.4260120000000  0.5263530000000 1.0
C      1  0.4701610000000  0.4260120000000  0.4736470000000 1.0
C      1  0.5356570000000  0.4659550000000  0.4848060000000 1.0
C      1  0.4643430000000  0.4659550000000  0.5151940000000 1.0
C      1  0.5462800000000  0.5314610000000  0.5556310000000 1.0
C      1  0.4537200000000  0.5314610000000  0.4443690000000 1.0
C      1  0.4708240000000  0.5006820000000  0.5071500000000 1.0
C      1  0.5291760000000  0.5006820000000  0.4928500000000 1.0
C      1  0.4891170000000  0.4686710000000  0.4814080000000 1.0
C      1  0.5108830000000  0.4686710000000  0.5185920000000 1.0
C      1  0.4734280000000  0.5545790000000  0.5113390000000 1.0
C      1  0.5265720000000  0.5545790000000  0.4886610000000 1.0
C      1  0.4653980000000  0.5230510000000  0.5619620000000 1.0
C      1  0.5346020000000  0.5230510000000  0.4380380000000 1.0
C      1  0.4685010000000  0.4982800000000  0.5768690000000 1.0
C      1  0.5314990000000  0.4982800000000  0.4231310000000 1.0
C      1  0.5668140000000  0.4967930000000  0.4699080000000 1.0
C      1  0.4331860000000  0.4967930000000  0.5300920000000 1.0
C      1  0.4766100000000  0.5595810000000  0.4817560000000 1.0
C      1  0.5233900000000  0.5595810000000  0.5182440000000 1.0
C      1  0.5168230000000  0.5242740000000  0.5654450000000 1.0
C      1  0.4831770000000  0.5242740000000  0.4345550000000 1.0
C      1  0.5484870000000  0.5460370000000  0.5303730000000 1.0
C      1  0.4515130000000  0.5460370000000  0.4696270000000 1.0
C      1  0.4946490000000  0.5145950000000  0.5258250000000 1.0
C      1  0.5053510000000  0.5145950000000  0.4741750000000 1.0
C      1  0.5239380000000  0.4719610000000  0.4363940000000 1.0
C      1  0.4760620000000  0.4719610000000  0.5636060000000 1.0
C      1  0.4878210000000  0.4688220000000  0.4353360000000 1.0
C      1  0.5121790000000  0.4688220000000  0.5646640000000 1.0
C      1  0.5126480000000  0.4565070000000  0.4665700000000 1.0
C      1  0.4873520000000  0.4565070000000  0.5334300000000 1.0
C      1  0.5456350000000  0.5314060000000  0.4850980000000 1.0
C      1  0.4543650000000  0.5314060000000  0.5149020000000 1.0
C      1  0.5609740000000  0.4878610000000  0.5286610000000 1.0
C      1  0.4390260000000  0.4878610000000  0.4713390000000 1.0
C      1  0.4537280000000  0.4436770000000  0.4932670000000 1.0
C      1  0.5462720000000  0.4436770000000  0.5067330000000 1.0
C      1  0.5564860000000  0.5235270000000  0.4579080000000 1.0
C      1  0.4435140000000  0.5235270000000  0.5420920000000 1.0
C      1  0.4285880000000  0.5028390000000  0.4957940000000 1.0
C      1  0.5714120000000  0.5028390000000  0.5042060000000 1.0
C      1  0.4485270000000  0.4723060000000  0.5400870000000 1.0
C      1  0.5514730000000  0.4723060000000  0.4599130000000 1.0
END
