TITL C-3985251-913-49 0.00013904342593075 125000 -328.52100413949 0 0 60 (C2h) n - 1
REM
REM in /home/nfs/bkarasulu/CARBON/AIRSS/Generating-Clusters/TERSOFF/Higher-Symm/Only-C60
REM
REM
REM
REM
REM
REM ./C.cell (28575a23ae977d3b5fae324c64b13b57)
REM
REM compiler GCC version 9.2.1 20190827 (Red Hat 9.2.1-1)
REM options -cpp -mtune=generic -march=x86-64 -g -O0 -fpre-include=/usr/include/finclude/math-vector-fortran.h
REM seed 1868717695 1296336936 1746044297 -418677066 -64196075 1175852455 -572748287 119934735 819176362 -1410357348 13362566 1376968569 568916607 -1135450477 -242496640 394696979 1146161423 -100092680 1014740674 1801802595 913345019 -356685182 1271808670 -558003649 -2064022710 1382920792 -1820077980 1726507510 -1923533691 -1271996160 1484651893 837657157 -868590711
REM
CELL 1.54180   50.00000   50.00000   50.00000   90.00000   90.00000   90.00000
LATT -1
SFAC C  
C      1  0.5620870000000  0.4655880000000  0.5147560000000 1.0
C      1  0.5620870000000  0.5344120000000  0.4852440000000 1.0
C      1  0.4379130000000  0.4655880000000  0.5147560000000 1.0
C      1  0.4379130000000  0.5344120000000  0.4852440000000 1.0
C      1  0.4489530000000  0.4768680000000  0.4415160000000 1.0
C      1  0.4489530000000  0.5231320000000  0.5584840000000 1.0
C      1  0.5510470000000  0.4768690000000  0.4415160000000 1.0
C      1  0.5510470000000  0.5231320000000  0.5584840000000 1.0
C      1  0.4819360000000  0.5704860000000  0.4867110000000 1.0
C      1  0.4819340000000  0.4295140000000  0.5132890000000 1.0
C      1  0.5180640000000  0.5704860000000  0.4867110000000 1.0
C      1  0.5180660000000  0.4295140000000  0.5132890000000 1.0
C      1  0.4563130000000  0.5080350000000  0.4405300000000 1.0
C      1  0.4563130000000  0.4919650000000  0.5594700000000 1.0
C      1  0.5436870000000  0.5080350000000  0.4405300000000 1.0
C      1  0.5436870000000  0.4919650000000  0.5594700000000 1.0
C      1  0.4791060000000  0.5252960000000  0.5095110000000 1.0
C      1  0.4791060000000  0.4747040000000  0.4904890000000 1.0
C      1  0.5208940000000  0.5252960000000  0.5095110000000 1.0
C      1  0.5208940000000  0.4747040000000  0.4904890000000 1.0
C      1  0.4790040000000  0.5052180000000  0.4797260000000 1.0
C      1  0.4790060000000  0.4947830000000  0.5202740000000 1.0
C      1  0.5209960000000  0.5052180000000  0.4797260000000 1.0
C      1  0.5209940000000  0.4947830000000  0.5202740000000 1.0
C      1  0.4659890000000  0.4560220000000  0.5108980000000 1.0
C      1  0.4659890000000  0.5439770000000  0.4891020000000 1.0
C      1  0.5340110000000  0.4560220000000  0.5108980000000 1.0
C      1  0.5340110000000  0.5439780000000  0.4891020000000 1.0
C      1  0.5789860000000  0.5320420000000  0.5097760000000 1.0
C      1  0.5789860000000  0.4679580000000  0.4902240000000 1.0
C      1  0.4210140000000  0.5320420000000  0.5097760000000 1.0
C      1  0.4210140000000  0.4679580000000  0.4902240000000 1.0
C      1  0.5669510000000  0.4840260000000  0.5374140000000 1.0
C      1  0.5669510000000  0.5159740000000  0.4625860000000 1.0
C      1  0.4330500000000  0.4840260000000  0.5374140000000 1.0
C      1  0.4330490000000  0.5159740000000  0.4625860000000 1.0
C      1  0.5144680000000  0.4503370000000  0.4186070000000 1.0
C      1  0.5144680000000  0.5496630000000  0.5813930000000 1.0
C      1  0.4855320000000  0.4503370000000  0.4186080000000 1.0
C      1  0.4855320000000  0.5496630000000  0.5813920000000 1.0
C      1  0.4700850000000  0.5433270000000  0.5574620000000 1.0
C      1  0.4700850000000  0.4566730000000  0.4425370000000 1.0
C      1  0.5299150000000  0.5433270000000  0.5574620000000 1.0
C      1  0.5299150000000  0.4566730000000  0.4425380000000 1.0
C      1  0.4839710000000  0.5770420000000  0.5180880000000 1.0
C      1  0.4839710000000  0.4229580000000  0.4819120000000 1.0
C      1  0.5160290000000  0.5770420000000  0.5180880000000 1.0
C      1  0.5160290000000  0.4229580000000  0.4819120000000 1.0
C      1  0.5718970000000  0.4838770000000  0.4655450000000 1.0
C      1  0.5718970000000  0.5161230000000  0.5344550000000 1.0
C      1  0.4281030000000  0.4838770000000  0.4655440000000 1.0
C      1  0.4281030000000  0.5161230000000  0.5344560000000 1.0
C      1  0.5160990000000  0.5474690000000  0.5319510000000 1.0
C      1  0.5160990000000  0.4525310000000  0.4680490000000 1.0
C      1  0.4839010000000  0.5474690000000  0.5319500000000 1.0
C      1  0.4839010000000  0.4525310000000  0.4680500000000 1.0
C      1  0.5157940000000  0.5143250000000  0.4517880000000 1.0
C      1  0.5157940000000  0.4856750000000  0.5482130000000 1.0
C      1  0.4842060000000  0.5143250000000  0.4517870000000 1.0
C      1  0.4842060000000  0.4856750000000  0.5482120000000 1.0
END
