TITL C-3985252-168-141 1.04018483297736e-06 125000 -321.242501852652 0 0 60 (C1) n - 1
REM
REM in /home/nfs/bkarasulu/CARBON/AIRSS/Generating-Clusters/TERSOFF/Higher-Symm/Only-C60
REM
REM
REM
REM
REM
REM ./C.cell (28575a23ae977d3b5fae324c64b13b57)
REM
REM compiler GCC version 9.2.1 20190827 (Red Hat 9.2.1-1)
REM options -cpp -mtune=generic -march=x86-64 -g -O0 -fpre-include=/usr/include/finclude/math-vector-fortran.h
REM seed 1336554046 -637454346 -440290464 -324649640 -1220088247 -1374096377 -230198876 -367591499 -1585186256 -1490159811 2144106052 -1322636545 -638895928 174634248 1691652528 -2028192629 -233868733 1343924460 1466326891 -1605384136 733788578 185143460 874305924 -1397951303 -194114806 -803164953 1310491455 -562142548 -1376037526 1679939313 365023613 817828650 -222222474
REM
CELL 1.54180   50.00000   50.00000   50.00000   90.00000   90.00000   90.00000
LATT -1
SFAC C  
C      1  0.4676540000000  0.4828620000000  0.5630240000000 1.0
C      1  0.4962020000000  0.4945590000000  0.5661250000000 1.0
C      1  0.4470880000000  0.5094150000000  0.4541880000000 1.0
C      1  0.4683550000000  0.4944660000000  0.5150130000000 1.0
C      1  0.5382110000000  0.5406630000000  0.5166290000000 1.0
C      1  0.4649080000000  0.4333280000000  0.5053000000000 1.0
C      1  0.4922090000000  0.5171650000000  0.5181320000000 1.0
C      1  0.5223520000000  0.4968390000000  0.4734950000000 1.0
C      1  0.4380110000000  0.4996040000000  0.5506090000000 1.0
C      1  0.5111690000000  0.4899560000000  0.4420290000000 1.0
C      1  0.4636280000000  0.4701500000000  0.5352970000000 1.0
C      1  0.4443220000000  0.4479950000000  0.4889300000000 1.0
C      1  0.5512210000000  0.5187420000000  0.4484490000000 1.0
C      1  0.5029500000000  0.5533110000000  0.5527650000000 1.0
C      1  0.4786640000000  0.4466470000000  0.5281490000000 1.0
C      1  0.4219780000000  0.4930310000000  0.4960900000000 1.0
C      1  0.5029130000000  0.5203390000000  0.4876250000000 1.0
C      1  0.4817480000000  0.5580420000000  0.4582290000000 1.0
C      1  0.4397700000000  0.5073840000000  0.5155820000000 1.0
C      1  0.5154840000000  0.4721660000000  0.5067640000000 1.0
C      1  0.4322420000000  0.4676330000000  0.5342850000000 1.0
C      1  0.4855020000000  0.5253250000000  0.5624590000000 1.0
C      1  0.5001300000000  0.4742630000000  0.4824980000000 1.0
C      1  0.4239090000000  0.4642000000000  0.5052560000000 1.0
C      1  0.5386060000000  0.4683910000000  0.4668730000000 1.0
C      1  0.5225330000000  0.5155440000000  0.5272150000000 1.0
C      1  0.4827130000000  0.5659210000000  0.5051390000000 1.0
C      1  0.4897910000000  0.5113390000000  0.4386690000000 1.0
C      1  0.5371430000000  0.5060620000000  0.5519880000000 1.0
C      1  0.5311770000000  0.5405770000000  0.4571820000000 1.0
C      1  0.5384170000000  0.4979990000000  0.4322710000000 1.0
C      1  0.5122430000000  0.5711640000000  0.5012690000000 1.0
C      1  0.4569110000000  0.4677150000000  0.4707490000000 1.0
C      1  0.5178740000000  0.4688050000000  0.5533460000000 1.0
C      1  0.4733090000000  0.4876840000000  0.4850060000000 1.0
C      1  0.5664520000000  0.4919360000000  0.5468060000000 1.0
C      1  0.5781150000000  0.5227880000000  0.5461570000000 1.0
C      1  0.5764430000000  0.4917690000000  0.4871950000000 1.0
C      1  0.5134770000000  0.4455950000000  0.4681390000000 1.0
C      1  0.4987780000000  0.4616070000000  0.4425190000000 1.0
C      1  0.4567540000000  0.5275450000000  0.5481760000000 1.0
C      1  0.4230830000000  0.5001040000000  0.4678110000000 1.0
C      1  0.5518260000000  0.4515180000000  0.5106570000000 1.0
C      1  0.5472490000000  0.4674760000000  0.5388520000000 1.0
C      1  0.5242550000000  0.5447780000000  0.4871680000000 1.0
C      1  0.5620340000000  0.4657800000000  0.4846540000000 1.0
C      1  0.4738730000000  0.5186720000000  0.4705410000000 1.0
C      1  0.5066480000000  0.4560890000000  0.5287500000000 1.0
C      1  0.5648420000000  0.5019280000000  0.5122580000000 1.0
C      1  0.5249240000000  0.5648860000000  0.5315120000000 1.0
C      1  0.5678060000000  0.5337500000000  0.5187350000000 1.0
C      1  0.4678180000000  0.4646640000000  0.4423660000000 1.0
C      1  0.4872570000000  0.5462330000000  0.5262080000000 1.0
C      1  0.4651630000000  0.5496340000000  0.4850970000000 1.0
C      1  0.5019130000000  0.5402710000000  0.4452150000000 1.0
C      1  0.4478450000000  0.5379830000000  0.5144690000000 1.0
C      1  0.4618820000000  0.4936510000000  0.4320510000000 1.0
C      1  0.5758290000000  0.5114990000000  0.4642790000000 1.0
C      1  0.5297820000000  0.4342430000000  0.4958340000000 1.0
C      1  0.5346180000000  0.4963140000000  0.5079220000000 1.0
END
