TITL C-3985246-2097-5 4.21214485494263e-08 125000 -341.309955667807 0 0 60 (C4) n - 1
REM
REM in /home/nfs/bkarasulu/CARBON/AIRSS/Generating-Clusters/TERSOFF/Higher-Symm/Only-C60
REM
REM
REM
REM
REM
REM ./C.cell (28575a23ae977d3b5fae324c64b13b57)
REM
REM compiler GCC version 9.2.1 20190827 (Red Hat 9.2.1-1)
REM options -cpp -mtune=generic -march=x86-64 -g -O0 -fpre-include=/usr/include/finclude/math-vector-fortran.h
REM seed -2097679842 -353309580 1783066908 1132899174 -1560347732 -442802775 -128274922 1715623934 960033590 -1646107268 1754632054 -1191287142 -128161333 -1157646663 -665059916 -427641722 -907858430 -1785473142 -129155185 -2121343502 -958254746 744179333 -1474132071 -424830613 -911593997 1366876781 -863015406 -775172870 371013109 2081130289 95098691 2036884516 -566531137
REM
CELL 1.54180   50.00000   50.00000   50.00000   90.00000   90.00000   90.00000
LATT -1
SFAC C  
C      1  0.5376100000000  0.5772620000000  0.5217270000000 1.0
C      1  0.4227380000000  0.5376000000000  0.5217480000000 1.0
C      1  0.4624010000000  0.4227280000000  0.5217110000000 1.0
C      1  0.5772730000000  0.4623900000000  0.5216900000000 1.0
C      1  0.4486840000000  0.5056560000000  0.5503170000000 1.0
C      1  0.4943450000000  0.4486600000000  0.5502920000000 1.0
C      1  0.5513420000000  0.4943210000000  0.5502870000000 1.0
C      1  0.5056810000000  0.5513170000000  0.5503120000000 1.0
C      1  0.4729900000000  0.5196130000000  0.4463600000000 1.0
C      1  0.4803860000000  0.4730170000000  0.4463470000000 1.0
C      1  0.5269810000000  0.4804120000000  0.4463370000000 1.0
C      1  0.5195860000000  0.5270080000000  0.4463490000000 1.0
C      1  0.5175830000000  0.4837530000000  0.5095430000000 1.0
C      1  0.5162480000000  0.5175780000000  0.5095510000000 1.0
C      1  0.4824220000000  0.5162430000000  0.5095590000000 1.0
C      1  0.4837570000000  0.4824170000000  0.5095510000000 1.0
C      1  0.4759750000000  0.5019910000000  0.5646650000000 1.0
C      1  0.4980110000000  0.4759430000000  0.5646530000000 1.0
C      1  0.5240590000000  0.4979790000000  0.5646510000000 1.0
C      1  0.5020230000000  0.5240270000000  0.5646630000000 1.0
C      1  0.4856830000000  0.5594830000000  0.5292210000000 1.0
C      1  0.4405180000000  0.4856680000000  0.5292160000000 1.0
C      1  0.5143330000000  0.4405040000000  0.5291870000000 1.0
C      1  0.5594970000000  0.5143180000000  0.5291920000000 1.0
C      1  0.4765580000000  0.5596640000000  0.4768130000000 1.0
C      1  0.4403350000000  0.4765690000000  0.4768030000000 1.0
C      1  0.5234300000000  0.4403460000000  0.4767730000000 1.0
C      1  0.5596530000000  0.5234410000000  0.4767830000000 1.0
C      1  0.5127050000000  0.4373640000000  0.4494900000000 1.0
C      1  0.5626340000000  0.5127300000000  0.4494940000000 1.0
C      1  0.4872680000000  0.5626590000000  0.4495250000000 1.0
C      1  0.4373400000000  0.4872930000000  0.4495210000000 1.0
C      1  0.5310700000000  0.4629240000000  0.5256830000000 1.0
C      1  0.5370770000000  0.5310580000000  0.5256970000000 1.0
C      1  0.4689430000000  0.5370640000000  0.5257160000000 1.0
C      1  0.4629370000000  0.4689310000000  0.5257020000000 1.0
C      1  0.5501770000000  0.4579560000000  0.4780530000000 1.0
C      1  0.5420430000000  0.5501880000000  0.4780760000000 1.0
C      1  0.4498110000000  0.5420540000000  0.4780980000000 1.0
C      1  0.4579460000000  0.4498220000000  0.4780750000000 1.0
C      1  0.4747490000000  0.4316910000000  0.4967130000000 1.0
C      1  0.5683090000000  0.4747510000000  0.4966990000000 1.0
C      1  0.5252490000000  0.5683100000000  0.4967310000000 1.0
C      1  0.4316900000000  0.5252500000000  0.4967460000000 1.0
C      1  0.4857250000000  0.4812350000000  0.4759720000000 1.0
C      1  0.5187640000000  0.4857360000000  0.4759650000000 1.0
C      1  0.5142630000000  0.5187760000000  0.4759730000000 1.0
C      1  0.4812230000000  0.5142750000000  0.4759810000000 1.0
C      1  0.5057990000000  0.4619930000000  0.4342040000000 1.0
C      1  0.5380050000000  0.5058310000000  0.4342050000000 1.0
C      1  0.4941670000000  0.5380370000000  0.4342240000000 1.0
C      1  0.4619610000000  0.4941990000000  0.4342230000000 1.0
C      1  0.4952160000000  0.5649570000000  0.5004970000000 1.0
C      1  0.4350430000000  0.4952150000000  0.5004970000000 1.0
C      1  0.5047850000000  0.4350430000000  0.5004650000000 1.0
C      1  0.5649570000000  0.5047840000000  0.5004650000000 1.0
C      1  0.5330040000000  0.5556830000000  0.5407560000000 1.0
C      1  0.4443190000000  0.5329850000000  0.5407740000000 1.0
C      1  0.4670170000000  0.4442990000000  0.5407470000000 1.0
C      1  0.5557030000000  0.4669970000000  0.5407290000000 1.0
END
