TITL C-3985259-1859-1300 -0.0282625757302657 125000 -303.495690640594 0 0 60 (D2) n - 1
REM
REM in /home/nfs/bkarasulu/CARBON/AIRSS/Generating-Clusters/TERSOFF/Higher-Symm/Only-C60
REM
REM
REM
REM
REM
REM ./C.cell (28575a23ae977d3b5fae324c64b13b57)
REM
REM compiler GCC version 9.2.1 20190827 (Red Hat 9.2.1-1)
REM options -cpp -mtune=generic -march=x86-64 -g -O0 -fpre-include=/usr/include/finclude/math-vector-fortran.h
REM seed -1442808620 -1062378468 1812664952 1096353151 -159930293 850127044 -1645984852 -826451438 -1878661593 509571550 -978029183 -2135830599 -345456031 1066211680 1915685708 1808351306 1820417436 -800671368 -1904044190 1054727486 -1324562340 -226587094 -436093082 1617470694 1502461764 -34603853 -1104929234 -1333704288 123881171 470719355 1086764540 -1778875614 -1305534804
REM
CELL 1.54180   50.00000   50.00000   50.00000   90.00000   90.00000   90.00000
LATT -1
SFAC C  
C      1  0.4384700000000  0.4522940000000  0.4844460000000 1.0
C      1  0.5615300000000  0.4522940000000  0.5155540000000 1.0
C      1  0.4384700000000  0.5477060000000  0.5155540000000 1.0
C      1  0.5615300000000  0.5477060000000  0.4844460000000 1.0
C      1  0.4694280000000  0.4515640000000  0.5558370000000 1.0
C      1  0.5305720000000  0.4515640000000  0.4441630000000 1.0
C      1  0.4694280000000  0.5484360000000  0.4441630000000 1.0
C      1  0.5305720000000  0.5484360000000  0.5558370000000 1.0
C      1  0.5268650000000  0.5140360000000  0.5295690000000 1.0
C      1  0.4731350000000  0.5140360000000  0.4704310000000 1.0
C      1  0.5268650000000  0.4859640000000  0.4704310000000 1.0
C      1  0.4731350000000  0.4859640000000  0.5295690000000 1.0
C      1  0.4790360000000  0.4639570000000  0.4534350000000 1.0
C      1  0.5209640000000  0.4639570000000  0.5465650000000 1.0
C      1  0.4790360000000  0.5360430000000  0.5465650000000 1.0
C      1  0.5209640000000  0.5360430000000  0.4534350000000 1.0
C      1  0.5047690000000  0.5613900000000  0.5458850000000 1.0
C      1  0.4952310000000  0.5613900000000  0.4541150000000 1.0
C      1  0.5047690000000  0.4386100000000  0.4541150000000 1.0
C      1  0.4952310000000  0.4386100000000  0.5458850000000 1.0
C      1  0.4660910000000  0.4831380000000  0.5588250000000 1.0
C      1  0.5339090000000  0.4831380000000  0.4411750000000 1.0
C      1  0.4660910000000  0.5168620000000  0.4411750000000 1.0
C      1  0.5339090000000  0.5168620000000  0.5588250000000 1.0
C      1  0.5268740000000  0.4502260000000  0.4916700000000 1.0
C      1  0.4731260000000  0.4502260000000  0.5083300000000 1.0
C      1  0.5268740000000  0.5497740000000  0.5083300000000 1.0
C      1  0.4731260000000  0.5497740000000  0.4916700000000 1.0
C      1  0.4959080000000  0.5786100000000  0.5158290000000 1.0
C      1  0.5040920000000  0.5786100000000  0.4841710000000 1.0
C      1  0.4959080000000  0.4213900000000  0.4841710000000 1.0
C      1  0.5040920000000  0.4213900000000  0.5158290000000 1.0
C      1  0.5513570000000  0.5247010000000  0.5091220000000 1.0
C      1  0.4486430000000  0.5247010000000  0.4908780000000 1.0
C      1  0.5513570000000  0.4752990000000  0.4908780000000 1.0
C      1  0.4486430000000  0.4752990000000  0.5091220000000 1.0
C      1  0.4755300000000  0.5118570000000  0.5123750000000 1.0
C      1  0.5244700000000  0.5118570000000  0.4876250000000 1.0
C      1  0.4755300000000  0.4881430000000  0.4876250000000 1.0
C      1  0.5244700000000  0.4881430000000  0.5123750000000 1.0
C      1  0.5667250000000  0.5008720000000  0.5281030000000 1.0
C      1  0.4332750000000  0.5008720000000  0.4718970000000 1.0
C      1  0.5667250000000  0.4991280000000  0.4718970000000 1.0
C      1  0.4332750000000  0.4991280000000  0.5281030000000 1.0
C      1  0.5547680000000  0.4734060000000  0.5371870000000 1.0
C      1  0.4452320000000  0.4734060000000  0.4628130000000 1.0
C      1  0.5547680000000  0.5265940000000  0.4628130000000 1.0
C      1  0.4452320000000  0.5265940000000  0.5371870000000 1.0
C      1  0.4993430000000  0.5303110000000  0.4819610000000 1.0
C      1  0.5006570000000  0.5303110000000  0.5180390000000 1.0
C      1  0.4993430000000  0.4696890000000  0.5180390000000 1.0
C      1  0.5006570000000  0.4696890000000  0.4819610000000 1.0
C      1  0.4856510000000  0.4939190000000  0.4347110000000 1.0
C      1  0.5143490000000  0.4939190000000  0.5652890000000 1.0
C      1  0.4856510000000  0.5060810000000  0.5652890000000 1.0
C      1  0.5143490000000  0.5060810000000  0.4347110000000 1.0
C      1  0.5307410000000  0.5608040000000  0.4785730000000 1.0
C      1  0.4692590000000  0.5608040000000  0.5214270000000 1.0
C      1  0.5307410000000  0.4391960000000  0.5214270000000 1.0
C      1  0.4692590000000  0.4391960000000  0.4785730000000 1.0
END
