TITL C-3985245-9316-1062 -0.0008000856475597 125000 -352.321194906037 0 0 60 (C1) n - 1
REM
REM in /home/nfs/bkarasulu/CARBON/AIRSS/Generating-Clusters/TERSOFF/Higher-Symm/Only-C60
REM
REM
REM
REM
REM
REM ./C.cell (28575a23ae977d3b5fae324c64b13b57)
REM
REM compiler GCC version 9.2.1 20190827 (Red Hat 9.2.1-1)
REM options -cpp -mtune=generic -march=x86-64 -g -O0 -fpre-include=/usr/include/finclude/math-vector-fortran.h
REM seed -755483497 -1285402300 -283016085 722273369 -297661587 -2024191633 -87149431 235547754 -1372124248 1167825983 -1460196250 -260077156 373636068 -1384940746 -309847378 1775460178 -2010580139 1074269867 -1157574889 1768580302 800695832 2025077903 -98246286 1934056539 1553354789 -103101668 -454794602 1788144481 -26710082 1994264242 259333752 746828569 -1270380246
REM
CELL 1.54180   50.00000   50.00000   50.00000   90.00000   90.00000   90.00000
LATT -1
SFAC C  
C      1  0.4591030000000  0.5248090000000  0.5575530000000 1.0
C      1  0.5134650000000  0.5481650000000  0.5578020000000 1.0
C      1  0.5555620000000  0.4997080000000  0.5634440000000 1.0
C      1  0.5204020000000  0.4488280000000  0.5611020000000 1.0
C      1  0.4622100000000  0.4638270000000  0.5588840000000 1.0
C      1  0.5497530000000  0.5189320000000  0.4864110000000 1.0
C      1  0.5447920000000  0.4500350000000  0.4872450000000 1.0
C      1  0.4598980000000  0.4458050000000  0.4838080000000 1.0
C      1  0.4395300000000  0.5190100000000  0.4818770000000 1.0
C      1  0.4959180000000  0.5665080000000  0.4840360000000 1.0
C      1  0.4739510000000  0.4300910000000  0.4638820000000 1.0
C      1  0.4414260000000  0.4980550000000  0.4616900000000 1.0
C      1  0.4736370000000  0.5656170000000  0.4646300000000 1.0
C      1  0.5307110000000  0.5318970000000  0.4692290000000 1.0
C      1  0.5563850000000  0.4661830000000  0.4658590000000 1.0
C      1  0.4452500000000  0.5479790000000  0.4710210000000 1.0
C      1  0.5230720000000  0.5623580000000  0.4712880000000 1.0
C      1  0.5666960000000  0.4965430000000  0.4720360000000 1.0
C      1  0.5242200000000  0.4331720000000  0.4751070000000 1.0
C      1  0.4399580000000  0.4664070000000  0.4697490000000 1.0
C      1  0.5477840000000  0.5239660000000  0.5173140000000 1.0
C      1  0.5401930000000  0.4627460000000  0.5144350000000 1.0
C      1  0.4746000000000  0.4539900000000  0.5096100000000 1.0
C      1  0.4484730000000  0.5105830000000  0.5101060000000 1.0
C      1  0.4918700000000  0.5557870000000  0.5119360000000 1.0
C      1  0.5105200000000  0.5188130000000  0.5567240000000 1.0
C      1  0.5279070000000  0.4991220000000  0.5717810000000 1.0
C      1  0.5113100000000  0.4731510000000  0.5741790000000 1.0
C      1  0.4821840000000  0.4811920000000  0.5710490000000 1.0
C      1  0.4828030000000  0.5095720000000  0.5638710000000 1.0
C      1  0.4643680000000  0.4684340000000  0.4428860000000 1.0
C      1  0.4593180000000  0.5342150000000  0.4407610000000 1.0
C      1  0.5129730000000  0.5530140000000  0.4376670000000 1.0
C      1  0.5464530000000  0.4991690000000  0.4420000000000 1.0
C      1  0.5160810000000  0.4465720000000  0.4494010000000 1.0
C      1  0.4972610000000  0.5257430000000  0.5105240000000 1.0
C      1  0.5198330000000  0.5128970000000  0.5258740000000 1.0
C      1  0.5168450000000  0.4838820000000  0.5154940000000 1.0
C      1  0.4900300000000  0.4791620000000  0.5039790000000 1.0
C      1  0.4772330000000  0.5059510000000  0.5025780000000 1.0
C      1  0.4459220000000  0.5658420000000  0.4964640000000 1.0
C      1  0.5444490000000  0.5685400000000  0.4921960000000 1.0
C      1  0.5814140000000  0.4827600000000  0.4955170000000 1.0
C      1  0.5055320000000  0.4200680000000  0.4927880000000 1.0
C      1  0.4229100000000  0.4722870000000  0.4949380000000 1.0
C      1  0.5665030000000  0.4780880000000  0.5201830000000 1.0
C      1  0.4969190000000  0.4341040000000  0.5169370000000 1.0
C      1  0.4361910000000  0.4838430000000  0.5183680000000 1.0
C      1  0.4621650000000  0.5575170000000  0.5192430000000 1.0
C      1  0.5423370000000  0.5553530000000  0.5185050000000 1.0
C      1  0.5631340000000  0.5028630000000  0.5355380000000 1.0
C      1  0.5210200000000  0.4450530000000  0.5322420000000 1.0
C      1  0.4552940000000  0.4640300000000  0.5305050000000 1.0
C      1  0.4514700000000  0.5324350000000  0.5308040000000 1.0
C      1  0.5159260000000  0.5615710000000  0.5320600000000 1.0
C      1  0.5378920000000  0.4670680000000  0.4391170000000 1.0
C      1  0.4869860000000  0.4460520000000  0.4422140000000 1.0
C      1  0.4613530000000  0.5027850000000  0.4370230000000 1.0
C      1  0.4828900000000  0.5561810000000  0.4360230000000 1.0
C      1  0.5257140000000  0.5216720000000  0.4405110000000 1.0
END
