TITL C-3985252-168-427 0.0104763110926776 125000 -283.321172436018 0 0 60 (Ci) n - 1
REM
REM in /home/nfs/bkarasulu/CARBON/AIRSS/Generating-Clusters/TERSOFF/Higher-Symm/Only-C60
REM
REM
REM
REM
REM
REM ./C.cell (28575a23ae977d3b5fae324c64b13b57)
REM
REM compiler GCC version 9.2.1 20190827 (Red Hat 9.2.1-1)
REM options -cpp -mtune=generic -march=x86-64 -g -O0 -fpre-include=/usr/include/finclude/math-vector-fortran.h
REM seed 1855079552 277271891 932210893 387024616 1204822597 1705686559 -1478659674 -112171709 -981847589 -1916077543 -459657432 993471390 829750595 -405941447 -1542785812 -135207405 -1594079717 -904467804 -971673180 379492183 -793685518 1549695510 -1934912298 -897786482 1381119571 1052314598 -877866354 -1588717374 -296764092 -261061859 1787393681 890584055 621312360
REM
CELL 1.54180   50.00000   50.00000   50.00000   90.00000   90.00000   90.00000
LATT -1
SFAC C  
C      1  0.4742530000000  0.5241430000000  0.5536980000000 1.0
C      1  0.5257470000000  0.4758570000000  0.4463020000000 1.0
C      1  0.5154250000000  0.5056610000000  0.4529500000000 1.0
C      1  0.4845750000000  0.4943390000000  0.5470500000000 1.0
C      1  0.5572180000000  0.5012500000000  0.4575450000000 1.0
C      1  0.4427820000000  0.4987500000000  0.5424550000000 1.0
C      1  0.4270970000000  0.5224780000000  0.4986200000000 1.0
C      1  0.5729030000000  0.4775220000000  0.5013800000000 1.0
C      1  0.5757270000000  0.4822250000000  0.4727200000000 1.0
C      1  0.4242730000000  0.5177750000000  0.5272800000000 1.0
C      1  0.4899460000000  0.4593630000000  0.4318370000000 1.0
C      1  0.5100540000000  0.5406370000000  0.5681630000000 1.0
C      1  0.5550990000000  0.5268570000000  0.5515300000000 1.0
C      1  0.4449010000000  0.4731430000000  0.4484700000000 1.0
C      1  0.5207670000000  0.4758750000000  0.4917600000000 1.0
C      1  0.4792330000000  0.5241250000000  0.5082400000000 1.0
C      1  0.4303860000000  0.5392110000000  0.4553070000000 1.0
C      1  0.5696140000000  0.4607890000000  0.5446930000000 1.0
C      1  0.4886120000000  0.5650850000000  0.5071980000000 1.0
C      1  0.5113880000000  0.4349150000000  0.4928020000000 1.0
C      1  0.5077430000000  0.4702210000000  0.5538500000000 1.0
C      1  0.4922570000000  0.5297790000000  0.4461500000000 1.0
C      1  0.5272830000000  0.4757610000000  0.5233240000000 1.0
C      1  0.4727170000000  0.5242390000000  0.4766760000000 1.0
C      1  0.4864390000000  0.4937500000000  0.4663540000000 1.0
C      1  0.5135610000000  0.5062500000000  0.5336460000000 1.0
C      1  0.4608620000000  0.4673710000000  0.5473830000000 1.0
C      1  0.5391380000000  0.5326290000000  0.4526170000000 1.0
C      1  0.4226300000000  0.5471020000000  0.4831250000000 1.0
C      1  0.5773700000000  0.4528980000000  0.5168750000000 1.0
C      1  0.4697240000000  0.5129950000000  0.4313780000000 1.0
C      1  0.5302760000000  0.4870050000000  0.5686220000000 1.0
C      1  0.4888910000000  0.4727890000000  0.4905140000000 1.0
C      1  0.5111090000000  0.5272110000000  0.5094860000000 1.0
C      1  0.5270750000000  0.5179140000000  0.5605110000000 1.0
C      1  0.4729250000000  0.4820860000000  0.4394890000000 1.0
C      1  0.4532820000000  0.4579120000000  0.4739530000000 1.0
C      1  0.5467180000000  0.5420880000000  0.5260470000000 1.0
C      1  0.4414210000000  0.5091910000000  0.4487760000000 1.0
C      1  0.5585790000000  0.4908090000000  0.5512240000000 1.0
C      1  0.4743320000000  0.4451060000000  0.5096330000000 1.0
C      1  0.5256680000000  0.5548940000000  0.4903670000000 1.0
C      1  0.4789810000000  0.4341040000000  0.4768520000000 1.0
C      1  0.5210190000000  0.5658960000000  0.5231480000000 1.0
C      1  0.4549880000000  0.4800140000000  0.4965960000000 1.0
C      1  0.5450120000000  0.5199860000000  0.5034040000000 1.0
C      1  0.5148260000000  0.4457860000000  0.5205490000000 1.0
C      1  0.4851740000000  0.5542140000000  0.4794510000000 1.0
C      1  0.5543490000000  0.4936620000000  0.5175050000000 1.0
C      1  0.4456510000000  0.5063380000000  0.4824950000000 1.0
C      1  0.5270260000000  0.4517170000000  0.4682090000000 1.0
C      1  0.4729740000000  0.5482830000000  0.5317910000000 1.0
C      1  0.4890370000000  0.4449120000000  0.5405120000000 1.0
C      1  0.5109630000000  0.5550880000000  0.4594880000000 1.0
C      1  0.4999380000000  0.4422190000000  0.4530840000000 1.0
C      1  0.5000620000000  0.5577810000000  0.5469160000000 1.0
C      1  0.5525980000000  0.5416520000000  0.4805580000000 1.0
C      1  0.4474020000000  0.4583480000000  0.5194420000000 1.0
C      1  0.5326700000000  0.5009040000000  0.4801000000000 1.0
C      1  0.4673300000000  0.4990960000000  0.5199000000000 1.0
END
