TITL C-3985245-9316-31 -3.27167004899406e-07 125000 -310.275404022032 0 0 60 (C4h) n - 1
REM
REM in /home/nfs/bkarasulu/CARBON/AIRSS/Generating-Clusters/TERSOFF/Higher-Symm/Only-C60
REM
REM
REM
REM
REM
REM ./C.cell (28575a23ae977d3b5fae324c64b13b57)
REM
REM compiler GCC version 9.2.1 20190827 (Red Hat 9.2.1-1)
REM options -cpp -mtune=generic -march=x86-64 -g -O0 -fpre-include=/usr/include/finclude/math-vector-fortran.h
REM seed -831208837 -1418024945 -755354563 1130679923 -819470648 -395439477 1807231088 -2126031379 -286334664 2099921484 -1864512494 2097534863 413704114 -361829083 -1749285457 -1357787696 1486414714 732955724 1847375999 -1921646405 1064599049 37609929 1328562070 -544013689 191677433 1886534567 -858554046 -2010814955 -51563850 2120532517 1779342856 -1271696358 -767598981
REM
CELL 1.54180   50.00000   50.00000   50.00000   90.00000   90.00000   90.00000
LATT -1
SFAC C  
C      1  0.4636800000000  0.4750240000000  0.5491880000000 1.0
C      1  0.4508120000000  0.4750240000000  0.4636800000000 1.0
C      1  0.5363200000000  0.4750240000000  0.4508120000000 1.0
C      1  0.5491880000000  0.4750240000000  0.5363200000000 1.0
C      1  0.4636800000000  0.5234170000000  0.5491880000000 1.0
C      1  0.4508120000000  0.5234170000000  0.4636800000000 1.0
C      1  0.5363200000000  0.5234170000000  0.4508120000000 1.0
C      1  0.5491880000000  0.5234170000000  0.5363200000000 1.0
C      1  0.5031820000000  0.4327810000000  0.4488250000000 1.0
C      1  0.5511750000000  0.4327810000000  0.5031820000000 1.0
C      1  0.4968180000000  0.4327810000000  0.5511750000000 1.0
C      1  0.4488250000000  0.4327810000000  0.4968180000000 1.0
C      1  0.5031820000000  0.5656600000000  0.4488250000000 1.0
C      1  0.5511750000000  0.5656600000000  0.5031820000000 1.0
C      1  0.4968180000000  0.5656600000000  0.5511750000000 1.0
C      1  0.4488250000000  0.5656600000000  0.4968180000000 1.0
C      1  0.5202560000000  0.4372380000000  0.5312100000000 1.0
C      1  0.4687900000000  0.4372380000000  0.5202560000000 1.0
C      1  0.4797440000000  0.4372380000000  0.4687900000000 1.0
C      1  0.5312100000000  0.4372380000000  0.4797440000000 1.0
C      1  0.5202560000000  0.5612030000000  0.5312100000000 1.0
C      1  0.4687900000000  0.5612030000000  0.5202560000000 1.0
C      1  0.4797440000000  0.5612030000000  0.4687900000000 1.0
C      1  0.5312100000000  0.5612030000000  0.4797440000000 1.0
C      1  0.4569500000000  0.5149250000000  0.5178480000000 1.0
C      1  0.4821520000000  0.5149250000000  0.4569500000000 1.0
C      1  0.5430500000000  0.5149250000000  0.4821520000000 1.0
C      1  0.5178480000000  0.5149250000000  0.5430500000000 1.0
C      1  0.4569500000000  0.4835160000000  0.5178480000000 1.0
C      1  0.4821520000000  0.4835160000000  0.4569500000000 1.0
C      1  0.5430500000000  0.4835160000000  0.4821520000000 1.0
C      1  0.5178480000000  0.4835160000000  0.5430500000000 1.0
C      1  0.5118710000000  0.4117270000000  0.4772430000000 1.0
C      1  0.5227570000000  0.4117270000000  0.5118710000000 1.0
C      1  0.4881290000000  0.4117270000000  0.5227570000000 1.0
C      1  0.4772430000000  0.4117270000000  0.4881290000000 1.0
C      1  0.5118710000000  0.5867140000000  0.4772430000000 1.0
C      1  0.5227570000000  0.5867140000000  0.5118710000000 1.0
C      1  0.4881290000000  0.5867140000000  0.5227570000000 1.0
C      1  0.4772430000000  0.5867140000000  0.4881290000000 1.0
C      1  0.4870860000000  0.4637360000000  0.4815880000000 1.0
C      1  0.5184120000000  0.4637360000000  0.4870860000000 1.0
C      1  0.5129140000000  0.4637360000000  0.5184120000000 1.0
C      1  0.4815880000000  0.4637360000000  0.5129140000000 1.0
C      1  0.4870860000000  0.5347050000000  0.4815870000000 1.0
C      1  0.5184130000000  0.5347050000000  0.4870860000000 1.0
C      1  0.5129140000000  0.5347050000000  0.5184130000000 1.0
C      1  0.4815870000000  0.5347050000000  0.5129140000000 1.0
C      1  0.4911310000000  0.5346580000000  0.5542640000000 1.0
C      1  0.4457360000000  0.5346580000000  0.4911310000000 1.0
C      1  0.5088690000000  0.5346580000000  0.4457360000000 1.0
C      1  0.5542640000000  0.5346580000000  0.5088690000000 1.0
C      1  0.4911310000000  0.4637830000000  0.5542640000000 1.0
C      1  0.4457360000000  0.4637830000000  0.4911310000000 1.0
C      1  0.5088690000000  0.4637830000000  0.4457360000000 1.0
C      1  0.5542640000000  0.4637830000000  0.5088690000000 1.0
C      1  0.5432350000000  0.4992200000000  0.4354190000000 1.0
C      1  0.5645810000000  0.4992200000000  0.5432350000000 1.0
C      1  0.4567650000000  0.4992200000000  0.5645810000000 1.0
C      1  0.4354190000000  0.4992200000000  0.4567650000000 1.0
END
