TITL C-3985254-1270-927 0.00311642942997972 125000 -310.327595768379 0 0 60 (C1) n - 1
REM
REM in /home/nfs/bkarasulu/CARBON/AIRSS/Generating-Clusters/TERSOFF/Higher-Symm/Only-C60
REM
REM
REM
REM
REM
REM ./C.cell (28575a23ae977d3b5fae324c64b13b57)
REM
REM compiler GCC version 9.2.1 20190827 (Red Hat 9.2.1-1)
REM options -cpp -mtune=generic -march=x86-64 -g -O0 -fpre-include=/usr/include/finclude/math-vector-fortran.h
REM seed 623219575 -1444174339 1304061860 1813322555 -634720897 -1077908755 1098251813 258766241 -748593051 436780871 357970342 2108460856 789702585 -1305236054 -14702698 1055899571 -60104025 2047165463 1815335633 1937436304 180506109 1519579911 -1597519603 -1502084580 351089203 -119219786 -2030630394 206582587 -342683250 -705108872 -1842348565 1369869208 1772991675
REM
CELL 1.54180   50.00000   50.00000   50.00000   90.00000   90.00000   90.00000
LATT -1
SFAC C  
C      1  0.4583960000000  0.4504890000000  0.5172210000000 1.0
C      1  0.5547000000000  0.5104350000000  0.5358810000000 1.0
C      1  0.4911740000000  0.4490310000000  0.5155200000000 1.0
C      1  0.4383140000000  0.4666790000000  0.4566630000000 1.0
C      1  0.4272640000000  0.5103250000000  0.4784730000000 1.0
C      1  0.5158920000000  0.5002110000000  0.5236450000000 1.0
C      1  0.5627020000000  0.4612690000000  0.5352350000000 1.0
C      1  0.5134230000000  0.4633720000000  0.4313660000000 1.0
C      1  0.4720760000000  0.5672830000000  0.4728600000000 1.0
C      1  0.5596580000000  0.4858840000000  0.5205240000000 1.0
C      1  0.4752000000000  0.5094940000000  0.4944720000000 1.0
C      1  0.4331160000000  0.4672800000000  0.5090250000000 1.0
C      1  0.5458010000000  0.4825230000000  0.4879650000000 1.0
C      1  0.4579740000000  0.4548530000000  0.5476320000000 1.0
C      1  0.4567900000000  0.5518680000000  0.5519960000000 1.0
C      1  0.4634240000000  0.4596490000000  0.4700550000000 1.0
C      1  0.5316960000000  0.5479250000000  0.5593400000000 1.0
C      1  0.5353650000000  0.4538390000000  0.5013370000000 1.0
C      1  0.5102140000000  0.4459110000000  0.4894200000000 1.0
C      1  0.5298740000000  0.5726730000000  0.4874350000000 1.0
C      1  0.5780830000000  0.5275460000000  0.4977710000000 1.0
C      1  0.5433490000000  0.4618450000000  0.4607770000000 1.0
C      1  0.5019960000000  0.4718500000000  0.5623050000000 1.0
C      1  0.4673260000000  0.5004170000000  0.4482330000000 1.0
C      1  0.4953950000000  0.5500900000000  0.5193190000000 1.0
C      1  0.4818010000000  0.4867070000000  0.4754660000000 1.0
C      1  0.4725760000000  0.4769360000000  0.5600070000000 1.0
C      1  0.4512780000000  0.5265630000000  0.4851160000000 1.0
C      1  0.4822760000000  0.4341290000000  0.4599430000000 1.0
C      1  0.5194460000000  0.4926480000000  0.5736600000000 1.0
C      1  0.4361910000000  0.4959250000000  0.4532180000000 1.0
C      1  0.5123660000000  0.4428880000000  0.4574810000000 1.0
C      1  0.5578250000000  0.5350590000000  0.5191860000000 1.0
C      1  0.5087410000000  0.5042510000000  0.4429720000000 1.0
C      1  0.4460350000000  0.5151720000000  0.5272950000000 1.0
C      1  0.4898590000000  0.4825820000000  0.4265870000000 1.0
C      1  0.4878170000000  0.5276560000000  0.4451170000000 1.0
C      1  0.5015360000000  0.5375320000000  0.5475980000000 1.0
C      1  0.4314670000000  0.4968070000000  0.5071260000000 1.0
C      1  0.4862310000000  0.5043710000000  0.5219450000000 1.0
C      1  0.5217660000000  0.5680040000000  0.5149740000000 1.0
C      1  0.5664020000000  0.5095220000000  0.4773460000000 1.0
C      1  0.5416250000000  0.4784320000000  0.4341320000000 1.0
C      1  0.5436890000000  0.5586270000000  0.5330360000000 1.0
C      1  0.4592120000000  0.5482090000000  0.5206310000000 1.0
C      1  0.5282880000000  0.5126170000000  0.5534490000000 1.0
C      1  0.5138370000000  0.4895200000000  0.4720350000000 1.0
C      1  0.5377660000000  0.4452710000000  0.5317150000000 1.0
C      1  0.4682340000000  0.5043000000000  0.5473000000000 1.0
C      1  0.4509330000000  0.5562340000000  0.4908340000000 1.0
C      1  0.4941850000000  0.5476080000000  0.4659700000000 1.0
C      1  0.5098780000000  0.4266030000000  0.5315650000000 1.0
C      1  0.5379800000000  0.5093510000000  0.4372990000000 1.0
C      1  0.4624090000000  0.4315980000000  0.4904150000000 1.0
C      1  0.5124290000000  0.4684080000000  0.5336690000000 1.0
C      1  0.5335990000000  0.5204280000000  0.5010100000000 1.0
C      1  0.4759790000000  0.5305860000000  0.5622150000000 1.0
C      1  0.5406870000000  0.5254890000000  0.4656490000000 1.0
C      1  0.4926510000000  0.5338810000000  0.4928500000000 1.0
C      1  0.5238100000000  0.5533460000000  0.4667190000000 1.0
END
