TITL C-3985247-764-147 2.06438565127067e-09 125000 -253.481701349677 0 0 60 (Th) n - 1
REM
REM in /home/nfs/bkarasulu/CARBON/AIRSS/Generating-Clusters/TERSOFF/Higher-Symm/Only-C60
REM
REM
REM
REM
REM
REM ./C.cell (28575a23ae977d3b5fae324c64b13b57)
REM
REM compiler GCC version 9.2.1 20190827 (Red Hat 9.2.1-1)
REM options -cpp -mtune=generic -march=x86-64 -g -O0 -fpre-include=/usr/include/finclude/math-vector-fortran.h
REM seed 182599840 -1060068541 -1740940767 160535614 -651016467 -825405760 -2779089 453877133 -1108793347 -243232297 -2116847498 1882278072 559656582 2054264335 -2141107012 469086656 -2041475403 655090835 -1498967871 -1932602575 1443882340 821115545 -616811439 -498727344 -2098935479 2042458462 -63265294 493979218 -1976403208 -642332159 -163527017 1787003046 135424065
REM
CELL 1.54180   50.00000   50.00000   50.00000   90.00000   90.00000   90.00000
LATT -1
SFAC C  
C      1  0.4528480000000  0.5274700000000  0.5180270000000 1.0
C      1  0.5180270000000  0.4528480000000  0.5274700000000 1.0
C      1  0.5274700000000  0.5180270000000  0.4528480000000 1.0
C      1  0.5471520000000  0.5274700000000  0.4819730000000 1.0
C      1  0.4528480000000  0.4725300000000  0.4819730000000 1.0
C      1  0.5471520000000  0.4725300000000  0.5180270000000 1.0
C      1  0.4819730000000  0.4528480000000  0.4725300000000 1.0
C      1  0.5180270000000  0.5471520000000  0.4725300000000 1.0
C      1  0.4819730000000  0.5471520000000  0.5274700000000 1.0
C      1  0.4725300000000  0.5180270000000  0.5471520000000 1.0
C      1  0.5274700000000  0.4819730000000  0.5471520000000 1.0
C      1  0.4725300000000  0.4819730000000  0.4528480000000 1.0
C      1  0.4528480000000  0.4725300000000  0.5180270000000 1.0
C      1  0.5180270000000  0.5471520000000  0.5274700000000 1.0
C      1  0.5274700000000  0.4819730000000  0.4528480000000 1.0
C      1  0.5471520000000  0.4725300000000  0.4819730000000 1.0
C      1  0.4528480000000  0.5274700000000  0.4819730000000 1.0
C      1  0.5471520000000  0.5274700000000  0.5180270000000 1.0
C      1  0.4819730000000  0.5471520000000  0.4725300000000 1.0
C      1  0.5180270000000  0.4528480000000  0.4725300000000 1.0
C      1  0.4819730000000  0.4528480000000  0.5274700000000 1.0
C      1  0.4725300000000  0.4819730000000  0.5471520000000 1.0
C      1  0.5274700000000  0.5180270000000  0.5471520000000 1.0
C      1  0.4725300000000  0.5180270000000  0.4528480000000 1.0
C      1  0.4299160000000  0.5498900000000  0.4847550000000 1.0
C      1  0.4847550000000  0.4299160000000  0.5498900000000 1.0
C      1  0.5498900000000  0.4847550000000  0.4299160000000 1.0
C      1  0.5700840000000  0.5498900000000  0.5152450000000 1.0
C      1  0.4299160000000  0.4501100000000  0.5152450000000 1.0
C      1  0.5700840000000  0.4501100000000  0.4847550000000 1.0
C      1  0.5152450000000  0.4299160000000  0.4501100000000 1.0
C      1  0.4847550000000  0.5700840000000  0.4501100000000 1.0
C      1  0.5152450000000  0.5700840000000  0.5498900000000 1.0
C      1  0.4501100000000  0.4847550000000  0.5700840000000 1.0
C      1  0.5498900000000  0.5152450000000  0.5700840000000 1.0
C      1  0.4501100000000  0.5152450000000  0.4299160000000 1.0
C      1  0.4299160000000  0.4501100000000  0.4847550000000 1.0
C      1  0.4847550000000  0.5700840000000  0.5498900000000 1.0
C      1  0.5498900000000  0.5152450000000  0.4299160000000 1.0
C      1  0.5700840000000  0.4501100000000  0.5152450000000 1.0
C      1  0.4299160000000  0.5498900000000  0.5152450000000 1.0
C      1  0.5700840000000  0.5498900000000  0.4847550000000 1.0
C      1  0.5152450000000  0.5700840000000  0.4501100000000 1.0
C      1  0.4847550000000  0.4299160000000  0.4501100000000 1.0
C      1  0.5152450000000  0.4299160000000  0.5498900000000 1.0
C      1  0.4501100000000  0.5152450000000  0.5700840000000 1.0
C      1  0.5498900000000  0.4847550000000  0.5700840000000 1.0
C      1  0.4501100000000  0.4847550000000  0.4299160000000 1.0
C      1  0.5000000000000  0.4756820000000  0.4399230000000 1.0
C      1  0.4399230000000  0.5000000000000  0.4756820000000 1.0
C      1  0.4756820000000  0.4399230000000  0.5000000000000 1.0
C      1  0.5000000000000  0.4756820000000  0.5600770000000 1.0
C      1  0.5000000000000  0.5243180000000  0.5600770000000 1.0
C      1  0.5000000000000  0.5243180000000  0.4399230000000 1.0
C      1  0.5600770000000  0.5000000000000  0.5243180000000 1.0
C      1  0.4399230000000  0.5000000000000  0.5243180000000 1.0
C      1  0.5600770000000  0.5000000000000  0.4756820000000 1.0
C      1  0.5243180000000  0.4399230000000  0.5000000000000 1.0
C      1  0.4756820000000  0.5600770000000  0.5000000000000 1.0
C      1  0.5243180000000  0.5600770000000  0.5000000000000 1.0
END
