TITL C-3985254-1270-508 -2.55030071561529e-07 125000 -270.057009017354 0 0 60 (C3h) n - 1
REM
REM in /home/nfs/bkarasulu/CARBON/AIRSS/Generating-Clusters/TERSOFF/Higher-Symm/Only-C60
REM
REM
REM
REM
REM
REM ./C.cell (28575a23ae977d3b5fae324c64b13b57)
REM
REM compiler GCC version 9.2.1 20190827 (Red Hat 9.2.1-1)
REM options -cpp -mtune=generic -march=x86-64 -g -O0 -fpre-include=/usr/include/finclude/math-vector-fortran.h
REM seed 1456053158 -418550239 -260764019 -76983117 1208177105 503303603 -650109893 -743080576 -852992307 1581421857 1690242391 -1987403127 1940810858 -1401754757 -339227507 1463449293 -54326065 -418765077 -1216019671 -1761206479 -832638070 -1647976637 -2122221242 1302024916 2026302507 349271194 -1260833407 -1670477441 831734917 -900900390 1987560110 -1582300842 1895453593
REM
CELL 1.54180   50.00000   50.00000   50.00000   90.00000   90.00000   90.00000
LATT -1
SFAC C  
C      1  0.5167120000000  0.4630930000000  0.4391700000000 1.0
C      1  0.5167120000000  0.4657730000000  0.5623770000000 1.0
C      1  0.5167120000000  0.5711340000000  0.4984530000000 1.0
C      1  0.4832880000000  0.4630930000000  0.4391700000000 1.0
C      1  0.4832880000000  0.4657730000000  0.5623770000000 1.0
C      1  0.4832880000000  0.5711340000000  0.4984530000000 1.0
C      1  0.4370170000000  0.5285120000000  0.4621430000000 1.0
C      1  0.4370170000000  0.4529590000000  0.4942360000000 1.0
C      1  0.4370170000000  0.5185290000000  0.5436210000000 1.0
C      1  0.5629830000000  0.5285120000000  0.4621430000000 1.0
C      1  0.5629830000000  0.4529590000000  0.4942360000000 1.0
C      1  0.5629830000000  0.5185290000000  0.5436210000000 1.0
C      1  0.5176060000000  0.5136340000000  0.4382830000000 1.0
C      1  0.5176060000000  0.4397340000000  0.5190510000000 1.0
C      1  0.5176060000000  0.5466320000000  0.5426660000000 1.0
C      1  0.4823940000000  0.5136340000000  0.4382830000000 1.0
C      1  0.4823940000000  0.4397340000000  0.5190510000000 1.0
C      1  0.4823940000000  0.5466320000000  0.5426660000000 1.0
C      1  0.5813120000000  0.5032600000000  0.4789690000000 1.0
C      1  0.5813120000000  0.4801570000000  0.5076920000000 1.0
C      1  0.5813120000000  0.5165830000000  0.5133390000000 1.0
C      1  0.4186880000000  0.5032600000000  0.4789690000000 1.0
C      1  0.4186880000000  0.4801570000000  0.5076920000000 1.0
C      1  0.4186880000000  0.5165830000000  0.5133390000000 1.0
C      1  0.4634330000000  0.4516200000000  0.5427320000000 1.0
C      1  0.4634330000000  0.5611970000000  0.5205320000000 1.0
C      1  0.4634330000000  0.4871830000000  0.4367360000000 1.0
C      1  0.5365670000000  0.4516200000000  0.5427320000000 1.0
C      1  0.5365670000000  0.5611970000000  0.5205320000000 1.0
C      1  0.5365670000000  0.4871830000000  0.4367360000000 1.0
C      1  0.5318790000000  0.5223680000000  0.5566000000000 1.0
C      1  0.5318790000000  0.5378330000000  0.4523280000000 1.0
C      1  0.5318790000000  0.4397980000000  0.4910710000000 1.0
C      1  0.4681210000000  0.5223680000000  0.5566000000000 1.0
C      1  0.4681210000000  0.5378330000000  0.4523280000000 1.0
C      1  0.4681210000000  0.4397980000000  0.4910710000000 1.0
C      1  0.5153020000000  0.5019540000000  0.4696700000000 1.0
C      1  0.5153020000000  0.4727570000000  0.5134720000000 1.0
C      1  0.5153020000000  0.5252890000000  0.5168570000000 1.0
C      1  0.4846980000000  0.5019540000000  0.4696700000000 1.0
C      1  0.4846980000000  0.4727570000000  0.5134720000000 1.0
C      1  0.4846980000000  0.5252890000000  0.5168570000000 1.0
C      1  0.5423160000000  0.4802490000000  0.4925970000000 1.0
C      1  0.5423160000000  0.5034640000000  0.5208070000000 1.0
C      1  0.5423160000000  0.5162870000000  0.4865960000000 1.0
C      1  0.4576840000000  0.4802490000000  0.4925970000000 1.0
C      1  0.4576840000000  0.5034640000000  0.5208070000000 1.0
C      1  0.4576840000000  0.5162870000000  0.4865960000000 1.0
C      1  0.4432890000000  0.4743090000000  0.5315800000000 1.0
C      1  0.4432890000000  0.5401950000000  0.5064590000000 1.0
C      1  0.4432890000000  0.4854960000000  0.4619600000000 1.0
C      1  0.5567110000000  0.4743090000000  0.5315800000000 1.0
C      1  0.5567110000000  0.5401950000000  0.5064590000000 1.0
C      1  0.5567110000000  0.4854960000000  0.4619600000000 1.0
C      1  0.5168340000000  0.5414300000000  0.4839100000000 1.0
C      1  0.5168340000000  0.4653510000000  0.4721660000000 1.0
C      1  0.5168340000000  0.4932190000000  0.5439240000000 1.0
C      1  0.4831660000000  0.5414300000000  0.4839100000000 1.0
C      1  0.4831660000000  0.4653510000000  0.4721660000000 1.0
C      1  0.4831660000000  0.4932190000000  0.5439240000000 1.0
END
