TITL C-3985244-725-130 0.0442197535056078 125000 -283.481936838198 0 0 60 (D2) n - 1
REM
REM in /home/nfs/bkarasulu/CARBON/AIRSS/Generating-Clusters/TERSOFF/Higher-Symm/Only-C60
REM
REM
REM
REM
REM
REM ./C.cell (28575a23ae977d3b5fae324c64b13b57)
REM
REM compiler GCC version 9.2.1 20190827 (Red Hat 9.2.1-1)
REM options -cpp -mtune=generic -march=x86-64 -g -O0 -fpre-include=/usr/include/finclude/math-vector-fortran.h
REM seed -731511844 324413813 -1196307743 -2024619958 553951825 -2113502637 -1073518522 1599673072 1823746624 1490595584 714638772 -1683732458 -1838900992 1401339228 608121088 160323500 -79023115 -675790449 1789351598 2032952318 -479040725 -178681620 1224361272 -1246443882 -2101298863 -976238692 991662133 715791878 -1285569659 1309110081 -1421581011 621764217 -2054974288
REM
CELL 1.54180   50.00000   50.00000   50.00000   90.00000   90.00000   90.00000
LATT -1
SFAC C  
C      1  0.5253560000000  0.4239650000000  0.5060170000000 1.0
C      1  0.4746440000000  0.5760350000000  0.5060170000000 1.0
C      1  0.4746440000000  0.4239650000000  0.4939830000000 1.0
C      1  0.5253560000000  0.5760350000000  0.4939830000000 1.0
C      1  0.4982720000000  0.4339550000000  0.5519610000000 1.0
C      1  0.5017280000000  0.5660450000000  0.5519610000000 1.0
C      1  0.5017280000000  0.4339550000000  0.4480390000000 1.0
C      1  0.4982720000000  0.5660450000000  0.4480390000000 1.0
C      1  0.5294820000000  0.5159580000000  0.5428590000000 1.0
C      1  0.4705180000000  0.4840420000000  0.5428590000000 1.0
C      1  0.4705180000000  0.5159580000000  0.4571410000000 1.0
C      1  0.5294820000000  0.4840420000000  0.4571410000000 1.0
C      1  0.4728780000000  0.5450780000000  0.4458530000000 1.0
C      1  0.5271220000000  0.4549220000000  0.4458530000000 1.0
C      1  0.5271220000000  0.5450780000000  0.5541470000000 1.0
C      1  0.4728780000000  0.4549220000000  0.5541470000000 1.0
C      1  0.4493710000000  0.5689980000000  0.4870820000000 1.0
C      1  0.5506290000000  0.4310020000000  0.4870820000000 1.0
C      1  0.5506290000000  0.5689980000000  0.5129180000000 1.0
C      1  0.4493710000000  0.4310020000000  0.5129180000000 1.0
C      1  0.5155560000000  0.5317850000000  0.4647220000000 1.0
C      1  0.4844440000000  0.4682150000000  0.4647220000000 1.0
C      1  0.4844440000000  0.5317850000000  0.5352780000000 1.0
C      1  0.5155560000000  0.4682150000000  0.5352780000000 1.0
C      1  0.4936840000000  0.4343370000000  0.5199060000000 1.0
C      1  0.5063160000000  0.5656630000000  0.5199060000000 1.0
C      1  0.5063160000000  0.4343370000000  0.4800940000000 1.0
C      1  0.4936840000000  0.5656630000000  0.4800940000000 1.0
C      1  0.4395990000000  0.4763680000000  0.5070070000000 1.0
C      1  0.5604010000000  0.5236320000000  0.5070070000000 1.0
C      1  0.5604010000000  0.4763680000000  0.4929930000000 1.0
C      1  0.4395990000000  0.5236320000000  0.4929930000000 1.0
C      1  0.4524980000000  0.5640260000000  0.4579420000000 1.0
C      1  0.5475020000000  0.4359740000000  0.4579420000000 1.0
C      1  0.5475020000000  0.5640260000000  0.5420580000000 1.0
C      1  0.4524980000000  0.4359740000000  0.5420580000000 1.0
C      1  0.5322660000000  0.4867120000000  0.4889350000000 1.0
C      1  0.4677340000000  0.5132880000000  0.4889350000000 1.0
C      1  0.4677340000000  0.4867120000000  0.5110650000000 1.0
C      1  0.5322660000000  0.5132880000000  0.5110650000000 1.0
C      1  0.5605480000000  0.4461110000000  0.5310880000000 1.0
C      1  0.4394520000000  0.5538890000000  0.5310880000000 1.0
C      1  0.4394520000000  0.4461110000000  0.4689120000000 1.0
C      1  0.5605480000000  0.5538890000000  0.4689120000000 1.0
C      1  0.5308970000000  0.4403560000000  0.5380410000000 1.0
C      1  0.4691030000000  0.5596440000000  0.5380410000000 1.0
C      1  0.4691030000000  0.4403560000000  0.4619590000000 1.0
C      1  0.5308970000000  0.5596440000000  0.4619590000000 1.0
C      1  0.5666230000000  0.5498620000000  0.4973070000000 1.0
C      1  0.4333770000000  0.4501380000000  0.4973080000000 1.0
C      1  0.4333770000000  0.5498620000000  0.5026920000000 1.0
C      1  0.5666230000000  0.4501380000000  0.5026920000000 1.0
C      1  0.5063860000000  0.5335910000000  0.5130350000000 1.0
C      1  0.4936130000000  0.4664090000000  0.5130350000000 1.0
C      1  0.4936130000000  0.5335910000000  0.4869640000000 1.0
C      1  0.5063860000000  0.4664090000000  0.4869650000000 1.0
C      1  0.4809730000000  0.4911990000000  0.4467090000000 1.0
C      1  0.5190270000000  0.5088010000000  0.4467090000000 1.0
C      1  0.5190270000000  0.4911990000000  0.5532910000000 1.0
C      1  0.4809730000000  0.5088010000000  0.5532910000000 1.0
END
