TITL C-3985254-1270-1531 -4.18799136746754e-09 125000 -317.138214334998 0 0 60 (Td) n - 1
REM
REM in /home/nfs/bkarasulu/CARBON/AIRSS/Generating-Clusters/TERSOFF/Higher-Symm/Only-C60
REM
REM
REM
REM
REM
REM ./C.cell (28575a23ae977d3b5fae324c64b13b57)
REM
REM compiler GCC version 9.2.1 20190827 (Red Hat 9.2.1-1)
REM options -cpp -mtune=generic -march=x86-64 -g -O0 -fpre-include=/usr/include/finclude/math-vector-fortran.h
REM seed -519211753 -1817552187 -2031553357 307246953 -898036914 276949967 245964022 -1523143402 614674501 1647161940 -1363618781 2107125544 -1058126588 234619773 1192080501 1292123586 -1490860938 1457196315 -1520692226 359695007 -1772586472 1551297874 -1782521140 1467650396 1141872888 1177423965 -358176586 136392473 -1802795841 -2104039059 -472021717 2030361597 -619256437
REM
CELL 1.54180   50.00000   50.00000   50.00000   90.00000   90.00000   90.00000
LATT -1
SFAC C  
C      1  0.4931070000000  0.5297170000000  0.4475850000000 1.0
C      1  0.4475850000000  0.4931070000000  0.5297170000000 1.0
C      1  0.5297170000000  0.4475850000000  0.4931070000000 1.0
C      1  0.4931070000000  0.4702830000000  0.5524150000000 1.0
C      1  0.5068930000000  0.4702830000000  0.4475850000000 1.0
C      1  0.5068930000000  0.5297170000000  0.5524150000000 1.0
C      1  0.4475850000000  0.5068930000000  0.4702830000000 1.0
C      1  0.5524150000000  0.5068930000000  0.5297170000000 1.0
C      1  0.5524150000000  0.4931070000000  0.4702830000000 1.0
C      1  0.5297170000000  0.5524150000000  0.5068930000000 1.0
C      1  0.4702830000000  0.5524150000000  0.4931070000000 1.0
C      1  0.4702830000000  0.4475850000000  0.5068930000000 1.0
C      1  0.4931070000000  0.4475850000000  0.5297170000000 1.0
C      1  0.4475850000000  0.5297170000000  0.4931070000000 1.0
C      1  0.5297170000000  0.4931070000000  0.4475850000000 1.0
C      1  0.4931070000000  0.5524150000000  0.4702830000000 1.0
C      1  0.5068930000000  0.4475850000000  0.4702830000000 1.0
C      1  0.5068930000000  0.5524150000000  0.5297170000000 1.0
C      1  0.4475850000000  0.4702830000000  0.5068930000000 1.0
C      1  0.5524150000000  0.5297170000000  0.5068930000000 1.0
C      1  0.5524150000000  0.4702830000000  0.4931070000000 1.0
C      1  0.5297170000000  0.5068930000000  0.5524150000000 1.0
C      1  0.4702830000000  0.4931070000000  0.5524150000000 1.0
C      1  0.4702830000000  0.5068930000000  0.4475850000000 1.0
C      1  0.5714800000000  0.5489740000000  0.5265140000000 1.0
C      1  0.5265140000000  0.5714800000000  0.5489740000000 1.0
C      1  0.5489740000000  0.5265140000000  0.5714800000000 1.0
C      1  0.5714800000000  0.4510260000000  0.4734860000000 1.0
C      1  0.4285200000000  0.4510260000000  0.5265140000000 1.0
C      1  0.4285200000000  0.5489740000000  0.4734860000000 1.0
C      1  0.5265140000000  0.4285200000000  0.4510260000000 1.0
C      1  0.4734860000000  0.4285200000000  0.5489740000000 1.0
C      1  0.4734860000000  0.5714800000000  0.4510260000000 1.0
C      1  0.5489740000000  0.4734860000000  0.4285200000000 1.0
C      1  0.4510260000000  0.4734860000000  0.5714800000000 1.0
C      1  0.4510260000000  0.5265140000000  0.4285200000000 1.0
C      1  0.5714800000000  0.5265140000000  0.5489740000000 1.0
C      1  0.5265140000000  0.5489740000000  0.5714800000000 1.0
C      1  0.5489740000000  0.5714800000000  0.5265140000000 1.0
C      1  0.5714800000000  0.4734860000000  0.4510260000000 1.0
C      1  0.4285200000000  0.5265140000000  0.4510260000000 1.0
C      1  0.4285200000000  0.4734860000000  0.5489740000000 1.0
C      1  0.5265140000000  0.4510260000000  0.4285200000000 1.0
C      1  0.4734860000000  0.5489740000000  0.4285200000000 1.0
C      1  0.4734860000000  0.4510260000000  0.5714800000000 1.0
C      1  0.5489740000000  0.4285200000000  0.4734860000000 1.0
C      1  0.4510260000000  0.5714800000000  0.4734860000000 1.0
C      1  0.4510260000000  0.4285200000000  0.5265140000000 1.0
C      1  0.4806310000000  0.4394480000000  0.4806310000000 1.0
C      1  0.4394480000000  0.4806310000000  0.4806310000000 1.0
C      1  0.4806310000000  0.5605520000000  0.5193690000000 1.0
C      1  0.5193690000000  0.5605520000000  0.4806310000000 1.0
C      1  0.5193690000000  0.4394480000000  0.5193690000000 1.0
C      1  0.4806310000000  0.5193690000000  0.5605520000000 1.0
C      1  0.5193690000000  0.5193690000000  0.4394480000000 1.0
C      1  0.5193690000000  0.4806310000000  0.5605520000000 1.0
C      1  0.4394480000000  0.5193690000000  0.5193690000000 1.0
C      1  0.5605520000000  0.5193690000000  0.4806310000000 1.0
C      1  0.5605520000000  0.4806310000000  0.5193690000000 1.0
C      1  0.4806310000000  0.4806310000000  0.4394480000000 1.0
END
