TITL C-3985253-1688-175 -0.00563967021954255 125000 -323.994619081363 0 0 60 (C2h) n - 1
REM
REM in /home/nfs/bkarasulu/CARBON/AIRSS/Generating-Clusters/TERSOFF/Higher-Symm/Only-C60
REM
REM
REM
REM
REM
REM ./C.cell (28575a23ae977d3b5fae324c64b13b57)
REM
REM compiler GCC version 9.2.1 20190827 (Red Hat 9.2.1-1)
REM options -cpp -mtune=generic -march=x86-64 -g -O0 -fpre-include=/usr/include/finclude/math-vector-fortran.h
REM seed -902697725 2013150252 -991797926 605706677 -2002946069 -101005191 999580782 -567895026 -596347649 549585584 -1612090220 579604527 1596542913 57296022 709435292 -1322282298 -794790609 -837343141 2056294249 -1518840549 1466383743 -2007093879 1217432535 -410887741 1913062174 187244770 -1940530969 -1022640764 812272694 1591336759 1254565379 771207586 1141410577
REM
CELL 1.54180   50.00000   50.00000   50.00000   90.00000   90.00000   90.00000
LATT -1
SFAC C  
C      1  0.4851390000000  0.5548550000000  0.5238740000000 1.0
C      1  0.4851390000000  0.4451450000000  0.4761260000000 1.0
C      1  0.5148610000000  0.5548550000000  0.5238740000000 1.0
C      1  0.5148610000000  0.4451450000000  0.4761260000000 1.0
C      1  0.4836310000000  0.4268710000000  0.5287880000000 1.0
C      1  0.4836310000000  0.5731290000000  0.4712120000000 1.0
C      1  0.5163690000000  0.4268710000000  0.5287880000000 1.0
C      1  0.5163690000000  0.5731290000000  0.4712120000000 1.0
C      1  0.4309560000000  0.5065180000000  0.5171580000000 1.0
C      1  0.4309560000000  0.4934820000000  0.4828420000000 1.0
C      1  0.5690440000000  0.5065180000000  0.5171580000000 1.0
C      1  0.5690440000000  0.4934820000000  0.4828420000000 1.0
C      1  0.4733770000000  0.5527130000000  0.4961080000000 1.0
C      1  0.4733770000000  0.4472870000000  0.5038920000000 1.0
C      1  0.5266230000000  0.5527130000000  0.4961080000000 1.0
C      1  0.5266230000000  0.4472870000000  0.5038920000000 1.0
C      1  0.4410380000000  0.5319090000000  0.5406600000000 1.0
C      1  0.4410380000000  0.4680910000000  0.4593400000000 1.0
C      1  0.5589620000000  0.5319090000000  0.5406600000000 1.0
C      1  0.5589620000000  0.4680910000000  0.4593400000000 1.0
C      1  0.4635750000000  0.5636590000000  0.4493570000000 1.0
C      1  0.4635750000000  0.4363410000000  0.5506430000000 1.0
C      1  0.5364250000000  0.5636590000000  0.4493570000000 1.0
C      1  0.5364250000000  0.4363410000000  0.5506430000000 1.0
C      1  0.5273880000000  0.4921810000000  0.5364680000000 1.0
C      1  0.5273880000000  0.5078190000000  0.4635320000000 1.0
C      1  0.4726120000000  0.4921810000000  0.5364680000000 1.0
C      1  0.4726120000000  0.5078190000000  0.4635320000000 1.0
C      1  0.4704650000000  0.5386430000000  0.5449720000000 1.0
C      1  0.4704650000000  0.4613570000000  0.4550280000000 1.0
C      1  0.5295350000000  0.5386430000000  0.5449720000000 1.0
C      1  0.5295350000000  0.4613570000000  0.4550280000000 1.0
C      1  0.4399290000000  0.4549310000000  0.5446660000000 1.0
C      1  0.4399290000000  0.5450690000000  0.4553340000000 1.0
C      1  0.5600710000000  0.4549310000000  0.5446660000000 1.0
C      1  0.5600710000000  0.5450690000000  0.4553340000000 1.0
C      1  0.5556320000000  0.4867130000000  0.5403610000000 1.0
C      1  0.5556320000000  0.5132870000000  0.4596390000000 1.0
C      1  0.4443680000000  0.4867130000000  0.5403610000000 1.0
C      1  0.4443680000000  0.5132870000000  0.4596390000000 1.0
C      1  0.5181400000000  0.5108870000000  0.5115810000000 1.0
C      1  0.5181400000000  0.4891130000000  0.4884190000000 1.0
C      1  0.4818600000000  0.5108870000000  0.5115810000000 1.0
C      1  0.4818600000000  0.4891130000000  0.4884190000000 1.0
C      1  0.4522390000000  0.4718140000000  0.4995750000000 1.0
C      1  0.4522390000000  0.5281860000000  0.5004250000000 1.0
C      1  0.5477610000000  0.4718140000000  0.4995750000000 1.0
C      1  0.5477610000000  0.5281860000000  0.5004250000000 1.0
C      1  0.5136720000000  0.5314400000000  0.4747790000000 1.0
C      1  0.5136720000000  0.4685600000000  0.5252210000000 1.0
C      1  0.4863280000000  0.5314400000000  0.4747790000000 1.0
C      1  0.4863280000000  0.4685600000000  0.5252210000000 1.0
C      1  0.5145640000000  0.5142500000000  0.5536610000000 1.0
C      1  0.5145640000000  0.4857500000000  0.4463390000000 1.0
C      1  0.4854360000000  0.5142500000000  0.5536610000000 1.0
C      1  0.4854360000000  0.4857500000000  0.4463390000000 1.0
C      1  0.5674060000000  0.4546230000000  0.5159590000000 1.0
C      1  0.5674060000000  0.5453770000000  0.4840410000000 1.0
C      1  0.4325940000000  0.4546230000000  0.5159590000000 1.0
C      1  0.4325940000000  0.5453770000000  0.4840410000000 1.0
END
