TITL C-3985245-9316-793 0.000611819351965821 125000 -324.458083809935 0 0 60 (C4h) n - 1
REM
REM in /home/nfs/bkarasulu/CARBON/AIRSS/Generating-Clusters/TERSOFF/Higher-Symm/Only-C60
REM
REM
REM
REM
REM
REM ./C.cell (28575a23ae977d3b5fae324c64b13b57)
REM
REM compiler GCC version 9.2.1 20190827 (Red Hat 9.2.1-1)
REM options -cpp -mtune=generic -march=x86-64 -g -O0 -fpre-include=/usr/include/finclude/math-vector-fortran.h
REM seed -1577851444 1535666204 -1518954013 -1342277575 600392151 123590553 1325933472 1879089174 1500257065 375202703 247571787 701135265 -1726536069 91222834 -89910823 -1238217951 -572432098 2090141506 28867100 -2010585496 1374518773 -295718101 -1399255048 -193726277 1555220182 1353571257 -1155926066 1291735029 1613254123 1007723499 -225158789 -961735519 899594367
REM
CELL 1.54180   50.00000   50.00000   50.00000   90.00000   90.00000   90.00000
LATT -1
SFAC C  
C      1  0.5275010000000  0.5646230000000  0.5167680000000 1.0
C      1  0.5275020000000  0.4832330000000  0.5646230000000 1.0
C      1  0.5275020000000  0.4353770000000  0.4832320000000 1.0
C      1  0.5275010000000  0.5167680000000  0.4353780000000 1.0
C      1  0.4703060000000  0.5646240000000  0.5167610000000 1.0
C      1  0.4703060000000  0.4832390000000  0.5646240000000 1.0
C      1  0.4703060000000  0.4353760000000  0.4832390000000 1.0
C      1  0.4703060000000  0.5167610000000  0.4353760000000 1.0
C      1  0.5410590000000  0.5096800000000  0.5623110000000 1.0
C      1  0.5410530000000  0.4376890000000  0.5096780000000 1.0
C      1  0.5410600000000  0.4903190000000  0.4376880000000 1.0
C      1  0.5410550000000  0.5623090000000  0.4903220000000 1.0
C      1  0.4567670000000  0.5096860000000  0.5622900000000 1.0
C      1  0.4567680000000  0.4377100000000  0.5096860000000 1.0
C      1  0.4567680000000  0.4903140000000  0.4377100000000 1.0
C      1  0.4567680000000  0.5622900000000  0.4903140000000 1.0
C      1  0.4678650000000  0.5167710000000  0.5158710000000 1.0
C      1  0.4678650000000  0.4841290000000  0.5167710000000 1.0
C      1  0.4678650000000  0.4832290000000  0.4841290000000 1.0
C      1  0.4678650000000  0.5158710000000  0.4832290000000 1.0
C      1  0.5299720000000  0.5167670000000  0.5158710000000 1.0
C      1  0.5299610000000  0.4841170000000  0.5167590000000 1.0
C      1  0.5299710000000  0.4832320000000  0.4841290000000 1.0
C      1  0.5299650000000  0.5158790000000  0.4832360000000 1.0
C      1  0.5148560000000  0.4693640000000  0.5406280000000 1.0
C      1  0.5148570000000  0.4593720000000  0.4693630000000 1.0
C      1  0.5148570000000  0.5306360000000  0.4593720000000 1.0
C      1  0.5148570000000  0.5406280000000  0.5306360000000 1.0
C      1  0.4829640000000  0.4693660000000  0.5406350000000 1.0
C      1  0.4829640000000  0.4593650000000  0.4693660000000 1.0
C      1  0.4829640000000  0.5306340000000  0.4593650000000 1.0
C      1  0.4829640000000  0.5406350000000  0.5306340000000 1.0
C      1  0.5228670000000  0.5608700000000  0.4660840000000 1.0
C      1  0.5228680000000  0.5339170000000  0.5608700000000 1.0
C      1  0.5228670000000  0.4391300000000  0.5339160000000 1.0
C      1  0.5228670000000  0.4660840000000  0.4391300000000 1.0
C      1  0.4749510000000  0.5608570000000  0.4660800000000 1.0
C      1  0.4749500000000  0.5339200000000  0.5608570000000 1.0
C      1  0.4749500000000  0.4391430000000  0.5339200000000 1.0
C      1  0.4749500000000  0.4660800000000  0.4391430000000 1.0
C      1  0.4171450000000  0.5236610000000  0.5312410000000 1.0
C      1  0.4171450000000  0.4687590000000  0.5236610000000 1.0
C      1  0.4171450000000  0.4763390000000  0.4687590000000 1.0
C      1  0.4171450000000  0.5312410000000  0.4763390000000 1.0
C      1  0.5806830000000  0.5236320000000  0.5312410000000 1.0
C      1  0.5806840000000  0.4687600000000  0.5236290000000 1.0
C      1  0.5806860000000  0.4763700000000  0.4687520000000 1.0
C      1  0.5806870000000  0.5312450000000  0.4763720000000 1.0
C      1  0.4436610000000  0.4870920000000  0.4645350000000 1.0
C      1  0.4436610000000  0.5354650000000  0.4870920000000 1.0
C      1  0.4436610000000  0.5129080000000  0.5354650000000 1.0
C      1  0.4436610000000  0.4645350000000  0.5129080000000 1.0
C      1  0.5541510000000  0.4870970000000  0.4645230000000 1.0
C      1  0.5541580000000  0.5354790000000  0.4870910000000 1.0
C      1  0.5541580000000  0.5129060000000  0.5354940000000 1.0
C      1  0.5541560000000  0.4645150000000  0.5129010000000 1.0
C      1  0.4989020000000  0.5774550000000  0.4648280000000 1.0
C      1  0.4989020000000  0.5351720000000  0.5774560000000 1.0
C      1  0.4989020000000  0.4225450000000  0.5351720000000 1.0
C      1  0.4989020000000  0.4648280000000  0.4225450000000 1.0
END
