TITL C-3985252-168-111 0.00110237688311489 125000 -321.019752591449 0 0 60 (C1) n - 1
REM
REM in /home/nfs/bkarasulu/CARBON/AIRSS/Generating-Clusters/TERSOFF/Higher-Symm/Only-C60
REM
REM
REM
REM
REM
REM ./C.cell (28575a23ae977d3b5fae324c64b13b57)
REM
REM compiler GCC version 9.2.1 20190827 (Red Hat 9.2.1-1)
REM options -cpp -mtune=generic -march=x86-64 -g -O0 -fpre-include=/usr/include/finclude/math-vector-fortran.h
REM seed 2092604594 1858749533 -1801166685 746169725 1803496132 -1699407193 -1080728678 1394003530 -1882749272 -1612959160 405488339 -660071695 -1314792202 -281632778 -242296180 2008289269 850392178 -40856322 804002047 -1054253713 -1297239879 -1943117150 -180209244 -1153244527 -1148681720 -63479688 -312037210 -1878938098 -1225440335 1119827224 -1386086173 -1896988274 843689749
REM
CELL 1.54180   50.00000   50.00000   50.00000   90.00000   90.00000   90.00000
LATT -1
SFAC C  
C      1  0.4593380000000  0.5343780000000  0.4907270000000 1.0
C      1  0.5390190000000  0.4632080000000  0.4620690000000 1.0
C      1  0.5526590000000  0.4550070000000  0.5112900000000 1.0
C      1  0.5024960000000  0.5274520000000  0.5226470000000 1.0
C      1  0.4583690000000  0.5077570000000  0.5086810000000 1.0
C      1  0.4575730000000  0.4921450000000  0.4434900000000 1.0
C      1  0.4791690000000  0.4892460000000  0.4927350000000 1.0
C      1  0.4284410000000  0.5080380000000  0.5255290000000 1.0
C      1  0.4928590000000  0.5284980000000  0.5710600000000 1.0
C      1  0.5579540000000  0.5185200000000  0.4971840000000 1.0
C      1  0.4975670000000  0.5536520000000  0.5551580000000 1.0
C      1  0.5682480000000  0.5245540000000  0.4682100000000 1.0
C      1  0.5806010000000  0.4948660000000  0.4708930000000 1.0
C      1  0.4658230000000  0.4544100000000  0.5329280000000 1.0
C      1  0.5631290000000  0.4817320000000  0.5523530000000 1.0
C      1  0.4930550000000  0.4736140000000  0.5361220000000 1.0
C      1  0.4462860000000  0.5273650000000  0.4631770000000 1.0
C      1  0.4937450000000  0.4645960000000  0.4617900000000 1.0
C      1  0.4751030000000  0.4280800000000  0.4909280000000 1.0
C      1  0.5146210000000  0.5028280000000  0.5763390000000 1.0
C      1  0.4200940000000  0.4819240000000  0.4689690000000 1.0
C      1  0.5334870000000  0.4679050000000  0.4922370000000 1.0
C      1  0.5446060000000  0.5274810000000  0.5520230000000 1.0
C      1  0.5374430000000  0.5010440000000  0.4425000000000 1.0
C      1  0.5800290000000  0.4956610000000  0.5060770000000 1.0
C      1  0.5459920000000  0.5292820000000  0.4488190000000 1.0
C      1  0.5035770000000  0.5704530000000  0.5013730000000 1.0
C      1  0.4649200000000  0.4766060000000  0.4668650000000 1.0
C      1  0.5266880000000  0.5582040000000  0.4865530000000 1.0
C      1  0.4597120000000  0.5494260000000  0.5186500000000 1.0
C      1  0.4211740000000  0.5110670000000  0.4635400000000 1.0
C      1  0.4285450000000  0.4767590000000  0.5177430000000 1.0
C      1  0.4460500000000  0.5330870000000  0.5397780000000 1.0
C      1  0.4653870000000  0.5124650000000  0.5621340000000 1.0
C      1  0.4388830000000  0.4944380000000  0.5544370000000 1.0
C      1  0.5092410000000  0.4974140000000  0.4628060000000 1.0
C      1  0.5232930000000  0.4899800000000  0.5324330000000 1.0
C      1  0.5306560000000  0.5385670000000  0.5301590000000 1.0
C      1  0.4568930000000  0.4445900000000  0.5055900000000 1.0
C      1  0.5024870000000  0.4672000000000  0.5038040000000 1.0
C      1  0.4879580000000  0.5350930000000  0.4831440000000 1.0
C      1  0.5229870000000  0.5453950000000  0.4587480000000 1.0
C      1  0.5601470000000  0.4817100000000  0.4521280000000 1.0
C      1  0.4801230000000  0.5068530000000  0.5317910000000 1.0
C      1  0.4702070000000  0.5201530000000  0.4374240000000 1.0
C      1  0.4886280000000  0.5561360000000  0.5241190000000 1.0
C      1  0.5153560000000  0.4625990000000  0.4400680000000 1.0
C      1  0.5388840000000  0.4996000000000  0.5575400000000 1.0
C      1  0.5491710000000  0.4276880000000  0.5205930000000 1.0
C      1  0.4978290000000  0.4436970000000  0.4836570000000 1.0
C      1  0.4960550000000  0.5282480000000  0.4547600000000 1.0
C      1  0.4892050000000  0.4866600000000  0.5673500000000 1.0
C      1  0.4393870000000  0.4665580000000  0.4891370000000 1.0
C      1  0.5452380000000  0.5445560000000  0.5059900000000 1.0
C      1  0.5326610000000  0.4983390000000  0.5030590000000 1.0
C      1  0.5706820000000  0.4739520000000  0.5245720000000 1.0
C      1  0.5053570000000  0.5109000000000  0.4938420000000 1.0
C      1  0.4895010000000  0.5044290000000  0.4153120000000 1.0
C      1  0.4406500000000  0.4648480000000  0.5449380000000 1.0
C      1  0.5147640000000  0.4890830000000  0.4220290000000 1.0
END
