TITL C-3985247-764-708 0.00163480803074296 125000 -348.603127672705 0 0 60 (C4h) n - 1
REM
REM in /home/nfs/bkarasulu/CARBON/AIRSS/Generating-Clusters/TERSOFF/Higher-Symm/Only-C60
REM
REM
REM
REM
REM
REM ./C.cell (28575a23ae977d3b5fae324c64b13b57)
REM
REM compiler GCC version 9.2.1 20190827 (Red Hat 9.2.1-1)
REM options -cpp -mtune=generic -march=x86-64 -g -O0 -fpre-include=/usr/include/finclude/math-vector-fortran.h
REM seed 1657524127 -436212882 -1099380189 2119889049 -726472832 -2049030966 783441395 1077560217 389126814 -652222312 202813404 700070722 -107978556 766753706 -1833132773 -1773739877 -141899653 984303020 689918379 -1051797790 -1040028430 -1540506140 -1933825871 -1064973071 853787535 -143851113 1160734553 281752301 -867842824 787557304 -1587439940 -1632541028 1801635644
REM
CELL 1.54180   50.00000   50.00000   50.00000   90.00000   90.00000   90.00000
LATT -1
SFAC C  
C      1  0.5078510000000  0.4223140000000  0.5287040000000 1.0
C      1  0.5777280000000  0.5078530000000  0.5287870000000 1.0
C      1  0.4921800000000  0.5776910000000  0.5287170000000 1.0
C      1  0.4222530000000  0.4922510000000  0.5287500000000 1.0
C      1  0.5078800000000  0.4225040000000  0.4717510000000 1.0
C      1  0.5776530000000  0.5078760000000  0.4717370000000 1.0
C      1  0.4921130000000  0.5776190000000  0.4717250000000 1.0
C      1  0.4223770000000  0.4921820000000  0.4717280000000 1.0
C      1  0.5748390000000  0.4799870000000  0.5149620000000 1.0
C      1  0.5199860000000  0.5748060000000  0.5148780000000 1.0
C      1  0.4251770000000  0.5200640000000  0.5149130000000 1.0
C      1  0.4800020000000  0.4251370000000  0.5149380000000 1.0
C      1  0.5749030000000  0.4799810000000  0.4854850000000 1.0
C      1  0.5200350000000  0.5748660000000  0.4854250000000 1.0
C      1  0.4251300000000  0.5200800000000  0.4854580000000 1.0
C      1  0.4799720000000  0.4251000000000  0.4854570000000 1.0
C      1  0.4421030000000  0.4567490000000  0.4859050000000 1.0
C      1  0.5433230000000  0.4420470000000  0.4859090000000 1.0
C      1  0.5578570000000  0.5431440000000  0.4858030000000 1.0
C      1  0.4567920000000  0.5579250000000  0.4858830000000 1.0
C      1  0.4422050000000  0.4567600000000  0.5144530000000 1.0
C      1  0.5431480000000  0.4422020000000  0.5144960000000 1.0
C      1  0.5576800000000  0.5429720000000  0.5144210000000 1.0
C      1  0.4569090000000  0.5577770000000  0.5144450000000 1.0
C      1  0.5265620000000  0.5464370000000  0.5528180000000 1.0
C      1  0.4534610000000  0.5266220000000  0.5528620000000 1.0
C      1  0.4734280000000  0.4535540000000  0.5528690000000 1.0
C      1  0.5464910000000  0.4734100000000  0.5528760000000 1.0
C      1  0.5266140000000  0.5465640000000  0.4474220000000 1.0
C      1  0.4535070000000  0.5266520000000  0.4475410000000 1.0
C      1  0.4733530000000  0.4534980000000  0.4475810000000 1.0
C      1  0.5464680000000  0.4733950000000  0.4475910000000 1.0
C      1  0.5579640000000  0.4611230000000  0.4709310000000 1.0
C      1  0.5389350000000  0.5578910000000  0.4708570000000 1.0
C      1  0.4420210000000  0.5389160000000  0.4708970000000 1.0
C      1  0.4611240000000  0.4420030000000  0.4709220000000 1.0
C      1  0.5578600000000  0.4611980000000  0.5294650000000 1.0
C      1  0.5387460000000  0.5577420000000  0.5293570000000 1.0
C      1  0.4422310000000  0.5387950000000  0.5293970000000 1.0
C      1  0.4611770000000  0.4420760000000  0.5294260000000 1.0
C      1  0.4618740000000  0.4766630000000  0.4341920000000 1.0
C      1  0.5233210000000  0.4619110000000  0.4342240000000 1.0
C      1  0.5381320000000  0.5234010000000  0.4341330000000 1.0
C      1  0.4766300000000  0.5381520000000  0.4341680000000 1.0
C      1  0.4618850000000  0.4766370000000  0.5663470000000 1.0
C      1  0.5233980000000  0.4618330000000  0.5663330000000 1.0
C      1  0.5380860000000  0.5233560000000  0.5662650000000 1.0
C      1  0.4766270000000  0.5381000000000  0.5663270000000 1.0
C      1  0.4975380000000  0.5542780000000  0.5530070000000 1.0
C      1  0.4456760000000  0.4975520000000  0.5529700000000 1.0
C      1  0.5024820000000  0.4456780000000  0.5529990000000 1.0
C      1  0.5543220000000  0.5024790000000  0.5530770000000 1.0
C      1  0.4975160000000  0.5542690000000  0.4474670000000 1.0
C      1  0.4457830000000  0.4975720000000  0.4475460000000 1.0
C      1  0.5024500000000  0.4457910000000  0.4475750000000 1.0
C      1  0.5541720000000  0.5024790000000  0.4475700000000 1.0
C      1  0.5184320000000  0.4114020000000  0.5001760000000 1.0
C      1  0.5886400000000  0.5184700000000  0.5001710000000 1.0
C      1  0.4815600000000  0.5886360000000  0.5002220000000 1.0
C      1  0.4114400000000  0.4815790000000  0.5002290000000 1.0
END
