TITL C-3985251-913-355 0.000197316013664494 125000 -318.889309185878 0 0 60 (Cs) n - 1
REM
REM in /home/nfs/bkarasulu/CARBON/AIRSS/Generating-Clusters/TERSOFF/Higher-Symm/Only-C60
REM
REM
REM
REM
REM
REM ./C.cell (28575a23ae977d3b5fae324c64b13b57)
REM
REM compiler GCC version 9.2.1 20190827 (Red Hat 9.2.1-1)
REM options -cpp -mtune=generic -march=x86-64 -g -O0 -fpre-include=/usr/include/finclude/math-vector-fortran.h
REM seed 1012359825 1158777525 452030216 1691273634 -1331008659 -1989107259 -668823565 -329752561 265852018 -268276756 805331449 -558706127 1407780972 338178451 155594326 -1440344485 527557673 2073394816 1293681201 -1080978811 -1059929584 794273016 260182632 231374410 1237142204 -1799458956 -910164070 1090038502 -1478493993 1762017983 1246782309 1675389677 -211103413
REM
CELL 1.54180   50.00000   50.00000   50.00000   90.00000   90.00000   90.00000
LATT -1
SFAC C  
C      1  0.4875640000000  0.5266510000000  0.5528990000000 1.0
C      1  0.5120320000000  0.5270700000000  0.4482410000000 1.0
C      1  0.5123070000000  0.4732150000000  0.5521270000000 1.0
C      1  0.4881190000000  0.4737630000000  0.4472680000000 1.0
C      1  0.5517730000000  0.5270290000000  0.4879990000000 1.0
C      1  0.4471130000000  0.5266680000000  0.5124600000000 1.0
C      1  0.5526800000000  0.4737150000000  0.5118670000000 1.0
C      1  0.4478160000000  0.4732550000000  0.4876760000000 1.0
C      1  0.5369580000000  0.4353250000000  0.4927650000000 1.0
C      1  0.4634830000000  0.4349390000000  0.5068400000000 1.0
C      1  0.4632940000000  0.5679890000000  0.4925190000000 1.0
C      1  0.5362600000000  0.5611460000000  0.5068710000000 1.0
C      1  0.4932130000000  0.4352570000000  0.5365010000000 1.0
C      1  0.5072880000000  0.4350070000000  0.4630200000000 1.0
C      1  0.4931450000000  0.5611600000000  0.4637410000000 1.0
C      1  0.5075130000000  0.5679670000000  0.5367120000000 1.0
C      1  0.5309040000000  0.5511420000000  0.4483800000000 1.0
C      1  0.4668500000000  0.5500840000000  0.5539510000000 1.0
C      1  0.4685390000000  0.4496590000000  0.4471070000000 1.0
C      1  0.5320710000000  0.4493820000000  0.5521350000000 1.0
C      1  0.4460690000000  0.5500900000000  0.5331810000000 1.0
C      1  0.5516830000000  0.5511170000000  0.4691180000000 1.0
C      1  0.4477880000000  0.4494270000000  0.4678450000000 1.0
C      1  0.5528120000000  0.4496050000000  0.5313860000000 1.0
C      1  0.5232820000000  0.4623270000000  0.5013620000000 1.0
C      1  0.4770430000000  0.4618050000000  0.4979520000000 1.0
C      1  0.4745950000000  0.5414070000000  0.5036040000000 1.0
C      1  0.5203820000000  0.5335040000000  0.5009750000000 1.0
C      1  0.5018090000000  0.4621990000000  0.5227000000000 1.0
C      1  0.4983990000000  0.4619320000000  0.4764510000000 1.0
C      1  0.4990390000000  0.5335150000000  0.4796300000000 1.0
C      1  0.4964190000000  0.5413850000000  0.5254180000000 1.0
C      1  0.5200490000000  0.4755510000000  0.4432350000000 1.0
C      1  0.4804160000000  0.4748450000000  0.5564590000000 1.0
C      1  0.4799970000000  0.5255780000000  0.4431590000000 1.0
C      1  0.5194060000000  0.5247360000000  0.5562900000000 1.0
C      1  0.4435830000000  0.4748810000000  0.5195600000000 1.0
C      1  0.5568100000000  0.4755020000000  0.4799250000000 1.0
C      1  0.4437030000000  0.5247680000000  0.4806160000000 1.0
C      1  0.5568450000000  0.5255490000000  0.5200320000000 1.0
C      1  0.4777180000000  0.4093180000000  0.5003920000000 1.0
C      1  0.5228790000000  0.4096570000000  0.4993390000000 1.0
C      1  0.5243330000000  0.5871030000000  0.4984260000000 1.0
C      1  0.4795680000000  0.5929230000000  0.4971020000000 1.0
C      1  0.5008600000000  0.4093910000000  0.4772860000000 1.0
C      1  0.4998110000000  0.4095850000000  0.5224520000000 1.0
C      1  0.5029260000000  0.5929160000000  0.5204460000000 1.0
C      1  0.5015900000000  0.5871130000000  0.4756830000000 1.0
C      1  0.4497610000000  0.5018980000000  0.5296500000000 1.0
C      1  0.5509400000000  0.5026280000000  0.4698460000000 1.0
C      1  0.5507780000000  0.4981800000000  0.5298420000000 1.0
C      1  0.4496670000000  0.4979400000000  0.4702200000000 1.0
C      1  0.5301830000000  0.5026100000000  0.4490770000000 1.0
C      1  0.4703550000000  0.5018850000000  0.5502600000000 1.0
C      1  0.5298030000000  0.4979020000000  0.5503660000000 1.0
C      1  0.4701770000000  0.4982340000000  0.4492640000000 1.0
C      1  0.5391140000000  0.4505160000000  0.4608510000000 1.0
C      1  0.4612170000000  0.4499520000000  0.5387620000000 1.0
C      1  0.4606290000000  0.5500710000000  0.4613860000000 1.0
C      1  0.5386410000000  0.5500330000000  0.5393740000000 1.0
END
