TITL C-3985252-168-329 0.000658840644120168 125000 -341.936315457394 0 0 60 (C1) n - 1
REM
REM in /home/nfs/bkarasulu/CARBON/AIRSS/Generating-Clusters/TERSOFF/Higher-Symm/Only-C60
REM
REM
REM
REM
REM
REM ./C.cell (28575a23ae977d3b5fae324c64b13b57)
REM
REM compiler GCC version 9.2.1 20190827 (Red Hat 9.2.1-1)
REM options -cpp -mtune=generic -march=x86-64 -g -O0 -fpre-include=/usr/include/finclude/math-vector-fortran.h
REM seed -1001178562 377223463 1869165080 -1678035992 -1761054156 -1340631700 503890266 -640852086 1838402327 1135490740 1587466556 -1269314268 1753527670 1173896128 1238644346 -327878840 -1862123825 -467684142 1829661988 771246785 -392965420 637318999 -323507921 -1082602295 978699985 1121736501 -1056236349 -420148910 1612659260 -2016214396 -180899467 -1807491303 2024434887
REM
CELL 1.54180   50.00000   50.00000   50.00000   90.00000   90.00000   90.00000
LATT -1
SFAC C  
C      1  0.4745170000000  0.4320820000000  0.4852740000000 1.0
C      1  0.5258080000000  0.5679770000000  0.4851100000000 1.0
C      1  0.4750460000000  0.5678570000000  0.4847020000000 1.0
C      1  0.5250150000000  0.4340730000000  0.4840740000000 1.0
C      1  0.4723080000000  0.5581540000000  0.5254260000000 1.0
C      1  0.5283300000000  0.4424620000000  0.5250500000000 1.0
C      1  0.4723870000000  0.4414280000000  0.5261090000000 1.0
C      1  0.5280900000000  0.5586120000000  0.5259380000000 1.0
C      1  0.5661390000000  0.5291650000000  0.5180810000000 1.0
C      1  0.4340000000000  0.4710050000000  0.5182890000000 1.0
C      1  0.5659390000000  0.4720640000000  0.5174420000000 1.0
C      1  0.4346330000000  0.5283070000000  0.5173930000000 1.0
C      1  0.4860170000000  0.4179860000000  0.5112930000000 1.0
C      1  0.5147790000000  0.5822560000000  0.5114340000000 1.0
C      1  0.4854940000000  0.5820460000000  0.5111910000000 1.0
C      1  0.5152820000000  0.4188130000000  0.5104680000000 1.0
C      1  0.5582120000000  0.4852610000000  0.5432070000000 1.0
C      1  0.4425220000000  0.5150110000000  0.5430540000000 1.0
C      1  0.5582070000000  0.5154940000000  0.5434690000000 1.0
C      1  0.4423470000000  0.4847880000000  0.5434550000000 1.0
C      1  0.5164090000000  0.4709420000000  0.4603440000000 1.0
C      1  0.4796330000000  0.5345350000000  0.4596000000000 1.0
C      1  0.5216250000000  0.5340380000000  0.4607380000000 1.0
C      1  0.4750050000000  0.4644300000000  0.4585470000000 1.0
C      1  0.4714940000000  0.4819360000000  0.4849610000000 1.0
C      1  0.5269680000000  0.5182350000000  0.4871560000000 1.0
C      1  0.4734110000000  0.5179140000000  0.4852560000000 1.0
C      1  0.5258820000000  0.4833790000000  0.4882150000000 1.0
C      1  0.5425890000000  0.4602040000000  0.5019200000000 1.0
C      1  0.4575530000000  0.5409960000000  0.5017340000000 1.0
C      1  0.5429160000000  0.5414190000000  0.5028300000000 1.0
C      1  0.4568300000000  0.4583420000000  0.5027260000000 1.0
C      1  0.4849710000000  0.4555240000000  0.5483130000000 1.0
C      1  0.5155850000000  0.5447090000000  0.5483480000000 1.0
C      1  0.4847310000000  0.5444090000000  0.5479660000000 1.0
C      1  0.5158700000000  0.4558220000000  0.5478880000000 1.0
C      1  0.5341920000000  0.4760950000000  0.5598100000000 1.0
C      1  0.4664560000000  0.5240960000000  0.5597020000000 1.0
C      1  0.5340620000000  0.5243740000000  0.5600230000000 1.0
C      1  0.4665150000000  0.4758560000000  0.5599780000000 1.0
C      1  0.5865930000000  0.4862790000000  0.5024330000000 1.0
C      1  0.4139190000000  0.5140740000000  0.5024570000000 1.0
C      1  0.5867150000000  0.5151140000000  0.5027870000000 1.0
C      1  0.4134550000000  0.4852350000000  0.5031040000000 1.0
C      1  0.5263380000000  0.5225660000000  0.4341350000000 1.0
C      1  0.4735490000000  0.4765670000000  0.4318940000000 1.0
C      1  0.5273320000000  0.4747670000000  0.4319730000000 1.0
C      1  0.4756480000000  0.5237000000000  0.4328030000000 1.0
C      1  0.5444800000000  0.4992770000000  0.4317450000000 1.0
C      1  0.4569400000000  0.5010380000000  0.4302600000000 1.0
C      1  0.4760330000000  0.5000480000000  0.5740990000000 1.0
C      1  0.5245630000000  0.5001760000000  0.5741470000000 1.0
C      1  0.4990360000000  0.4427720000000  0.4651100000000 1.0
C      1  0.5006780000000  0.5588640000000  0.4647060000000 1.0
C      1  0.4981570000000  0.4791610000000  0.5005830000000 1.0
C      1  0.4997040000000  0.5211230000000  0.5002120000000 1.0
C      1  0.5011680000000  0.5149100000000  0.4196590000000 1.0
C      1  0.5006350000000  0.4837980000000  0.4182680000000 1.0
C      1  0.5002690000000  0.4979690000000  0.4582680000000 1.0
C      1  0.5002830000000  0.5001070000000  0.5880940000000 1.0
END
