TITL C-3985259-1859-876 -1.53052001741682e-08 125000 -248.632132552085 0 0 60 (D5) n - 1
REM
REM in /home/nfs/bkarasulu/CARBON/AIRSS/Generating-Clusters/TERSOFF/Higher-Symm/Only-C60
REM
REM
REM
REM
REM
REM ./C.cell (28575a23ae977d3b5fae324c64b13b57)
REM
REM compiler GCC version 9.2.1 20190827 (Red Hat 9.2.1-1)
REM options -cpp -mtune=generic -march=x86-64 -g -O0 -fpre-include=/usr/include/finclude/math-vector-fortran.h
REM seed 282962848 301843943 1701405199 738682823 -1185409705 594041975 366395728 -1325284685 1307972217 -375545802 -2026052321 687367028 -62243419 1496133644 597859678 -552070945 2143300874 1243006961 1770730245 -1937676966 -303777783 -781211890 -943309052 -1968076030 1097967320 -1105907355 -8789964 -1218567912 -302473329 -406152458 1517527889 -356363329 1702144198
REM
CELL 1.54180   50.00000   50.00000   50.00000   90.00000   90.00000   90.00000
LATT -1
SFAC C  
C      1  0.5392380000000  0.5450300000000  0.5473130000000 1.0
C      1  0.4671280000000  0.5450300000000  0.5519380000000 1.0
C      1  0.4404460000000  0.5450300000000  0.4847860000000 1.0
C      1  0.4960660000000  0.5450300000000  0.4386600000000 1.0
C      1  0.5571220000000  0.5450300000000  0.4773030000000 1.0
C      1  0.4607620000000  0.4567660000000  0.5473130000000 1.0
C      1  0.5328720000000  0.4567660000000  0.5519380000000 1.0
C      1  0.5595540000000  0.4567660000000  0.4847860000000 1.0
C      1  0.5039340000000  0.4567660000000  0.4386600000000 1.0
C      1  0.4428780000000  0.4567660000000  0.4773030000000 1.0
C      1  0.4697330000000  0.5179960000000  0.4977560000000 1.0
C      1  0.4927810000000  0.5179960000000  0.4705210000000 1.0
C      1  0.5258050000000  0.5179960000000  0.4840250000000 1.0
C      1  0.5231680000000  0.5179960000000  0.5196060000000 1.0
C      1  0.4885130000000  0.5179960000000  0.5280920000000 1.0
C      1  0.5302670000000  0.4838010000000  0.4977560000000 1.0
C      1  0.5072190000000  0.4838010000000  0.4705210000000 1.0
C      1  0.4741950000000  0.4838010000000  0.4840250000000 1.0
C      1  0.4768320000000  0.4838010000000  0.5196060000000 1.0
C      1  0.5114870000000  0.4838010000000  0.5280920000000 1.0
C      1  0.4529810000000  0.5214000000000  0.5304050000000 1.0
C      1  0.4565530000000  0.5214000000000  0.4646780000000 1.0
C      1  0.5201680000000  0.5214000000000  0.4477640000000 1.0
C      1  0.5559110000000  0.5214000000000  0.5030390000000 1.0
C      1  0.5143870000000  0.5214000000000  0.5541140000000 1.0
C      1  0.5470190000000  0.4803960000000  0.5304050000000 1.0
C      1  0.5434470000000  0.4803960000000  0.4646780000000 1.0
C      1  0.4798320000000  0.4803960000000  0.4477640000000 1.0
C      1  0.4440890000000  0.4803960000000  0.5030390000000 1.0
C      1  0.4856130000000  0.4803960000000  0.5541140000000 1.0
C      1  0.5268740000000  0.4790910000000  0.5758760000000 1.0
C      1  0.4361420000000  0.4790910000000  0.5490060000000 1.0
C      1  0.4336600000000  0.4790910000000  0.4544110000000 1.0
C      1  0.5228570000000  0.4790910000000  0.4228190000000 1.0
C      1  0.5804670000000  0.4790910000000  0.4978880000000 1.0
C      1  0.4731260000000  0.5227050000000  0.5758760000000 1.0
C      1  0.5638580000000  0.5227050000000  0.5490060000000 1.0
C      1  0.5663400000000  0.5227050000000  0.4544110000000 1.0
C      1  0.4771430000000  0.5227050000000  0.4228190000000 1.0
C      1  0.4195330000000  0.5227050000000  0.4978880000000 1.0
C      1  0.5131970000000  0.4486390000000  0.5246890000000 1.0
C      1  0.4805970000000  0.4486390000000  0.5201810000000 1.0
C      1  0.4748110000000  0.4486390000000  0.4877830000000 1.0
C      1  0.5038350000000  0.4486390000000  0.4722690000000 1.0
C      1  0.5275590000000  0.4486390000000  0.4950780000000 1.0
C      1  0.4868030000000  0.5531570000000  0.5246890000000 1.0
C      1  0.5194030000000  0.5531570000000  0.5201810000000 1.0
C      1  0.5251890000000  0.5531570000000  0.4877830000000 1.0
C      1  0.4961650000000  0.5531570000000  0.4722690000000 1.0
C      1  0.4724410000000  0.5531570000000  0.4950780000000 1.0
C      1  0.4553400000000  0.5008980000000  0.4385310000000 1.0
C      1  0.5446600000000  0.5008980000000  0.4385310000000 1.0
C      1  0.5000000000000  0.5008980000000  0.5759800000000 1.0
C      1  0.4277380000000  0.5008980000000  0.5234790000000 1.0
C      1  0.5722620000000  0.5008980000000  0.5234790000000 1.0
C      1  0.5409080000000  0.5008980000000  0.5563040000000 1.0
C      1  0.5661900000000  0.5008980000000  0.4784940000000 1.0
C      1  0.4590920000000  0.5008980000000  0.5563040000000 1.0
C      1  0.4338100000000  0.5008980000000  0.4784940000000 1.0
C      1  0.5000000000000  0.5008980000000  0.4304040000000 1.0
END
