TITL C-3985254-1270-1632 -0.000398452942499004 125000 -286.008339816327 0 0 60 (C5) n - 1
REM
REM in /home/nfs/bkarasulu/CARBON/AIRSS/Generating-Clusters/TERSOFF/Higher-Symm/Only-C60
REM
REM
REM
REM
REM
REM ./C.cell (28575a23ae977d3b5fae324c64b13b57)
REM
REM compiler GCC version 9.2.1 20190827 (Red Hat 9.2.1-1)
REM options -cpp -mtune=generic -march=x86-64 -g -O0 -fpre-include=/usr/include/finclude/math-vector-fortran.h
REM seed 1949382672 -1323197561 1630161637 -1472340056 1092418240 737212488 1394465416 435505647 -922955607 471229958 1981633884 898290396 1618993172 957947346 -609323058 -968749411 -1780003656 699312895 912267034 -217855773 -1755142253 1019677604 1619648165 -1823097955 1032857346 1099085289 -627153037 -1408019535 1992056792 -2146881526 568528377 1018664020 -1794382783
REM
CELL 1.54180   50.00000   50.00000   50.00000   90.00000   90.00000   90.00000
LATT -1
SFAC C  
C      1  0.5337950000000  0.4706470000000  0.4922240000000 1.0
C      1  0.5010340000000  0.4706100000000  0.4664290000000 1.0
C      1  0.4663660000000  0.4706660000000  0.4896190000000 1.0
C      1  0.4777340000000  0.4706300000000  0.5297470000000 1.0
C      1  0.5193970000000  0.4706630000000  0.5313740000000 1.0
C      1  0.4991300000000  0.4919560000000  0.5726240000000 1.0
C      1  0.5667990000000  0.4919610000000  0.5242560000000 1.0
C      1  0.5416940000000  0.4919470000000  0.4449150000000 1.0
C      1  0.4585310000000  0.4919330000000  0.4443270000000 1.0
C      1  0.4321900000000  0.4919670000000  0.5232190000000 1.0
C      1  0.4936900000000  0.5284900000000  0.5368920000000 1.0
C      1  0.5311310000000  0.5284960000000  0.5183770000000 1.0
C      1  0.5250930000000  0.5285080000000  0.4770450000000 1.0
C      1  0.4839160000000  0.5284950000000  0.4700260000000 1.0
C      1  0.4645070000000  0.5285020000000  0.5070110000000 1.0
C      1  0.5312630000000  0.5719100000000  0.5183840000000 1.0
C      1  0.5251310000000  0.5719110000000  0.4769240000000 1.0
C      1  0.4838070000000  0.5719120000000  0.4699470000000 1.0
C      1  0.4643980000000  0.5719040000000  0.5070890000000 1.0
C      1  0.4937270000000  0.5719140000000  0.5370210000000 1.0
C      1  0.4655090000000  0.4376250000000  0.4917920000000 1.0
C      1  0.4795210000000  0.4376120000000  0.5312460000000 1.0
C      1  0.5213620000000  0.4375960000000  0.5301120000000 1.0
C      1  0.5332210000000  0.4376060000000  0.4899460000000 1.0
C      1  0.4987010000000  0.4376140000000  0.4662580000000 1.0
C      1  0.5303320000000  0.5346690000000  0.5662200000000 1.0
C      1  0.5703370000000  0.5346680000000  0.4925950000000 1.0
C      1  0.5127010000000  0.5346900000000  0.4317830000000 1.0
C      1  0.4370330000000  0.5346830000000  0.4678400000000 1.0
C      1  0.4479260000000  0.5346800000000  0.5509170000000 1.0
C      1  0.5071110000000  0.4644340000000  0.5590930000000 1.0
C      1  0.5563730000000  0.4644420000000  0.5124760000000 1.0
C      1  0.5273120000000  0.4644270000000  0.4512160000000 1.0
C      1  0.4600090000000  0.4644410000000  0.4599420000000 1.0
C      1  0.4475480000000  0.4644340000000  0.5266230000000 1.0
C      1  0.4482230000000  0.5058730000000  0.5480610000000 1.0
C      1  0.5276720000000  0.5058810000000  0.5650660000000 1.0
C      1  0.5684350000000  0.5058720000000  0.4947690000000 1.0
C      1  0.5141400000000  0.5058780000000  0.4342730000000 1.0
C      1  0.4398730000000  0.5058860000000  0.4672180000000 1.0
C      1  0.4593730000000  0.5499820000000  0.4807870000000 1.0
C      1  0.4671530000000  0.5499710000000  0.5336700000000 1.0
C      1  0.5198760000000  0.5499760000000  0.5426130000000 1.0
C      1  0.5446600000000  0.5499830000000  0.4952670000000 1.0
C      1  0.5072820000000  0.5499810000000  0.4570370000000 1.0
C      1  0.4903160000000  0.4907200000000  0.4469860000000 1.0
C      1  0.4445480000000  0.4907550000000  0.4937870000000 1.0
C      1  0.4749770000000  0.4907300000000  0.5517850000000 1.0
C      1  0.5395140000000  0.4907600000000  0.5408190000000 1.0
C      1  0.5489900000000  0.4907450000000  0.4760340000000 1.0
C      1  0.4677870000000  0.4334430000000  0.4560710000000 1.0
C      1  0.4462750000000  0.4334200000000  0.5180300000000 1.0
C      1  0.4985290000000  0.4334360000000  0.5576610000000 1.0
C      1  0.5523650000000  0.4334390000000  0.5201820000000 1.0
C      1  0.5333890000000  0.4334410000000  0.4574220000000 1.0
C      1  0.4996680000000  0.5165060000000  0.5018690000000 1.0
C      1  0.4996680000000  0.5501960000000  0.5018720000000 1.0
C      1  0.4996650000000  0.5821010000000  0.5018730000000 1.0
C      1  0.4996630000000  0.4305230000000  0.5018700000000 1.0
C      1  0.4996640000000  0.4802390000000  0.5018730000000 1.0
END
