TITL C-3985247-764-573 -0.00181369665604178 125000 -304.389242181639 0 0 60 (C2) n - 1
REM
REM in /home/nfs/bkarasulu/CARBON/AIRSS/Generating-Clusters/TERSOFF/Higher-Symm/Only-C60
REM
REM
REM
REM
REM
REM ./C.cell (28575a23ae977d3b5fae324c64b13b57)
REM
REM compiler GCC version 9.2.1 20190827 (Red Hat 9.2.1-1)
REM options -cpp -mtune=generic -march=x86-64 -g -O0 -fpre-include=/usr/include/finclude/math-vector-fortran.h
REM seed 574116023 969253846 -1878433137 -808643157 1181222904 1310707884 1995506925 -955206238 1168908015 498745974 809061535 798434173 -24434149 -814664518 -477991017 -545664683 1659959800 1962459243 -2119176098 9284079 43700973 937652517 2004143844 -2054890210 1442365020 1841018385 -476248256 -878454779 -1103288608 1573575136 -79614978 1222442839 832250021
REM
CELL 1.54180   50.00000   50.00000   50.00000   90.00000   90.00000   90.00000
LATT -1
SFAC C  
C      1  0.4788830000000  0.5345900000000  0.4542450000000 1.0
C      1  0.5211450000000  0.4654070000000  0.4542920000000 1.0
C      1  0.5062130000000  0.5165550000000  0.4574540000000 1.0
C      1  0.4937830000000  0.4834240000000  0.4573990000000 1.0
C      1  0.4424200000000  0.4689870000000  0.5342220000000 1.0
C      1  0.5576240000000  0.5309270000000  0.5342250000000 1.0
C      1  0.5527610000000  0.4746920000000  0.5553890000000 1.0
C      1  0.4472930000000  0.5255900000000  0.5556510000000 1.0
C      1  0.4510180000000  0.4461780000000  0.4866640000000 1.0
C      1  0.5489240000000  0.5537790000000  0.4867120000000 1.0
C      1  0.5327440000000  0.4991230000000  0.5457780000000 1.0
C      1  0.4671080000000  0.5008190000000  0.5460500000000 1.0
C      1  0.5509820000000  0.4401950000000  0.4801370000000 1.0
C      1  0.4490660000000  0.5599880000000  0.4799040000000 1.0
C      1  0.4907220000000  0.5468740000000  0.5337410000000 1.0
C      1  0.5092800000000  0.4530790000000  0.5337600000000 1.0
C      1  0.4911640000000  0.4760190000000  0.5698380000000 1.0
C      1  0.5088830000000  0.5239580000000  0.5698030000000 1.0
C      1  0.5358040000000  0.5318740000000  0.4440390000000 1.0
C      1  0.4641650000000  0.4681550000000  0.4440250000000 1.0
C      1  0.5670350000000  0.5306280000000  0.4851710000000 1.0
C      1  0.4329220000000  0.4693460000000  0.4851470000000 1.0
C      1  0.5593820000000  0.5089720000000  0.4593830000000 1.0
C      1  0.4406250000000  0.4910400000000  0.4593660000000 1.0
C      1  0.5721200000000  0.4882070000000  0.5053160000000 1.0
C      1  0.4278880000000  0.5117560000000  0.5053650000000 1.0
C      1  0.4488710000000  0.5296260000000  0.5138770000000 1.0
C      1  0.5509770000000  0.4703420000000  0.5136610000000 1.0
C      1  0.4591160000000  0.4422700000000  0.4582890000000 1.0
C      1  0.5408440000000  0.5577220000000  0.4583450000000 1.0
C      1  0.4803960000000  0.5074550000000  0.5738340000000 1.0
C      1  0.5194290000000  0.4925290000000  0.5733210000000 1.0
C      1  0.5035850000000  0.5345210000000  0.4880550000000 1.0
C      1  0.4962870000000  0.4654730000000  0.4879920000000 1.0
C      1  0.5340130000000  0.4510720000000  0.5540320000000 1.0
C      1  0.4662360000000  0.5490430000000  0.5542270000000 1.0
C      1  0.5483840000000  0.4766130000000  0.4475730000000 1.0
C      1  0.4516700000000  0.5233550000000  0.4475330000000 1.0
C      1  0.5113350000000  0.4329630000000  0.5110480000000 1.0
C      1  0.4886610000000  0.5670080000000  0.5110420000000 1.0
C      1  0.5705600000000  0.5176390000000  0.5109160000000 1.0
C      1  0.4294470000000  0.4823050000000  0.5109230000000 1.0
C      1  0.4936790000000  0.5128310000000  0.5044300000000 1.0
C      1  0.5061460000000  0.4871430000000  0.5044640000000 1.0
C      1  0.4747790000000  0.5208260000000  0.5243150000000 1.0
C      1  0.5250830000000  0.4790960000000  0.5240840000000 1.0
C      1  0.5194650000000  0.4403200000000  0.4796210000000 1.0
C      1  0.4805910000000  0.5597020000000  0.4795520000000 1.0
C      1  0.5243060000000  0.5337490000000  0.5385550000000 1.0
C      1  0.4757360000000  0.4662350000000  0.5385110000000 1.0
C      1  0.4743440000000  0.4540630000000  0.5045640000000 1.0
C      1  0.5255890000000  0.5459390000000  0.5044940000000 1.0
C      1  0.5675940000000  0.4587030000000  0.4641040000000 1.0
C      1  0.4324460000000  0.5413360000000  0.4640460000000 1.0
C      1  0.5086630000000  0.4163140000000  0.4645570000000 1.0
C      1  0.4916880000000  0.5836070000000  0.4645220000000 1.0
C      1  0.5775620000000  0.4850070000000  0.4765370000000 1.0
C      1  0.4225340000000  0.5150100000000  0.4765870000000 1.0
C      1  0.5309810000000  0.5036380000000  0.4746940000000 1.0
C      1  0.4690470000000  0.4963810000000  0.4746200000000 1.0
END
