TITL C-3985251-913-103 0.000414997091704137 125000 -337.084134963721 0 0 60 (C1) n - 1
REM
REM in /home/nfs/bkarasulu/CARBON/AIRSS/Generating-Clusters/TERSOFF/Higher-Symm/Only-C60
REM
REM
REM
REM
REM
REM ./C.cell (28575a23ae977d3b5fae324c64b13b57)
REM
REM compiler GCC version 9.2.1 20190827 (Red Hat 9.2.1-1)
REM options -cpp -mtune=generic -march=x86-64 -g -O0 -fpre-include=/usr/include/finclude/math-vector-fortran.h
REM seed 183644527 -1135567958 1719558890 320279418 2921534 -398739643 1066004134 -2012018343 585972111 -509480512 1299479078 -1155680102 -1080394988 1608394087 1215188991 1813283186 -998371936 1820729620 131122091 1401309483 1721186840 1250761440 -1760136674 -1694009905 259508359 -317079035 487029589 -1553382042 720544019 1631545112 -2061120484 -763930896 -1816567108
REM
CELL 1.54180   50.00000   50.00000   50.00000   90.00000   90.00000   90.00000
LATT -1
SFAC C  
C      1  0.5310790000000  0.5207920000000  0.4999490000000 1.0
C      1  0.4699800000000  0.4746950000000  0.5642580000000 1.0
C      1  0.5671890000000  0.4937740000000  0.5249800000000 1.0
C      1  0.5380890000000  0.4755930000000  0.4477060000000 1.0
C      1  0.4762400000000  0.4350700000000  0.4909220000000 1.0
C      1  0.5534780000000  0.4718060000000  0.4999610000000 1.0
C      1  0.4564140000000  0.4567490000000  0.4963130000000 1.0
C      1  0.5111390000000  0.5173550000000  0.4523630000000 1.0
C      1  0.4428600000000  0.4939230000000  0.5551070000000 1.0
C      1  0.4792780000000  0.4930830000000  0.5277230000000 1.0
C      1  0.5565600000000  0.5387490000000  0.5014630000000 1.0
C      1  0.5035090000000  0.4763840000000  0.4905130000000 1.0
C      1  0.4808780000000  0.4297180000000  0.5408550000000 1.0
C      1  0.4875750000000  0.4645980000000  0.4503410000000 1.0
C      1  0.4241630000000  0.5066340000000  0.5069020000000 1.0
C      1  0.5049670000000  0.4832380000000  0.5656190000000 1.0
C      1  0.5337050000000  0.5251300000000  0.5537600000000 1.0
C      1  0.4688050000000  0.5024900000000  0.4810300000000 1.0
C      1  0.4423530000000  0.4648620000000  0.4710140000000 1.0
C      1  0.5224000000000  0.5549450000000  0.5468970000000 1.0
C      1  0.5239800000000  0.4638800000000  0.5123470000000 1.0
C      1  0.5557920000000  0.5001220000000  0.4849490000000 1.0
C      1  0.5531820000000  0.5245350000000  0.4404110000000 1.0
C      1  0.4625370000000  0.4515160000000  0.5457050000000 1.0
C      1  0.5347550000000  0.4711550000000  0.5608380000000 1.0
C      1  0.4715950000000  0.5221650000000  0.5403580000000 1.0
C      1  0.4546870000000  0.5021630000000  0.4355560000000 1.0
C      1  0.5227740000000  0.5122500000000  0.5275180000000 1.0
C      1  0.4784910000000  0.5411770000000  0.5201860000000 1.0
C      1  0.5319820000000  0.4512440000000  0.5393930000000 1.0
C      1  0.4748140000000  0.5230680000000  0.4309430000000 1.0
C      1  0.5082140000000  0.4869210000000  0.5324050000000 1.0
C      1  0.5538870000000  0.4995800000000  0.4552540000000 1.0
C      1  0.5585990000000  0.5558070000000  0.4774640000000 1.0
C      1  0.5019860000000  0.5064970000000  0.4267440000000 1.0
C      1  0.4752680000000  0.4810710000000  0.5001360000000 1.0
C      1  0.5524510000000  0.4953820000000  0.5519200000000 1.0
C      1  0.4623030000000  0.4820330000000  0.4559690000000 1.0
C      1  0.4313060000000  0.4854470000000  0.5287570000000 1.0
C      1  0.5114630000000  0.5469280000000  0.4558800000000 1.0
C      1  0.5768250000000  0.5208440000000  0.5147590000000 1.0
C      1  0.5098100000000  0.4784860000000  0.4363340000000 1.0
C      1  0.4860700000000  0.4204990000000  0.5141190000000 1.0
C      1  0.5004570000000  0.5611100000000  0.5266210000000 1.0
C      1  0.5145810000000  0.5013690000000  0.4775490000000 1.0
C      1  0.4439250000000  0.4591740000000  0.5230900000000 1.0
C      1  0.5101100000000  0.5423460000000  0.4860640000000 1.0
C      1  0.4451880000000  0.5230030000000  0.5544200000000 1.0
C      1  0.5106030000000  0.5132210000000  0.5711320000000 1.0
C      1  0.4865820000000  0.5753290000000  0.4749770000000 1.0
C      1  0.4943250000000  0.4411230000000  0.4685350000000 1.0
C      1  0.5226220000000  0.4356450000000  0.4723240000000 1.0
C      1  0.5431880000000  0.5492600000000  0.4527210000000 1.0
C      1  0.5424290000000  0.4566920000000  0.4707630000000 1.0
C      1  0.4750830000000  0.5508460000000  0.4538860000000 1.0
C      1  0.4474090000000  0.5433590000000  0.4714510000000 1.0
C      1  0.4429620000000  0.5164250000000  0.4848600000000 1.0
C      1  0.4869730000000  0.5277710000000  0.5651730000000 1.0
C      1  0.4825810000000  0.5304070000000  0.4924370000000 1.0
C      1  0.5075500000000  0.5705610000000  0.4983740000000 1.0
END
