TITL C-3985257-5396-108 -4.55576302068016e-06 125000 -325.747963884869 0 0 60 (C1) n - 1
REM
REM in /home/nfs/bkarasulu/CARBON/AIRSS/Generating-Clusters/TERSOFF/Higher-Symm/Only-C60
REM
REM
REM
REM
REM
REM ./C.cell (28575a23ae977d3b5fae324c64b13b57)
REM
REM compiler GCC version 9.2.1 20190827 (Red Hat 9.2.1-1)
REM options -cpp -mtune=generic -march=x86-64 -g -O0 -fpre-include=/usr/include/finclude/math-vector-fortran.h
REM seed 1580951319 -1806075933 745498621 878939285 1620931123 946934510 -2061389167 542287089 -367484988 -2103133180 1336754358 1011160722 -2071977060 1534424578 235197309 -956944682 1140899476 1985783659 673493500 -1456709686 -61940018 1733665227 -986344062 138641238 1027526588 105482504 1821397812 1505382213 -1195744331 481342719 -735472701 1532593704 1813497987
REM
CELL 1.54180   50.00000   50.00000   50.00000   90.00000   90.00000   90.00000
LATT -1
SFAC C  
C      1  0.5327280000000  0.4408420000000  0.5278390000000 1.0
C      1  0.4412070000000  0.4783930000000  0.5311290000000 1.0
C      1  0.5149280000000  0.4686500000000  0.5210980000000 1.0
C      1  0.4610340000000  0.4956330000000  0.5454780000000 1.0
C      1  0.4859480000000  0.5497710000000  0.4656800000000 1.0
C      1  0.4755130000000  0.4783690000000  0.4950050000000 1.0
C      1  0.4742000000000  0.5108010000000  0.4912510000000 1.0
C      1  0.5194760000000  0.5277930000000  0.4227200000000 1.0
C      1  0.4999020000000  0.5282830000000  0.5690400000000 1.0
C      1  0.5144210000000  0.5515360000000  0.4751150000000 1.0
C      1  0.4794050000000  0.4527110000000  0.4713780000000 1.0
C      1  0.5234340000000  0.4878100000000  0.4740200000000 1.0
C      1  0.5216460000000  0.4987110000000  0.4153290000000 1.0
C      1  0.4606600000000  0.5584430000000  0.5062290000000 1.0
C      1  0.4718420000000  0.4850900000000  0.5716650000000 1.0
C      1  0.4995180000000  0.4416000000000  0.4521090000000 1.0
C      1  0.5341160000000  0.4811700000000  0.5394400000000 1.0
C      1  0.5327520000000  0.5452820000000  0.5235910000000 1.0
C      1  0.4260220000000  0.4877260000000  0.5058750000000 1.0
C      1  0.4875710000000  0.4594420000000  0.5594900000000 1.0
C      1  0.5245150000000  0.4353730000000  0.4975390000000 1.0
C      1  0.4553530000000  0.4725820000000  0.4571090000000 1.0
C      1  0.5074400000000  0.5042600000000  0.4552480000000 1.0
C      1  0.5234840000000  0.5059570000000  0.5565360000000 1.0
C      1  0.4799430000000  0.5429450000000  0.5495840000000 1.0
C      1  0.5412280000000  0.4498640000000  0.4765280000000 1.0
C      1  0.5064860000000  0.5796740000000  0.5189170000000 1.0
C      1  0.5141270000000  0.5377000000000  0.5032010000000 1.0
C      1  0.5184310000000  0.5778530000000  0.4917190000000 1.0
C      1  0.5736760000000  0.4840620000000  0.5130010000000 1.0
C      1  0.4830700000000  0.4587760000000  0.5245490000000 1.0
C      1  0.5478260000000  0.5241520000000  0.5371380000000 1.0
C      1  0.4945630000000  0.5039640000000  0.5352630000000 1.0
C      1  0.4525410000000  0.5290930000000  0.5091380000000 1.0
C      1  0.5263590000000  0.4544370000000  0.4487020000000 1.0
C      1  0.5144440000000  0.4770230000000  0.5761140000000 1.0
C      1  0.5699960000000  0.5288750000000  0.4900640000000 1.0
C      1  0.5615740000000  0.4739410000000  0.5369770000000 1.0
C      1  0.4520040000000  0.5037970000000  0.4550400000000 1.0
C      1  0.4780920000000  0.4717170000000  0.4321670000000 1.0
C      1  0.5669180000000  0.4706250000000  0.4858010000000 1.0
C      1  0.4817610000000  0.5652590000000  0.5273780000000 1.0
C      1  0.4993720000000  0.5132460000000  0.5071800000000 1.0
C      1  0.4278580000000  0.5157110000000  0.4969620000000 1.0
C      1  0.5153840000000  0.4901340000000  0.5007610000000 1.0
C      1  0.5685060000000  0.5137370000000  0.5153260000000 1.0
C      1  0.5516800000000  0.4896600000000  0.4681100000000 1.0
C      1  0.5202450000000  0.4458090000000  0.5580330000000 1.0
C      1  0.4665670000000  0.5657010000000  0.4792730000000 1.0
C      1  0.5082790000000  0.4794200000000  0.4352560000000 1.0
C      1  0.4289320000000  0.5159650000000  0.4678460000000 1.0
C      1  0.4898540000000  0.5311800000000  0.4282490000000 1.0
C      1  0.4783350000000  0.5198690000000  0.4574120000000 1.0
C      1  0.4938700000000  0.4407360000000  0.4978940000000 1.0
C      1  0.5311970000000  0.5317830000000  0.4545910000000 1.0
C      1  0.4508500000000  0.4523570000000  0.5166180000000 1.0
C      1  0.4582700000000  0.5247880000000  0.5386360000000 1.0
C      1  0.4371580000000  0.4642600000000  0.4854890000000 1.0
C      1  0.5574480000000  0.5188030000000  0.4655550000000 1.0
C      1  0.4860400000000  0.5068550000000  0.5856180000000 1.0
END
