TITL C-3985250-725-408 6.32902241239894e-07 125000 -351.847707214408 0 0 60 (C4h) n - 1
REM
REM in /home/nfs/bkarasulu/CARBON/AIRSS/Generating-Clusters/TERSOFF/Higher-Symm/Only-C60
REM
REM
REM
REM
REM
REM ./C.cell (28575a23ae977d3b5fae324c64b13b57)
REM
REM compiler GCC version 9.2.1 20190827 (Red Hat 9.2.1-1)
REM options -cpp -mtune=generic -march=x86-64 -g -O0 -fpre-include=/usr/include/finclude/math-vector-fortran.h
REM seed -1663236230 921493150 746245700 -1013118775 -772670223 -1408814089 1699115291 174387268 1535299849 -1127125993 1298280335 1013773046 900807738 -1683858984 -785690334 -1402346664 108623411 -1829793325 1289478567 1196426428 1867855537 -454139641 761113137 -793564387 146299855 -1716022495 -429573337 2081473236 1536178504 -360826668 1673450627 607970203 1774432422
REM
CELL 1.54180   50.00000   50.00000   50.00000   90.00000   90.00000   90.00000
LATT -1
SFAC C  
C      1  0.5682060000000  0.4946180000000  0.4783930000000 1.0
C      1  0.5682060000000  0.5216070000000  0.4946180000000 1.0
C      1  0.5682060000000  0.5053820000000  0.5216070000000 1.0
C      1  0.5682060000000  0.4783930000000  0.5053820000000 1.0
C      1  0.4315090000000  0.4946180000000  0.4783930000000 1.0
C      1  0.4315090000000  0.5216070000000  0.4946180000000 1.0
C      1  0.4315090000000  0.5053820000000  0.5216070000000 1.0
C      1  0.4315090000000  0.4783930000000  0.5053820000000 1.0
C      1  0.4743340000000  0.5305300000000  0.5344820000000 1.0
C      1  0.4743340000000  0.4655180000000  0.5305300000000 1.0
C      1  0.4743340000000  0.4694700000000  0.4655180000000 1.0
C      1  0.4743340000000  0.5344820000000  0.4694700000000 1.0
C      1  0.5253810000000  0.5305300000000  0.5344820000000 1.0
C      1  0.5253810000000  0.4655180000000  0.5305300000000 1.0
C      1  0.5253810000000  0.4694700000000  0.4655180000000 1.0
C      1  0.5253810000000  0.5344820000000  0.4694700000000 1.0
C      1  0.4844540000000  0.4388800000000  0.5407130000000 1.0
C      1  0.4844540000000  0.4592870000000  0.4388800000000 1.0
C      1  0.4844540000000  0.5611200000000  0.4592870000000 1.0
C      1  0.4844540000000  0.5407130000000  0.5611200000000 1.0
C      1  0.5152600000000  0.4388800000000  0.5407130000000 1.0
C      1  0.5152600000000  0.4592870000000  0.4388800000000 1.0
C      1  0.5152600000000  0.5611200000000  0.4592870000000 1.0
C      1  0.5152600000000  0.5407130000000  0.5611200000000 1.0
C      1  0.4833920000000  0.4901600000000  0.5749430000000 1.0
C      1  0.4833920000000  0.4250570000000  0.4901600000000 1.0
C      1  0.4833920000000  0.5098400000000  0.4250570000000 1.0
C      1  0.4833920000000  0.5749430000000  0.5098400000000 1.0
C      1  0.5163220000000  0.4901600000000  0.5749430000000 1.0
C      1  0.5163220000000  0.4250570000000  0.4901600000000 1.0
C      1  0.5163220000000  0.5098400000000  0.4250570000000 1.0
C      1  0.5163220000000  0.5749430000000  0.5098400000000 1.0
C      1  0.5166720000000  0.4139710000000  0.5202790000000 1.0
C      1  0.5166720000000  0.4797210000000  0.4139710000000 1.0
C      1  0.5166720000000  0.5860290000000  0.4797210000000 1.0
C      1  0.5166720000000  0.5202790000000  0.5860290000000 1.0
C      1  0.4830420000000  0.4139710000000  0.5202790000000 1.0
C      1  0.4830420000000  0.4797210000000  0.4139710000000 1.0
C      1  0.4830420000000  0.5860290000000  0.4797210000000 1.0
C      1  0.4830420000000  0.5202790000000  0.5860290000000 1.0
C      1  0.4662280000000  0.5513520000000  0.5147830000000 1.0
C      1  0.4662280000000  0.4852170000000  0.5513520000000 1.0
C      1  0.4662280000000  0.4486480000000  0.4852170000000 1.0
C      1  0.4662280000000  0.5147830000000  0.4486480000000 1.0
C      1  0.5334870000000  0.5513520000000  0.5147830000000 1.0
C      1  0.5334870000000  0.4852170000000  0.5513520000000 1.0
C      1  0.5334870000000  0.4486480000000  0.4852170000000 1.0
C      1  0.5334870000000  0.5147830000000  0.4486480000000 1.0
C      1  0.4539880000000  0.5090170000000  0.5397680000000 1.0
C      1  0.4539880000000  0.4602320000000  0.5090170000000 1.0
C      1  0.4539880000000  0.4909830000000  0.4602320000000 1.0
C      1  0.4539880000000  0.5397680000000  0.4909830000000 1.0
C      1  0.5457260000000  0.5090170000000  0.5397680000000 1.0
C      1  0.5457260000000  0.4602320000000  0.5090170000000 1.0
C      1  0.5457260000000  0.4909830000000  0.4602320000000 1.0
C      1  0.5457260000000  0.5397680000000  0.4909830000000 1.0
C      1  0.4998570000000  0.5194880000000  0.4835690000000 1.0
C      1  0.4998570000000  0.4805120000000  0.5164310000000 1.0
C      1  0.4998570000000  0.5164310000000  0.5194880000000 1.0
C      1  0.4998570000000  0.4835690000000  0.4805120000000 1.0
END
