TITL C-3985253-1688-1050 -0.00104618490615814 125000 -340.515740471642 0 0 60 (Cs) n - 1
REM
REM in /home/nfs/bkarasulu/CARBON/AIRSS/Generating-Clusters/TERSOFF/Higher-Symm/Only-C60
REM
REM
REM
REM
REM
REM ./C.cell (28575a23ae977d3b5fae324c64b13b57)
REM
REM compiler GCC version 9.2.1 20190827 (Red Hat 9.2.1-1)
REM options -cpp -mtune=generic -march=x86-64 -g -O0 -fpre-include=/usr/include/finclude/math-vector-fortran.h
REM seed -80811953 -1224840293 2039161866 -1209153407 -1460808688 1677328078 1089406962 1187728274 904540862 -1618977104 -1886004227 -914889241 -1641328845 495747043 105024718 -2105549842 610947619 -736322250 -1389568433 1060644750 -2039367018 -1123828895 28416319 -2032735973 2040078513 -2056258342 -1112551435 1393483158 -1418713471 1468520375 -859098316 911939460 365267956
REM
CELL 1.54180   50.00000   50.00000   50.00000   90.00000   90.00000   90.00000
LATT -1
SFAC C  
C      1  0.5635970000000  0.5287700000000  0.5481230000000 1.0
C      1  0.5635970000000  0.5287700000000  0.4518770000000 1.0
C      1  0.5572380000000  0.5022850000000  0.4840050000000 1.0
C      1  0.5572380000000  0.5022850000000  0.5159950000000 1.0
C      1  0.5364050000000  0.4533170000000  0.4826490000000 1.0
C      1  0.5364060000000  0.4533170000000  0.5173510000000 1.0
C      1  0.5123570000000  0.4436000000000  0.4654640000000 1.0
C      1  0.5123530000000  0.4435690000000  0.5345520000000 1.0
C      1  0.4528930000000  0.4614380000000  0.4587190000000 1.0
C      1  0.4528930000000  0.4614390000000  0.5412810000000 1.0
C      1  0.5651730000000  0.4708090000000  0.4834910000000 1.0
C      1  0.5651730000000  0.4708090000000  0.5165090000000 1.0
C      1  0.5059990000000  0.4667200000000  0.5568310000000 1.0
C      1  0.5060120000000  0.4667080000000  0.4431450000000 1.0
C      1  0.5149330000000  0.5239090000000  0.4367350000000 1.0
C      1  0.5149330000000  0.5239090000000  0.5632650000000 1.0
C      1  0.4622430000000  0.4363770000000  0.5293320000000 1.0
C      1  0.4622430000000  0.4363770000000  0.4706690000000 1.0
C      1  0.4860800000000  0.5300030000000  0.5594530000000 1.0
C      1  0.4860800000000  0.5300030000000  0.4405470000000 1.0
C      1  0.4336060000000  0.5020310000000  0.4848740000000 1.0
C      1  0.4336060000000  0.5020310000000  0.5151260000000 1.0
C      1  0.5180940000000  0.5768450000000  0.5142950000000 1.0
C      1  0.5180940000000  0.5768450000000  0.4857050000000 1.0
C      1  0.5074250000000  0.5539960000000  0.4717260000000 1.0
C      1  0.5074250000000  0.5539960000000  0.5282740000000 1.0
C      1  0.4292800000000  0.4752170000000  0.4713640000000 1.0
C      1  0.4292800000000  0.4752170000000  0.5286360000000 1.0
C      1  0.4557030000000  0.5503680000000  0.5172430000000 1.0
C      1  0.4557030000000  0.5503680000000  0.4827570000000 1.0
C      1  0.5754860000000  0.5288140000000  0.4819190000000 1.0
C      1  0.5754860000000  0.5288140000000  0.5180810000000 1.0
C      1  0.5105060000000  0.5268760000000  0.5163120000000 1.0
C      1  0.5105060000000  0.5268760000000  0.4836880000000 1.0
C      1  0.4816550000000  0.5107890000000  0.5150350000000 1.0
C      1  0.4816550000000  0.5107890000000  0.4849650000000 1.0
C      1  0.4793740000000  0.5535510000000  0.4606750000000 1.0
C      1  0.4793740000000  0.5535510000000  0.5393250000000 1.0
C      1  0.4885940000000  0.4339210000000  0.4836120000000 1.0
C      1  0.4885940000000  0.4339210000000  0.5163880000000 1.0
C      1  0.5255800000000  0.4939440000000  0.4416070000000 1.0
C      1  0.5255800000000  0.4939440000000  0.5583940000000 1.0
C      1  0.5565760000000  0.5013200000000  0.4402450000000 1.0
C      1  0.5565760000000  0.5013200000000  0.5597550000000 1.0
C      1  0.4552950000000  0.5204550000000  0.4757620000000 1.0
C      1  0.4552950000000  0.5204550000000  0.5242380000000 1.0
C      1  0.4688760000000  0.5060070000000  0.5624120000000 1.0
C      1  0.4688760000000  0.5060070000000  0.4375880000000 1.0
C      1  0.4877000000000  0.4840310000000  0.4766920000000 1.0
C      1  0.4877130000000  0.4840180000000  0.5233330000000 1.0
C      1  0.5165780000000  0.4804740000000  0.5150390000000 1.0
C      1  0.5165750000000  0.4804420000000  0.4849440000000 1.0
C      1  0.4760080000000  0.4786100000000  0.4487270000000 1.0
C      1  0.4760080000000  0.4786100000000  0.5512730000000 1.0
C      1  0.4097370000000  0.4585840000000  0.5144550000000 1.0
C      1  0.4097370000000  0.4585840000000  0.4855450000000 1.0
C      1  0.5296910000000  0.5044700000000  0.5273760000000 1.0
C      1  0.5296910000000  0.5044710000000  0.4726240000000 1.0
C      1  0.5373080000000  0.5425110000000  0.4445760000000 1.0
C      1  0.5373080000000  0.5425110000000  0.5554240000000 1.0
END
