TITL C-3985244-725-726 -1.70750363112563e-07 125000 -339.099659249654 0 0 60 (C1) n - 1
REM
REM in /home/nfs/bkarasulu/CARBON/AIRSS/Generating-Clusters/TERSOFF/Higher-Symm/Only-C60
REM
REM
REM
REM
REM
REM ./C.cell (28575a23ae977d3b5fae324c64b13b57)
REM
REM compiler GCC version 9.2.1 20190827 (Red Hat 9.2.1-1)
REM options -cpp -mtune=generic -march=x86-64 -g -O0 -fpre-include=/usr/include/finclude/math-vector-fortran.h
REM seed -888423757 1844855030 -436216158 1772124673 -444792977 1145365261 2008260692 -2034076412 281576832 1670725723 -2063396703 -295161792 1425317559 1508281214 -1038384064 1113915044 -1547131902 -385266203 -1969464693 -2069450063 -1560976938 1229102944 -134164680 622303782 -1633758318 -505534664 1274024015 -151250700 2080655557 467457409 -316430118 910695619 -713217902
REM
CELL 1.54180   50.00000   50.00000   50.00000   90.00000   90.00000   90.00000
LATT -1
SFAC C  
C      1  0.4744520000000  0.5594550000000  0.5148220000000 1.0
C      1  0.5078920000000  0.5583410000000  0.4775080000000 1.0
C      1  0.5059620000000  0.5652440000000  0.5097860000000 1.0
C      1  0.4906150000000  0.5352030000000  0.4690710000000 1.0
C      1  0.5300860000000  0.5384140000000  0.5080580000000 1.0
C      1  0.4742840000000  0.5331520000000  0.5276830000000 1.0
C      1  0.4511750000000  0.5184990000000  0.5400390000000 1.0
C      1  0.4906150000000  0.5184460000000  0.4434530000000 1.0
C      1  0.5549110000000  0.5189490000000  0.5175160000000 1.0
C      1  0.5454810000000  0.5335190000000  0.4600590000000 1.0
C      1  0.5149650000000  0.5342760000000  0.5536630000000 1.0
C      1  0.4428120000000  0.5365250000000  0.4836980000000 1.0
C      1  0.5167310000000  0.5615670000000  0.5404330000000 1.0
C      1  0.4535310000000  0.5626630000000  0.4946300000000 1.0
C      1  0.5335000000000  0.5605110000000  0.4637220000000 1.0
C      1  0.5030760000000  0.4917930000000  0.5177830000000 1.0
C      1  0.4751620000000  0.4946620000000  0.4948470000000 1.0
C      1  0.5249970000000  0.4923710000000  0.4886740000000 1.0
C      1  0.4200150000000  0.4636470000000  0.4959820000000 1.0
C      1  0.5423640000000  0.4627270000000  0.4380440000000 1.0
C      1  0.5351080000000  0.4623830000000  0.5652190000000 1.0
C      1  0.4757970000000  0.4459400000000  0.5105590000000 1.0
C      1  0.4966630000000  0.4460490000000  0.4858740000000 1.0
C      1  0.5250660000000  0.4455040000000  0.5031250000000 1.0
C      1  0.4631930000000  0.5048330000000  0.4461740000000 1.0
C      1  0.5689670000000  0.5058160000000  0.4942690000000 1.0
C      1  0.4711860000000  0.5037790000000  0.5590630000000 1.0
C      1  0.5144170000000  0.5032390000000  0.4341640000000 1.0
C      1  0.5527670000000  0.5037600000000  0.5430690000000 1.0
C      1  0.4304250000000  0.5049580000000  0.5237220000000 1.0
C      1  0.4735040000000  0.4531480000000  0.5422480000000 1.0
C      1  0.4756370000000  0.4535890000000  0.4592650000000 1.0
C      1  0.5555680000000  0.4532530000000  0.4986100000000 1.0
C      1  0.4438520000000  0.4581560000000  0.5444140000000 1.0
C      1  0.4915780000000  0.4562850000000  0.4345810000000 1.0
C      1  0.5678490000000  0.4570970000000  0.5253340000000 1.0
C      1  0.5159080000000  0.5035630000000  0.5822700000000 1.0
C      1  0.4186020000000  0.5050070000000  0.4702000000000 1.0
C      1  0.5691540000000  0.5033400000000  0.4430560000000 1.0
C      1  0.4910330000000  0.5217770000000  0.5743960000000 1.0
C      1  0.4392110000000  0.5229240000000  0.4533590000000 1.0
C      1  0.5743580000000  0.5227580000000  0.4691100000000 1.0
C      1  0.4325430000000  0.4748980000000  0.5213650000000 1.0
C      1  0.5151250000000  0.4735160000000  0.4407890000000 1.0
C      1  0.5485990000000  0.4735970000000  0.5413640000000 1.0
C      1  0.5282180000000  0.5220180000000  0.4830950000000 1.0
C      1  0.4995820000000  0.5205280000000  0.5306810000000 1.0
C      1  0.4708630000000  0.5239660000000  0.4868710000000 1.0
C      1  0.5105890000000  0.4763890000000  0.5714340000000 1.0
C      1  0.4291020000000  0.4771770000000  0.4715680000000 1.0
C      1  0.5624490000000  0.4764570000000  0.4537820000000 1.0
C      1  0.5406480000000  0.5175540000000  0.4338140000000 1.0
C      1  0.5389690000000  0.5179400000000  0.5648970000000 1.0
C      1  0.4210660000000  0.5195510000000  0.4993160000000 1.0
C      1  0.5556940000000  0.4791300000000  0.4836180000000 1.0
C      1  0.4889000000000  0.4785270000000  0.5485180000000 1.0
C      1  0.4605090000000  0.4791250000000  0.4657570000000 1.0
C      1  0.5109950000000  0.4726720000000  0.4713780000000 1.0
C      1  0.5238850000000  0.4685010000000  0.5232030000000 1.0
C      1  0.4597960000000  0.4713320000000  0.5069930000000 1.0
END
