TITL C-3985259-1859-481 -1.34663446263678e-08 125000 -348.143999181424 0 0 60 (C2h) n - 1
REM
REM in /home/nfs/bkarasulu/CARBON/AIRSS/Generating-Clusters/TERSOFF/Higher-Symm/Only-C60
REM
REM
REM
REM
REM
REM ./C.cell (28575a23ae977d3b5fae324c64b13b57)
REM
REM compiler GCC version 9.2.1 20190827 (Red Hat 9.2.1-1)
REM options -cpp -mtune=generic -march=x86-64 -g -O0 -fpre-include=/usr/include/finclude/math-vector-fortran.h
REM seed -1777923944 210721910 -1240356544 -1873948844 -378238022 678688858 369060522 1506245514 1092077753 -1677509987 933911807 929857110 -478900222 878642498 325678040 2004839448 138494295 -2082934486 2126004869 -748529788 1326489920 1807869594 568397584 -1175901025 684778379 1446246388 -1971717563 -769657140 472842995 109271386 1885947672 -1099769475 -291792369
REM
CELL 1.54180   50.00000   50.00000   50.00000   90.00000   90.00000   90.00000
LATT -1
SFAC C  
C      1  0.4243810000000  0.4795870000000  0.5148710000000 1.0
C      1  0.5756190000000  0.5204130000000  0.5148710000000 1.0
C      1  0.4243810000000  0.4795870000000  0.4851290000000 1.0
C      1  0.5756190000000  0.5204130000000  0.4851290000000 1.0
C      1  0.4810990000000  0.4453050000000  0.5573840000000 1.0
C      1  0.5189010000000  0.5546950000000  0.5573840000000 1.0
C      1  0.4810990000000  0.4453050000000  0.4426160000000 1.0
C      1  0.5189010000000  0.5546950000000  0.4426160000000 1.0
C      1  0.4528370000000  0.4608730000000  0.5548980000000 1.0
C      1  0.5471630000000  0.5391270000000  0.5548980000000 1.0
C      1  0.4528370000000  0.4608730000000  0.4451020000000 1.0
C      1  0.5471630000000  0.5391270000000  0.4451020000000 1.0
C      1  0.5408890000000  0.4876390000000  0.5636540000000 1.0
C      1  0.4591110000000  0.5123610000000  0.5636540000000 1.0
C      1  0.5408890000000  0.4876390000000  0.4363460000000 1.0
C      1  0.4591110000000  0.5123610000000  0.4363460000000 1.0
C      1  0.5260440000000  0.5133300000000  0.4417250000000 1.0
C      1  0.4739560000000  0.4866700000000  0.4417250000000 1.0
C      1  0.5260440000000  0.5133300000000  0.5582750000000 1.0
C      1  0.4739560000000  0.4866700000000  0.5582750000000 1.0
C      1  0.5083160000000  0.5514950000000  0.4709220000000 1.0
C      1  0.4916840000000  0.4485050000000  0.4709220000000 1.0
C      1  0.5083160000000  0.5514950000000  0.5290780000000 1.0
C      1  0.4916840000000  0.4485050000000  0.5290780000000 1.0
C      1  0.4958460000000  0.4659000000000  0.4234910000000 1.0
C      1  0.5041540000000  0.5341000000000  0.4234910000000 1.0
C      1  0.4958460000000  0.4659000000000  0.5765090000000 1.0
C      1  0.5041540000000  0.5341000000000  0.5765090000000 1.0
C      1  0.5326730000000  0.4772080000000  0.5164020000000 1.0
C      1  0.4673270000000  0.5227920000000  0.5164020000000 1.0
C      1  0.5326730000000  0.4772080000000  0.4835980000000 1.0
C      1  0.4673270000000  0.5227920000000  0.4835980000000 1.0
C      1  0.4445600000000  0.5199200000000  0.4625810000000 1.0
C      1  0.5554400000000  0.4800800000000  0.4625810000000 1.0
C      1  0.4445600000000  0.5199200000000  0.5374190000000 1.0
C      1  0.5554400000000  0.4800800000000  0.5374190000000 1.0
C      1  0.4801860000000  0.5487890000000  0.4756950000000 1.0
C      1  0.5198140000000  0.4512110000000  0.4756950000000 1.0
C      1  0.4801860000000  0.5487890000000  0.5243050000000 1.0
C      1  0.5198140000000  0.4512110000000  0.5243050000000 1.0
C      1  0.5253570000000  0.5312870000000  0.5145100000000 1.0
C      1  0.4746430000000  0.4687130000000  0.5145100000000 1.0
C      1  0.5253570000000  0.5312870000000  0.4854900000000 1.0
C      1  0.4746430000000  0.4687130000000  0.4854900000000 1.0
C      1  0.5533680000000  0.5363620000000  0.4743650000000 1.0
C      1  0.4466320000000  0.4636380000000  0.4743650000000 1.0
C      1  0.5533680000000  0.5363620000000  0.5256350000000 1.0
C      1  0.4466320000000  0.4636380000000  0.5256350000000 1.0
C      1  0.4211790000000  0.5048940000000  0.4711520000000 1.0
C      1  0.5788210000000  0.4951060000000  0.4711520000000 1.0
C      1  0.4211790000000  0.5048940000000  0.5288480000000 1.0
C      1  0.5788210000000  0.4951060000000  0.5288480000000 1.0
C      1  0.5250550000000  0.4681420000000  0.4218090000000 1.0
C      1  0.4749450000000  0.5318580000000  0.4218090000000 1.0
C      1  0.5250550000000  0.4681420000000  0.5781910000000 1.0
C      1  0.4749450000000  0.5318580000000  0.5781910000000 1.0
C      1  0.5152970000000  0.5030820000000  0.5275120000000 1.0
C      1  0.4847030000000  0.4969180000000  0.5275120000000 1.0
C      1  0.5152970000000  0.5030820000000  0.4724880000000 1.0
C      1  0.4847030000000  0.4969180000000  0.4724880000000 1.0
END
