TITL C-3985245-9316-866 -0.000195491546650573 125000 -328.888462166584 0 0 60 (C1) n - 1
REM
REM in /home/nfs/bkarasulu/CARBON/AIRSS/Generating-Clusters/TERSOFF/Higher-Symm/Only-C60
REM
REM
REM
REM
REM
REM ./C.cell (28575a23ae977d3b5fae324c64b13b57)
REM
REM compiler GCC version 9.2.1 20190827 (Red Hat 9.2.1-1)
REM options -cpp -mtune=generic -march=x86-64 -g -O0 -fpre-include=/usr/include/finclude/math-vector-fortran.h
REM seed -935500150 -1755970998 1651090168 -864777658 -1032483544 -291985187 -960582425 -141042944 -1407650434 457524156 1148479337 1215046609 -2039050830 -1170968411 1370853889 -633805774 -1322490234 -794106911 640247439 -364354705 -1225298138 -158360723 108190764 1899906612 -1933189872 822251648 1341205381 -1334958073 -544744852 1177216817 1710150101 -2071602972 500144144
REM
CELL 1.54180   50.00000   50.00000   50.00000   90.00000   90.00000   90.00000
LATT -1
SFAC C  
C      1  0.4901250000000  0.4418380000000  0.4373410000000 1.0
C      1  0.5404710000000  0.4451170000000  0.4566430000000 1.0
C      1  0.5600950000000  0.4504830000000  0.5087660000000 1.0
C      1  0.5309640000000  0.4421850000000  0.5536990000000 1.0
C      1  0.4767360000000  0.4467770000000  0.5597500000000 1.0
C      1  0.4381250000000  0.4435310000000  0.5212220000000 1.0
C      1  0.4438050000000  0.4394920000000  0.4670040000000 1.0
C      1  0.5712530000000  0.5471540000000  0.4974210000000 1.0
C      1  0.5519360000000  0.5427840000000  0.5516790000000 1.0
C      1  0.4965830000000  0.5423110000000  0.5637540000000 1.0
C      1  0.4497000000000  0.5429480000000  0.5342310000000 1.0
C      1  0.4365230000000  0.5384280000000  0.4804970000000 1.0
C      1  0.4728330000000  0.5398300000000  0.4388610000000 1.0
C      1  0.5295410000000  0.5466540000000  0.4508940000000 1.0
C      1  0.5429830000000  0.5059820000000  0.4832600000000 1.0
C      1  0.5347240000000  0.5186240000000  0.5118620000000 1.0
C      1  0.5187520000000  0.5044270000000  0.5340410000000 1.0
C      1  0.4861080000000  0.5040480000000  0.5332280000000 1.0
C      1  0.4649370000000  0.5001840000000  0.5074250000000 1.0
C      1  0.4691950000000  0.4977020000000  0.4739970000000 1.0
C      1  0.4994740000000  0.5001860000000  0.4547150000000 1.0
C      1  0.4679770000000  0.4718650000000  0.5710780000000 1.0
C      1  0.4259500000000  0.4688620000000  0.5276610000000 1.0
C      1  0.4310750000000  0.4638200000000  0.4578000000000 1.0
C      1  0.4796260000000  0.4649130000000  0.4225980000000 1.0
C      1  0.5427710000000  0.4707310000000  0.4444600000000 1.0
C      1  0.5774020000000  0.4692990000000  0.4941260000000 1.0
C      1  0.5393440000000  0.4666440000000  0.5668240000000 1.0
C      1  0.4610710000000  0.5277670000000  0.4649040000000 1.0
C      1  0.5008200000000  0.5319470000000  0.4502340000000 1.0
C      1  0.5472490000000  0.5373850000000  0.4764460000000 1.0
C      1  0.5505620000000  0.5420570000000  0.5203120000000 1.0
C      1  0.5223250000000  0.5304600000000  0.5524850000000 1.0
C      1  0.4809660000000  0.5373320000000  0.5365280000000 1.0
C      1  0.4516620000000  0.5296560000000  0.5061720000000 1.0
C      1  0.5407880000000  0.4927670000000  0.5539780000000 1.0
C      1  0.4765350000000  0.4978980000000  0.5620050000000 1.0
C      1  0.4391640000000  0.4945060000000  0.5254560000000 1.0
C      1  0.4399810000000  0.4906370000000  0.4643430000000 1.0
C      1  0.4861020000000  0.4925570000000  0.4284500000000 1.0
C      1  0.5312650000000  0.4955580000000  0.4554580000000 1.0
C      1  0.5708590000000  0.4970540000000  0.4886960000000 1.0
C      1  0.5394720000000  0.5199490000000  0.4390330000000 1.0
C      1  0.5876660000000  0.5206540000000  0.4955910000000 1.0
C      1  0.5599140000000  0.5141940000000  0.5617360000000 1.0
C      1  0.4825760000000  0.5206640000000  0.5798560000000 1.0
C      1  0.4326990000000  0.5182500000000  0.5418680000000 1.0
C      1  0.4217880000000  0.5135560000000  0.4692270000000 1.0
C      1  0.4710670000000  0.5163840000000  0.4185530000000 1.0
C      1  0.5154630000000  0.4410730000000  0.5290260000000 1.0
C      1  0.4863640000000  0.4432890000000  0.5323150000000 1.0
C      1  0.4655180000000  0.4402860000000  0.5116980000000 1.0
C      1  0.4686070000000  0.4385070000000  0.4824730000000 1.0
C      1  0.4933380000000  0.4405210000000  0.4668780000000 1.0
C      1  0.5211810000000  0.4397630000000  0.4773090000000 1.0
C      1  0.5307350000000  0.4459180000000  0.5045080000000 1.0
C      1  0.5083320000000  0.5696170000000  0.5073080000000 1.0
C      1  0.4963860000000  0.5434370000000  0.5114080000000 1.0
C      1  0.5048110000000  0.4938670000000  0.4958870000000 1.0
C      1  0.4985390000000  0.5225100000000  0.4909110000000 1.0
END
