TITL C-3985247-764-61 -0.00014829380403811 125000 -304.960898379817 0 0 60 (C2) n - 1
REM
REM in /home/nfs/bkarasulu/CARBON/AIRSS/Generating-Clusters/TERSOFF/Higher-Symm/Only-C60
REM
REM
REM
REM
REM
REM ./C.cell (28575a23ae977d3b5fae324c64b13b57)
REM
REM compiler GCC version 9.2.1 20190827 (Red Hat 9.2.1-1)
REM options -cpp -mtune=generic -march=x86-64 -g -O0 -fpre-include=/usr/include/finclude/math-vector-fortran.h
REM seed 2074875092 1044479946 1341082221 -800288002 1805184244 -684638871 -495651344 -1049459631 -842625001 793045763 -23865660 -708047544 -881463637 1774326485 1423863259 1434826844 -1206720819 1933740848 1834873202 -1143718050 -364242034 1805898167 770708422 1339241235 654883469 -1024808663 -1611005751 -487276223 -1971036657 -421224976 295504248 -870550242 -1644152325
REM
CELL 1.54180   50.00000   50.00000   50.00000   90.00000   90.00000   90.00000
LATT -1
SFAC C  
C      1  0.5830430000000  0.4844180000000  0.5158140000000 1.0
C      1  0.4172780000000  0.5156080000000  0.5163900000000 1.0
C      1  0.5827290000000  0.4842570000000  0.4835010000000 1.0
C      1  0.4171830000000  0.5159780000000  0.4840840000000 1.0
C      1  0.5827940000000  0.5159830000000  0.5159160000000 1.0
C      1  0.4173000000000  0.4842830000000  0.5164970000000 1.0
C      1  0.5827080000000  0.5155740000000  0.4836200000000 1.0
C      1  0.4169790000000  0.4844180000000  0.4841930000000 1.0
C      1  0.5163070000000  0.4781710000000  0.4428720000000 1.0
C      1  0.4836380000000  0.5206750000000  0.4407790000000 1.0
C      1  0.5167440000000  0.4779120000000  0.5572150000000 1.0
C      1  0.4837850000000  0.5230330000000  0.5552220000000 1.0
C      1  0.5162690000000  0.5229220000000  0.4446880000000 1.0
C      1  0.4832760000000  0.4779910000000  0.4426580000000 1.0
C      1  0.5163240000000  0.5205480000000  0.5594110000000 1.0
C      1  0.4837140000000  0.4782610000000  0.5572520000000 1.0
C      1  0.4415430000000  0.4765710000000  0.4694400000000 1.0
C      1  0.5578480000000  0.5234580000000  0.4692160000000 1.0
C      1  0.4424440000000  0.4769030000000  0.5306750000000 1.0
C      1  0.5576990000000  0.5232900000000  0.5304180000000 1.0
C      1  0.4422510000000  0.5233240000000  0.4695640000000 1.0
C      1  0.5575870000000  0.4768580000000  0.4693010000000 1.0
C      1  0.4420690000000  0.5234700000000  0.5307900000000 1.0
C      1  0.5584860000000  0.4765390000000  0.5305830000000 1.0
C      1  0.5287590000000  0.5168680000000  0.4843190000000 1.0
C      1  0.4705270000000  0.4829850000000  0.4839240000000 1.0
C      1  0.5291950000000  0.5157010000000  0.5154740000000 1.0
C      1  0.4710020000000  0.4838490000000  0.5152640000000 1.0
C      1  0.5290530000000  0.4837170000000  0.4847300000000 1.0
C      1  0.4707400000000  0.5157950000000  0.4845270000000 1.0
C      1  0.5295290000000  0.4828890000000  0.5160730000000 1.0
C      1  0.4709990000000  0.5172630000000  0.5157160000000 1.0
C      1  0.5460120000000  0.5530770000000  0.4696440000000 1.0
C      1  0.4539210000000  0.4470750000000  0.4691010000000 1.0
C      1  0.5460700000000  0.5534010000000  0.5325620000000 1.0
C      1  0.4539520000000  0.4469060000000  0.5316570000000 1.0
C      1  0.5460910000000  0.4468520000000  0.4684130000000 1.0
C      1  0.4538410000000  0.5534620000000  0.4674640000000 1.0
C      1  0.5461320000000  0.4470270000000  0.5308600000000 1.0
C      1  0.4540550000000  0.5528950000000  0.5302520000000 1.0
C      1  0.4839090000000  0.4584250000000  0.5317990000000 1.0
C      1  0.5165700000000  0.5397280000000  0.5334890000000 1.0
C      1  0.4842320000000  0.4576180000000  0.4679680000000 1.0
C      1  0.5150980000000  0.5439680000000  0.4696130000000 1.0
C      1  0.4849970000000  0.5441220000000  0.5302630000000 1.0
C      1  0.5157810000000  0.4575000000000  0.5319520000000 1.0
C      1  0.4833930000000  0.5399330000000  0.4666290000000 1.0
C      1  0.5161100000000  0.4583110000000  0.4682670000000 1.0
C      1  0.4459650000000  0.5757870000000  0.4847350000000 1.0
C      1  0.5554840000000  0.4249530000000  0.4851530000000 1.0
C      1  0.4435750000000  0.5741150000000  0.5137260000000 1.0
C      1  0.5554640000000  0.4250610000000  0.5143310000000 1.0
C      1  0.4446360000000  0.4250950000000  0.4856750000000 1.0
C      1  0.5564840000000  0.5743470000000  0.4862110000000 1.0
C      1  0.4446220000000  0.4249930000000  0.5148450000000 1.0
C      1  0.5537560000000  0.5756700000000  0.5152850000000 1.0
C      1  0.5402330000000  0.5003150000000  0.4474830000000 1.0
C      1  0.4598000000000  0.5004000000000  0.5524930000000 1.0
C      1  0.5415740000000  0.4997010000000  0.5527570000000 1.0
C      1  0.4584410000000  0.4997470000000  0.4472490000000 1.0
END
