TITL C-3985259-1859-156 7.3915899461085e-08 125000 -346.451462382107 0 0 60 (C3h) n - 1
REM
REM in /home/nfs/bkarasulu/CARBON/AIRSS/Generating-Clusters/TERSOFF/Higher-Symm/Only-C60
REM
REM
REM
REM
REM
REM ./C.cell (28575a23ae977d3b5fae324c64b13b57)
REM
REM compiler GCC version 9.2.1 20190827 (Red Hat 9.2.1-1)
REM options -cpp -mtune=generic -march=x86-64 -g -O0 -fpre-include=/usr/include/finclude/math-vector-fortran.h
REM seed 913612580 -1706698871 1914604978 -644106965 -43176247 1136068871 -1526231936 1624171975 1138686748 192426644 166215865 119599644 -458941756 1840337670 -1625682328 -2032906390 -66767451 1953315877 662580563 187626821 -1511299781 832284468 458876039 -674744191 -498933389 -402697110 1410635195 -1485456877 -667988300 306239320 1021134168 899593963 -2033973689
REM
CELL 1.54180   50.00000   50.00000   50.00000   90.00000   90.00000   90.00000
LATT -1
SFAC C  
C      1  0.5292500000000  0.5504740000000  0.5447360000000 1.0
C      1  0.5292500000000  0.5135060000000  0.4339210000000 1.0
C      1  0.5292500000000  0.4360210000000  0.5213440000000 1.0
C      1  0.4707500000000  0.5504740000000  0.5447360000000 1.0
C      1  0.4707500000000  0.5135060000000  0.4339210000000 1.0
C      1  0.4707500000000  0.4360210000000  0.5213440000000 1.0
C      1  0.5148600000000  0.4453160000000  0.5497330000000 1.0
C      1  0.5148600000000  0.5704120000000  0.5224910000000 1.0
C      1  0.5148600000000  0.4842720000000  0.4277760000000 1.0
C      1  0.4851400000000  0.4453160000000  0.5497330000000 1.0
C      1  0.4851400000000  0.5704120000000  0.5224910000000 1.0
C      1  0.4851400000000  0.4842720000000  0.4277760000000 1.0
C      1  0.5335560000000  0.5299070000000  0.5236490000000 1.0
C      1  0.5335560000000  0.5055270000000  0.4622750000000 1.0
C      1  0.5335560000000  0.4645660000000  0.5140760000000 1.0
C      1  0.4664440000000  0.5299070000000  0.5236490000000 1.0
C      1  0.4664440000000  0.5055270000000  0.4622750000000 1.0
C      1  0.4664440000000  0.4645660000000  0.5140760000000 1.0
C      1  0.4720920000000  0.4736900000000  0.5638930000000 1.0
C      1  0.4720920000000  0.5684880000000  0.4908390000000 1.0
C      1  0.4720920000000  0.4578220000000  0.4452680000000 1.0
C      1  0.5279080000000  0.4736900000000  0.5638930000000 1.0
C      1  0.5279080000000  0.5684880000000  0.4908390000000 1.0
C      1  0.5279080000000  0.4578220000000  0.4452680000000 1.0
C      1  0.5145200000000  0.5028820000000  0.5719730000000 1.0
C      1  0.5145200000000  0.5608900000000  0.4615180000000 1.0
C      1  0.5145200000000  0.4362290000000  0.4665090000000 1.0
C      1  0.4854800000000  0.5028820000000  0.5719730000000 1.0
C      1  0.4854800000000  0.5608900000000  0.4615180000000 1.0
C      1  0.4854800000000  0.4362290000000  0.4665090000000 1.0
C      1  0.4848680000000  0.4708050000000  0.4916810000000 1.0
C      1  0.4848680000000  0.5073930000000  0.5294430000000 1.0
C      1  0.4848680000000  0.5218020000000  0.4788760000000 1.0
C      1  0.5151320000000  0.4708050000000  0.4916810000000 1.0
C      1  0.5151320000000  0.5073930000000  0.5294430000000 1.0
C      1  0.5151320000000  0.5218020000000  0.4788760000000 1.0
C      1  0.4374680000000  0.4723250000000  0.5090120000000 1.0
C      1  0.4374680000000  0.5216420000000  0.5194610000000 1.0
C      1  0.4374680000000  0.5060330000000  0.4715270000000 1.0
C      1  0.5625320000000  0.4723250000000  0.5090120000000 1.0
C      1  0.5625320000000  0.5216420000000  0.5194610000000 1.0
C      1  0.5625320000000  0.5060330000000  0.4715270000000 1.0
C      1  0.5288430000000  0.4238330000000  0.4910920000000 1.0
C      1  0.5288430000000  0.5303690000000  0.5704160000000 1.0
C      1  0.5288430000000  0.5457980000000  0.4384920000000 1.0
C      1  0.4711570000000  0.4238330000000  0.4910920000000 1.0
C      1  0.4711570000000  0.5303690000000  0.5704160000000 1.0
C      1  0.4711570000000  0.5457980000000  0.4384920000000 1.0
C      1  0.4726670000000  0.4778050000000  0.4673500000000 1.0
C      1  0.4726670000000  0.4828220000000  0.5355460000000 1.0
C      1  0.4726670000000  0.5393730000000  0.4971040000000 1.0
C      1  0.5273330000000  0.4778050000000  0.4673500000000 1.0
C      1  0.5273330000000  0.4828220000000  0.5355460000000 1.0
C      1  0.5273330000000  0.5393730000000  0.4971040000000 1.0
C      1  0.5699810000000  0.4943230000000  0.5273420000000 1.0
C      1  0.5699810000000  0.5265170000000  0.4912450000000 1.0
C      1  0.5699810000000  0.4791600000000  0.4814130000000 1.0
C      1  0.4300190000000  0.4943230000000  0.5273420000000 1.0
C      1  0.4300190000000  0.5265170000000  0.4912450000000 1.0
C      1  0.4300190000000  0.4791600000000  0.4814130000000 1.0
END
