TITL C-3985251-913-439 -0.000920903781530185 125000 -278.687048748585 0 0 60 (C4) n - 1
REM
REM in /home/nfs/bkarasulu/CARBON/AIRSS/Generating-Clusters/TERSOFF/Higher-Symm/Only-C60
REM
REM
REM
REM
REM
REM ./C.cell (28575a23ae977d3b5fae324c64b13b57)
REM
REM compiler GCC version 9.2.1 20190827 (Red Hat 9.2.1-1)
REM options -cpp -mtune=generic -march=x86-64 -g -O0 -fpre-include=/usr/include/finclude/math-vector-fortran.h
REM seed -1546936912 614276105 -733431261 677766385 -87936546 1573210003 -1421339207 1239311009 -71896035 -1029183175 -1514961764 174666962 1764653615 -184151098 1845133653 1572080845 1796387107 3322217 -1196465190 1099330360 1325803487 992525493 -528002361 1127689040 -1248000351 -1488044524 -358134332 -2105611801 214392333 -1232112071 -1560544649 -516659007 -899983750
REM
CELL 1.54180   50.00000   50.00000   50.00000   90.00000   90.00000   90.00000
LATT -1
SFAC C  
C      1  0.4921910000000  0.4768750000000  0.5592530000000 1.0
C      1  0.5231240000000  0.4921910000000  0.5592530000000 1.0
C      1  0.5078100000000  0.5231250000000  0.5592530000000 1.0
C      1  0.4768750000000  0.5078100000000  0.5592520000000 1.0
C      1  0.5314950000000  0.4808310000000  0.4864400000000 1.0
C      1  0.5191690000000  0.5314950000000  0.4864390000000 1.0
C      1  0.4685050000000  0.5191690000000  0.4864390000000 1.0
C      1  0.4808310000000  0.4685050000000  0.4864400000000 1.0
C      1  0.5514550000000  0.5322350000000  0.4686740000000 1.0
C      1  0.4677650000000  0.5514550000000  0.4686740000000 1.0
C      1  0.4485450000000  0.4677650000000  0.4686740000000 1.0
C      1  0.5322350000000  0.4485450000000  0.4686740000000 1.0
C      1  0.4325940000000  0.5401410000000  0.5048810000000 1.0
C      1  0.4598590000000  0.4325940000000  0.5048810000000 1.0
C      1  0.5674060000000  0.4598590000000  0.5048810000000 1.0
C      1  0.5401410000000  0.5674060000000  0.5048810000000 1.0
C      1  0.4324020000000  0.5001850000000  0.4682960000000 1.0
C      1  0.4998150000000  0.4324020000000  0.4682960000000 1.0
C      1  0.5675980000000  0.4998150000000  0.4682960000000 1.0
C      1  0.5001850000000  0.5675980000000  0.4682960000000 1.0
C      1  0.5073390000000  0.5595840000000  0.4984420000000 1.0
C      1  0.4404160000000  0.5073390000000  0.4984410000000 1.0
C      1  0.4926610000000  0.4404160000000  0.4984410000000 1.0
C      1  0.5595840000000  0.4926610000000  0.4984420000000 1.0
C      1  0.4636660000000  0.4347290000000  0.4687430000000 1.0
C      1  0.5652710000000  0.4636660000000  0.4687430000000 1.0
C      1  0.5363340000000  0.5652710000000  0.4687430000000 1.0
C      1  0.4347290000000  0.5363340000000  0.4687430000000 1.0
C      1  0.5153320000000  0.4842750000000  0.5111930000000 1.0
C      1  0.5157250000000  0.5153330000000  0.5111940000000 1.0
C      1  0.4846670000000  0.5157240000000  0.5111940000000 1.0
C      1  0.4842750000000  0.4846670000000  0.5111930000000 1.0
C      1  0.4847990000000  0.5596740000000  0.5211760000000 1.0
C      1  0.4403250000000  0.4848000000000  0.5211760000000 1.0
C      1  0.5152000000000  0.4403250000000  0.5211760000000 1.0
C      1  0.5596740000000  0.5152000000000  0.5211760000000 1.0
C      1  0.4731080000000  0.5318960000000  0.5342000000000 1.0
C      1  0.4681210000000  0.4730890000000  0.5342130000000 1.0
C      1  0.5269170000000  0.4681270000000  0.5342150000000 1.0
C      1  0.5318930000000  0.5268940000000  0.5342120000000 1.0
C      1  0.5403610000000  0.4419600000000  0.4996520000000 1.0
C      1  0.5580400000000  0.5403610000000  0.4996520000000 1.0
C      1  0.4596390000000  0.5580400000000  0.4996530000000 1.0
C      1  0.4419600000000  0.4596390000000  0.4996520000000 1.0
C      1  0.4773380000000  0.5086390000000  0.4576440000000 1.0
C      1  0.4913610000000  0.4773380000000  0.4576440000000 1.0
C      1  0.5226620000000  0.4913610000000  0.4576450000000 1.0
C      1  0.5086390000000  0.5226620000000  0.4576440000000 1.0
C      1  0.5581720000000  0.4660710000000  0.5343550000000 1.0
C      1  0.5339290000000  0.5581730000000  0.5343550000000 1.0
C      1  0.4418270000000  0.5339300000000  0.5343540000000 1.0
C      1  0.4660710000000  0.4418280000000  0.5343550000000 1.0
C      1  0.4951700000000  0.4433910000000  0.5462210000000 1.0
C      1  0.5565980000000  0.4951740000000  0.5462150000000 1.0
C      1  0.5048280000000  0.5566230000000  0.5462270000000 1.0
C      1  0.4433680000000  0.5048050000000  0.5462300000000 1.0
C      1  0.4815290000000  0.5381900000000  0.4408180000000 1.0
C      1  0.4618100000000  0.4815290000000  0.4408180000000 1.0
C      1  0.5184710000000  0.4618100000000  0.4408180000000 1.0
C      1  0.5381900000000  0.5184710000000  0.4408180000000 1.0
END
