TITL C-3985259-1859-573 0.000112793827385469 125000 -331.617955830885 0 0 60 (C1) n - 1
REM
REM in /home/nfs/bkarasulu/CARBON/AIRSS/Generating-Clusters/TERSOFF/Higher-Symm/Only-C60
REM
REM
REM
REM
REM
REM ./C.cell (28575a23ae977d3b5fae324c64b13b57)
REM
REM compiler GCC version 9.2.1 20190827 (Red Hat 9.2.1-1)
REM options -cpp -mtune=generic -march=x86-64 -g -O0 -fpre-include=/usr/include/finclude/math-vector-fortran.h
REM seed 475358326 -1108912533 101316684 -291570406 -1150782952 145630402 -376142036 -619585779 439385928 1251150884 629657080 220724226 -625337837 -841392479 1240321304 -514715317 223218902 1757422684 239351556 552089521 -136146834 -125502749 93029516 852250353 323563856 490145919 -361108839 -2140739211 -1631582957 280365879 -1348438336 1407895216 -1963902379
REM
CELL 1.54180   50.00000   50.00000   50.00000   90.00000   90.00000   90.00000
LATT -1
SFAC C  
C      1  0.5310020000000  0.5394490000000  0.4601040000000 1.0
C      1  0.5060750000000  0.4859500000000  0.4105060000000 1.0
C      1  0.4775910000000  0.4715350000000  0.4951030000000 1.0
C      1  0.4533260000000  0.5383880000000  0.5285740000000 1.0
C      1  0.4686390000000  0.4237190000000  0.4936240000000 1.0
C      1  0.5073000000000  0.4461490000000  0.5454840000000 1.0
C      1  0.4585940000000  0.4850150000000  0.4696280000000 1.0
C      1  0.5515730000000  0.5051590000000  0.4475470000000 1.0
C      1  0.5656410000000  0.4748500000000  0.5017540000000 1.0
C      1  0.4782120000000  0.5591790000000  0.4490450000000 1.0
C      1  0.4237170000000  0.4635910000000  0.5162450000000 1.0
C      1  0.4763130000000  0.4802610000000  0.5625230000000 1.0
C      1  0.4782380000000  0.4548320000000  0.5459420000000 1.0
C      1  0.4405330000000  0.5113570000000  0.5352840000000 1.0
C      1  0.4651860000000  0.5333710000000  0.4552350000000 1.0
C      1  0.4427240000000  0.4367320000000  0.5119380000000 1.0
C      1  0.5043600000000  0.5312390000000  0.4764780000000 1.0
C      1  0.5193250000000  0.5215980000000  0.5013000000000 1.0
C      1  0.5218550000000  0.4425190000000  0.4742160000000 1.0
C      1  0.4960260000000  0.5722880000000  0.4689570000000 1.0
C      1  0.5019470000000  0.5267720000000  0.5284230000000 1.0
C      1  0.4990060000000  0.4878190000000  0.4802350000000 1.0
C      1  0.4547320000000  0.5028560000000  0.5622690000000 1.0
C      1  0.5132000000000  0.5654270000000  0.5165990000000 1.0
C      1  0.4760420000000  0.4529930000000  0.4341290000000 1.0
C      1  0.5484080000000  0.4474090000000  0.4965000000000 1.0
C      1  0.5222150000000  0.4659040000000  0.5648600000000 1.0
C      1  0.5109110000000  0.5141340000000  0.4162050000000 1.0
C      1  0.4327660000000  0.4927220000000  0.5122540000000 1.0
C      1  0.4388790000000  0.5023710000000  0.4844740000000 1.0
C      1  0.4942510000000  0.4423190000000  0.4922710000000 1.0
C      1  0.4885840000000  0.5566500000000  0.4955610000000 1.0
C      1  0.5182100000000  0.4459880000000  0.5158830000000 1.0
C      1  0.4539910000000  0.4655930000000  0.4482530000000 1.0
C      1  0.5537150000000  0.5170050000000  0.5303260000000 1.0
C      1  0.5019130000000  0.4830210000000  0.5810980000000 1.0
C      1  0.5026550000000  0.4651140000000  0.4308560000000 1.0
C      1  0.5056520000000  0.5131090000000  0.5770650000000 1.0
C      1  0.5273140000000  0.5688980000000  0.4688190000000 1.0
C      1  0.5333590000000  0.5216340000000  0.5556700000000 1.0
C      1  0.4775390000000  0.5248790000000  0.5697810000000 1.0
C      1  0.5374350000000  0.4846860000000  0.4636580000000 1.0
C      1  0.4847770000000  0.5088820000000  0.4606400000000 1.0
C      1  0.5186480000000  0.5495690000000  0.5439650000000 1.0
C      1  0.5482010000000  0.5341760000000  0.5026520000000 1.0
C      1  0.4777910000000  0.5400030000000  0.5440360000000 1.0
C      1  0.5236980000000  0.4616340000000  0.4516230000000 1.0
C      1  0.5237850000000  0.4894540000000  0.5442840000000 1.0
C      1  0.5332470000000  0.5242030000000  0.4316750000000 1.0
C      1  0.5651810000000  0.4896920000000  0.5274160000000 1.0
C      1  0.5371780000000  0.5640310000000  0.4984540000000 1.0
C      1  0.4465430000000  0.5315200000000  0.4790330000000 1.0
C      1  0.4769510000000  0.4957740000000  0.5150730000000 1.0
C      1  0.4648140000000  0.4559120000000  0.5202420000000 1.0
C      1  0.5250430000000  0.4928010000000  0.4929130000000 1.0
C      1  0.5609460000000  0.5232600000000  0.4743180000000 1.0
C      1  0.4591230000000  0.5467320000000  0.5012610000000 1.0
C      1  0.5748500000000  0.4935730000000  0.4805180000000 1.0
C      1  0.4936670000000  0.4977580000000  0.5398820000000 1.0
C      1  0.5266020000000  0.4765420000000  0.5173340000000 1.0
END
