TITL C-3985254-1270-827 0.00138298262111286 125000 -326.266827119797 0 0 60 (C1) n - 1
REM
REM in /home/nfs/bkarasulu/CARBON/AIRSS/Generating-Clusters/TERSOFF/Higher-Symm/Only-C60
REM
REM
REM
REM
REM
REM ./C.cell (28575a23ae977d3b5fae324c64b13b57)
REM
REM compiler GCC version 9.2.1 20190827 (Red Hat 9.2.1-1)
REM options -cpp -mtune=generic -march=x86-64 -g -O0 -fpre-include=/usr/include/finclude/math-vector-fortran.h
REM seed 36442236 -1954909432 -904026471 -1106389652 -1646127612 -426360903 -822370959 971500135 -1673184737 1182315730 -1002483241 561765953 1225546147 -1856200104 850375672 -352729646 -351995830 169522573 -2014137778 -1149468855 277865817 1972800268 630042035 755483318 542254183 -1920324198 1411721091 540506108 592367823 943041805 -1112101662 1566298826 1203345795
REM
CELL 1.54180   50.00000   50.00000   50.00000   90.00000   90.00000   90.00000
LATT -1
SFAC C  
C      1  0.4920370000000  0.4565330000000  0.4418200000000 1.0
C      1  0.4643230000000  0.5276780000000  0.4444550000000 1.0
C      1  0.5410850000000  0.5154160000000  0.4425830000000 1.0
C      1  0.5342190000000  0.4292970000000  0.5135540000000 1.0
C      1  0.4208130000000  0.5053220000000  0.5132900000000 1.0
C      1  0.5438420000000  0.5645780000000  0.5132320000000 1.0
C      1  0.5369440000000  0.5518900000000  0.5382500000000 1.0
C      1  0.5274320000000  0.4409720000000  0.5391680000000 1.0
C      1  0.4355930000000  0.5055040000000  0.5384560000000 1.0
C      1  0.4754540000000  0.5171930000000  0.5653660000000 1.0
C      1  0.5276190000000  0.5119250000000  0.5651720000000 1.0
C      1  0.4972850000000  0.4698660000000  0.5653300000000 1.0
C      1  0.4362730000000  0.4982680000000  0.4881410000000 1.0
C      1  0.5281830000000  0.5549100000000  0.4894790000000 1.0
C      1  0.5335660000000  0.4477370000000  0.4900100000000 1.0
C      1  0.4520940000000  0.5299810000000  0.5479140000000 1.0
C      1  0.5502040000000  0.5257450000000  0.5478330000000 1.0
C      1  0.4981040000000  0.4440210000000  0.5479190000000 1.0
C      1  0.5629680000000  0.5203220000000  0.4779830000000 1.0
C      1  0.4859890000000  0.4374400000000  0.4785960000000 1.0
C      1  0.4513870000000  0.5475260000000  0.4791110000000 1.0
C      1  0.5518940000000  0.4708510000000  0.4915590000000 1.0
C      1  0.4504390000000  0.4716770000000  0.4913400000000 1.0
C      1  0.4989790000000  0.5576640000000  0.4914740000000 1.0
C      1  0.5792360000000  0.5195630000000  0.5045870000000 1.0
C      1  0.4782610000000  0.4233230000000  0.5044950000000 1.0
C      1  0.4442080000000  0.5604040000000  0.5053070000000 1.0
C      1  0.5655300000000  0.5083320000000  0.5282090000000 1.0
C      1  0.4761820000000  0.4413030000000  0.5273710000000 1.0
C      1  0.4604350000000  0.5514750000000  0.5280630000000 1.0
C      1  0.5101860000000  0.5436810000000  0.4448510000000 1.0
C      1  0.5318610000000  0.4691840000000  0.4452340000000 1.0
C      1  0.4564270000000  0.4864740000000  0.4433300000000 1.0
C      1  0.4830850000000  0.5172210000000  0.5052650000000 1.0
C      1  0.5246800000000  0.4999850000000  0.5089690000000 1.0
C      1  0.4930980000000  0.4846530000000  0.5094170000000 1.0
C      1  0.4532250000000  0.4818580000000  0.5432470000000 1.0
C      1  0.5077030000000  0.5482690000000  0.5427640000000 1.0
C      1  0.5406030000000  0.4673950000000  0.5445890000000 1.0
C      1  0.4732280000000  0.4871820000000  0.5643890000000 1.0
C      1  0.5024910000000  0.5289130000000  0.5640570000000 1.0
C      1  0.5246680000000  0.4826420000000  0.5645100000000 1.0
C      1  0.4889920000000  0.5465750000000  0.5194740000000 1.0
C      1  0.5490760000000  0.4840200000000  0.5209680000000 1.0
C      1  0.4652030000000  0.4682360000000  0.5193700000000 1.0
C      1  0.5130400000000  0.5160640000000  0.4268870000000 1.0
C      1  0.5070260000000  0.4807150000000  0.4268800000000 1.0
C      1  0.4791860000000  0.5036430000000  0.4270450000000 1.0
C      1  0.5425270000000  0.5451050000000  0.4596140000000 1.0
C      1  0.5174140000000  0.4407580000000  0.4599250000000 1.0
C      1  0.4380450000000  0.5087900000000  0.4568960000000 1.0
C      1  0.5200280000000  0.4941170000000  0.4772810000000 1.0
C      1  0.4860600000000  0.4856450000000  0.4740300000000 1.0
C      1  0.4949940000000  0.5191240000000  0.4753500000000 1.0
C      1  0.5384340000000  0.5262570000000  0.4968510000000 1.0
C      1  0.5041110000000  0.4555020000000  0.4969010000000 1.0
C      1  0.4557190000000  0.5211080000000  0.4928900000000 1.0
C      1  0.4660790000000  0.4619960000000  0.4627320000000 1.0
C      1  0.4827980000000  0.5478930000000  0.4631780000000 1.0
C      1  0.5494360000000  0.4902830000000  0.4630380000000 1.0
END
