TITL C-3985255-5397-180 -1.14784177261882e-06 125000 -336.46037500166 0 0 60 (C4h) n - 1
REM
REM in /home/nfs/bkarasulu/CARBON/AIRSS/Generating-Clusters/TERSOFF/Higher-Symm/Only-C60
REM
REM
REM
REM
REM
REM ./C.cell (28575a23ae977d3b5fae324c64b13b57)
REM
REM compiler GCC version 9.2.1 20190827 (Red Hat 9.2.1-1)
REM options -cpp -mtune=generic -march=x86-64 -g -O0 -fpre-include=/usr/include/finclude/math-vector-fortran.h
REM seed 622804498 -188950661 1050834256 1087981933 1229889531 163970024 430465184 27104771 1658148741 -691027658 -385733964 -1363910986 -1099182910 1068121741 -1814977577 -209591597 492734821 1392405274 1703533036 -1166317981 -1776046123 224201 -404720926 183521463 973950347 1203680841 1223987411 -1907909063 -1639910497 1062244714 479323734 -2062014128 -1375383727
REM
CELL 1.54180   50.00000   50.00000   50.00000   90.00000   90.00000   90.00000
LATT -1
SFAC C  
C      1  0.5483360000000  0.4684540000000  0.5060550000000 1.0
C      1  0.4939450000000  0.4684540000000  0.5483360000000 1.0
C      1  0.4516640000000  0.4684540000000  0.4939450000000 1.0
C      1  0.5060550000000  0.4684540000000  0.4516640000000 1.0
C      1  0.5483360000000  0.5327470000000  0.5060550000000 1.0
C      1  0.4939450000000  0.5327470000000  0.5483360000000 1.0
C      1  0.4516640000000  0.5327470000000  0.4939450000000 1.0
C      1  0.5060550000000  0.5327470000000  0.4516640000000 1.0
C      1  0.4561020000000  0.5595130000000  0.4817480000000 1.0
C      1  0.5182520000000  0.5595130000000  0.4561020000000 1.0
C      1  0.5438980000000  0.5595130000000  0.5182520000000 1.0
C      1  0.4817480000000  0.5595130000000  0.5438980000000 1.0
C      1  0.4561020000000  0.4416870000000  0.4817480000000 1.0
C      1  0.5182520000000  0.4416870000000  0.4561020000000 1.0
C      1  0.5438980000000  0.4416870000000  0.5182520000000 1.0
C      1  0.4817480000000  0.4416870000000  0.5438980000000 1.0
C      1  0.5345580000000  0.5149580000000  0.5247690000000 1.0
C      1  0.4752310000000  0.5149580000000  0.5345580000000 1.0
C      1  0.4654420000000  0.5149580000000  0.4752310000000 1.0
C      1  0.5247690000000  0.5149580000000  0.4654420000000 1.0
C      1  0.5345580000000  0.4862430000000  0.5247690000000 1.0
C      1  0.4752310000000  0.4862430000000  0.5345580000000 1.0
C      1  0.4654420000000  0.4862430000000  0.4752310000000 1.0
C      1  0.5247690000000  0.4862430000000  0.4654420000000 1.0
C      1  0.4501930000000  0.5794470000000  0.5182220000000 1.0
C      1  0.4817780000000  0.5794470000000  0.4501930000000 1.0
C      1  0.5498070000000  0.5794470000000  0.4817780000000 1.0
C      1  0.5182220000000  0.5794470000000  0.5498070000000 1.0
C      1  0.4501930000000  0.4217540000000  0.5182220000000 1.0
C      1  0.4817780000000  0.4217540000000  0.4501930000000 1.0
C      1  0.5498070000000  0.4217540000000  0.4817780000000 1.0
C      1  0.5182220000000  0.4217540000000  0.5498070000000 1.0
C      1  0.4632190000000  0.5565340000000  0.4523500000000 1.0
C      1  0.5476500000000  0.5565340000000  0.4632190000000 1.0
C      1  0.5367810000000  0.5565340000000  0.5476500000000 1.0
C      1  0.4523500000000  0.5565340000000  0.5367810000000 1.0
C      1  0.4632190000000  0.4446660000000  0.4523500000000 1.0
C      1  0.5476500000000  0.4446660000000  0.4632190000000 1.0
C      1  0.5367810000000  0.4446660000000  0.5476500000000 1.0
C      1  0.4523500000000  0.4446660000000  0.5367810000000 1.0
C      1  0.5254490000000  0.4192850000000  0.5022820000000 1.0
C      1  0.4977180000000  0.4192850000000  0.5254490000000 1.0
C      1  0.4745510000000  0.4192850000000  0.4977180000000 1.0
C      1  0.5022820000000  0.4192850000000  0.4745510000000 1.0
C      1  0.5254490000000  0.5819160000000  0.5022820000000 1.0
C      1  0.4977180000000  0.5819160000000  0.5254490000000 1.0
C      1  0.4745510000000  0.5819160000000  0.4977180000000 1.0
C      1  0.5022820000000  0.5819160000000  0.4745510000000 1.0
C      1  0.4496540000000  0.4732610000000  0.5232110000000 1.0
C      1  0.4767890000000  0.4732610000000  0.4496540000000 1.0
C      1  0.5503460000000  0.4732610000000  0.4767890000000 1.0
C      1  0.5232110000000  0.4732610000000  0.5503460000000 1.0
C      1  0.4496540000000  0.5279400000000  0.5232110000000 1.0
C      1  0.4767890000000  0.5279400000000  0.4496540000000 1.0
C      1  0.5503460000000  0.5279400000000  0.4767890000000 1.0
C      1  0.5232110000000  0.5279400000000  0.5503460000000 1.0
C      1  0.5653660000000  0.5006000000000  0.4707570000000 1.0
C      1  0.4346340000000  0.5006000000000  0.5292430000000 1.0
C      1  0.4707570000000  0.5006000000000  0.4346340000000 1.0
C      1  0.5292430000000  0.5006000000000  0.5653660000000 1.0
END
