TITL C-3985259-1859-1332 0.000940623626146282 125000 -325.525245481037 0 0 60 (C1) n - 1
REM
REM in /home/nfs/bkarasulu/CARBON/AIRSS/Generating-Clusters/TERSOFF/Higher-Symm/Only-C60
REM
REM
REM
REM
REM
REM ./C.cell (28575a23ae977d3b5fae324c64b13b57)
REM
REM compiler GCC version 9.2.1 20190827 (Red Hat 9.2.1-1)
REM options -cpp -mtune=generic -march=x86-64 -g -O0 -fpre-include=/usr/include/finclude/math-vector-fortran.h
REM seed 767682169 -504805144 -1764024407 -100394954 1890641940 -1735172178 5992 899885009 -1461318465 -913620935 -853680969 1847999239 929585877 -23435106 1822612124 -1745322213 -956312733 1432694342 -901565924 -1984894370 -1566947239 -112850559 -823444594 -1527144521 -1893183560 -678782044 -774101610 424835543 321729082 -948372424 1523697734 34048065 760818947
REM
CELL 1.54180   50.00000   50.00000   50.00000   90.00000   90.00000   90.00000
LATT -1
SFAC C  
C      1  0.4878730000000  0.4594190000000  0.5545740000000 1.0
C      1  0.5572140000000  0.5051240000000  0.5304940000000 1.0
C      1  0.5375560000000  0.4623830000000  0.4841560000000 1.0
C      1  0.5166680000000  0.4894160000000  0.4920450000000 1.0
C      1  0.4471460000000  0.4791470000000  0.4463500000000 1.0
C      1  0.4750090000000  0.4858920000000  0.4504870000000 1.0
C      1  0.4918980000000  0.4908490000000  0.5679050000000 1.0
C      1  0.4466660000000  0.4642710000000  0.5353920000000 1.0
C      1  0.5120150000000  0.5117410000000  0.5796340000000 1.0
C      1  0.5147880000000  0.5220900000000  0.4287820000000 1.0
C      1  0.4840910000000  0.5568720000000  0.5676170000000 1.0
C      1  0.5706740000000  0.5273780000000  0.4899230000000 1.0
C      1  0.4245970000000  0.5207010000000  0.4952490000000 1.0
C      1  0.4908070000000  0.4720220000000  0.4760080000000 1.0
C      1  0.5099500000000  0.5618390000000  0.5264910000000 1.0
C      1  0.5290250000000  0.4354770000000  0.4974360000000 1.0
C      1  0.5428810000000  0.5343140000000  0.4384880000000 1.0
C      1  0.5258650000000  0.5315240000000  0.5610890000000 1.0
C      1  0.4884120000000  0.5102940000000  0.4946320000000 1.0
C      1  0.4575730000000  0.5465880000000  0.4927090000000 1.0
C      1  0.5356950000000  0.4592730000000  0.5313800000000 1.0
C      1  0.5172660000000  0.4928220000000  0.4222440000000 1.0
C      1  0.5101450000000  0.4718870000000  0.5211690000000 1.0
C      1  0.4941970000000  0.4755790000000  0.4283510000000 1.0
C      1  0.4303110000000  0.4694490000000  0.4908800000000 1.0
C      1  0.4357360000000  0.5108670000000  0.5206160000000 1.0
C      1  0.5543570000000  0.5040390000000  0.4500770000000 1.0
C      1  0.5649500000000  0.4757300000000  0.4885400000000 1.0
C      1  0.4702390000000  0.5085310000000  0.5521090000000 1.0
C      1  0.4289520000000  0.4799870000000  0.5187040000000 1.0
C      1  0.4799910000000  0.5634500000000  0.4834210000000 1.0
C      1  0.5079360000000  0.4937730000000  0.5410950000000 1.0
C      1  0.4759050000000  0.4678580000000  0.5255510000000 1.0
C      1  0.4754360000000  0.5136260000000  0.4640310000000 1.0
C      1  0.5718580000000  0.5015270000000  0.4749010000000 1.0
C      1  0.4507690000000  0.4414800000000  0.4878970000000 1.0
C      1  0.4644500000000  0.5384990000000  0.5565600000000 1.0
C      1  0.4565830000000  0.5392740000000  0.5248270000000 1.0
C      1  0.5024570000000  0.4356440000000  0.5418490000000 1.0
C      1  0.4682830000000  0.4991450000000  0.5220070000000 1.0
C      1  0.5419620000000  0.4807110000000  0.4355240000000 1.0
C      1  0.5352310000000  0.5630170000000  0.5119000000000 1.0
C      1  0.5111390000000  0.5583790000000  0.5564950000000 1.0
C      1  0.5035100000000  0.4549920000000  0.4507800000000 1.0
C      1  0.4901350000000  0.5368940000000  0.5173380000000 1.0
C      1  0.5589830000000  0.4762210000000  0.5350080000000 1.0
C      1  0.5352340000000  0.5142760000000  0.5105100000000 1.0
C      1  0.5030560000000  0.4301130000000  0.5124700000000 1.0
C      1  0.5543290000000  0.5234780000000  0.5537910000000 1.0
C      1  0.4438370000000  0.5231190000000  0.4714390000000 1.0
C      1  0.4996560000000  0.5551660000000  0.4635470000000 1.0
C      1  0.5430770000000  0.5403680000000  0.4947440000000 1.0
C      1  0.5328410000000  0.4587910000000  0.4540510000000 1.0
C      1  0.5272710000000  0.5089630000000  0.4680340000000 1.0
C      1  0.4722930000000  0.4617700000000  0.4957160000000 1.0
C      1  0.4310040000000  0.4894550000000  0.4679790000000 1.0
C      1  0.4915510000000  0.5323500000000  0.4461750000000 1.0
C      1  0.4773610000000  0.4201690000000  0.4980740000000 1.0
C      1  0.5270760000000  0.5414640000000  0.4683660000000 1.0
C      1  0.5142320000000  0.5205240000000  0.5323890000000 1.0
END
