TITL C-3985259-1859-575 1.38235150567765e-05 125000 -313.509498975899 0 0 60 (C5) n - 1
REM
REM in /home/nfs/bkarasulu/CARBON/AIRSS/Generating-Clusters/TERSOFF/Higher-Symm/Only-C60
REM
REM
REM
REM
REM
REM ./C.cell (28575a23ae977d3b5fae324c64b13b57)
REM
REM compiler GCC version 9.2.1 20190827 (Red Hat 9.2.1-1)
REM options -cpp -mtune=generic -march=x86-64 -g -O0 -fpre-include=/usr/include/finclude/math-vector-fortran.h
REM seed -2066190498 -439866050 799007827 -1853760289 1678040928 68291528 -138225632 1502081633 -1765517889 -99255796 2011947397 -7061577 -1944513053 1909835953 -1281789211 -789421779 1338350157 -261049919 -1498636483 -600549338 1485771025 -55607270 -1794312352 602214438 916762780 374755852 747648217 45902156 832461890 1541939249 -1128350418 -1934351595 81954633
REM
CELL 1.54180   50.00000   50.00000   50.00000   90.00000   90.00000   90.00000
LATT -1
SFAC C  
C      1  0.5213320000000  0.5369530000000  0.4459430000000 1.0
C      1  0.5213310000000  0.5628310000000  0.5184400000000 1.0
C      1  0.5213310000000  0.5018790000000  0.5654540000000 1.0
C      1  0.5213330000000  0.4383310000000  0.5220130000000 1.0
C      1  0.5213340000000  0.4600080000000  0.4481510000000 1.0
C      1  0.4745440000000  0.4833540000000  0.4777680000000 1.0
C      1  0.4745440000000  0.5159990000000  0.4772990000000 1.0
C      1  0.4745430000000  0.5265330000000  0.5082010000000 1.0
C      1  0.4745430000000  0.5003990000000  0.5277690000000 1.0
C      1  0.4745440000000  0.4737120000000  0.5089610000000 1.0
C      1  0.4874940000000  0.5559890000000  0.5147320000000 1.0
C      1  0.4874940000000  0.5032900000000  0.5578010000000 1.0
C      1  0.4874960000000  0.4460440000000  0.5209910000000 1.0
C      1  0.4874970000000  0.4633630000000  0.4551710000000 1.0
C      1  0.4874950000000  0.5313130000000  0.4513040000000 1.0
C      1  0.5550590000000  0.4791400000000  0.4833100000000 1.0
C      1  0.5550580000000  0.5094290000000  0.4750040000000 1.0
C      1  0.5550580000000  0.5266880000000  0.5012430000000 1.0
C      1  0.5550570000000  0.5070670000000  0.5257660000000 1.0
C      1  0.5550580000000  0.4776810000000  0.5146830000000 1.0
C      1  0.4872870000000  0.4296820000000  0.4904920000000 1.0
C      1  0.4872870000000  0.4873130000000  0.4301850000000 1.0
C      1  0.4872850000000  0.5624770000000  0.4663600000000 1.0
C      1  0.4872840000000  0.5513000000000  0.5490240000000 1.0
C      1  0.4872850000000  0.4692280000000  0.5639380000000 1.0
C      1  0.4442480000000  0.4502310000000  0.4757140000000 1.0
C      1  0.4442470000000  0.5077170000000  0.4451630000000 1.0
C      1  0.4442460000000  0.5545360000000  0.4903940000000 1.0
C      1  0.4442450000000  0.5259870000000  0.5488990000000 1.0
C      1  0.4442470000000  0.4615230000000  0.5398260000000 1.0
C      1  0.4391360000000  0.4960170000000  0.5309310000000 1.0
C      1  0.4391370000000  0.4693500000000  0.5057710000000 1.0
C      1  0.4391370000000  0.4850390000000  0.4726340000000 1.0
C      1  0.4391360000000  0.5214020000000  0.4773150000000 1.0
C      1  0.4391360000000  0.5281870000000  0.5133450000000 1.0
C      1  0.5175120000000  0.4741990000000  0.5545270000000 1.0
C      1  0.5175140000000  0.4401700000000  0.4923110000000 1.0
C      1  0.5175140000000  0.4888240000000  0.4407220000000 1.0
C      1  0.5175120000000  0.5529240000000  0.4710530000000 1.0
C      1  0.5175110000000  0.5438850000000  0.5413880000000 1.0
C      1  0.4712700000000  0.4520070000000  0.5465680000000 1.0
C      1  0.4712720000000  0.4408790000000  0.4687470000000 1.0
C      1  0.4712710000000  0.5114530000000  0.4341150000000 1.0
C      1  0.4712690000000  0.5661980000000  0.4905330000000 1.0
C      1  0.4712690000000  0.5294590000000  0.5600330000000 1.0
C      1  0.5155130000000  0.4953930000000  0.4733840000000 1.0
C      1  0.5155120000000  0.5238910000000  0.4873940000000 1.0
C      1  0.5155110000000  0.5193720000000  0.5188260000000 1.0
C      1  0.5155120000000  0.4880830000000  0.5242420000000 1.0
C      1  0.5155130000000  0.4732630000000  0.4961570000000 1.0
C      1  0.5453910000000  0.4536560000000  0.5307860000000 1.0
C      1  0.5453920000000  0.4564010000000  0.4654380000000 1.0
C      1  0.5453910000000  0.5193990000000  0.4478540000000 1.0
C      1  0.5453900000000  0.5555900000000  0.5023360000000 1.0
C      1  0.5453900000000  0.5149580000000  0.5535910000000 1.0
C      1  0.5412150000000  0.5435930000000  0.5596950000000 1.0
C      1  0.5412160000000  0.4566990000000  0.5599060000000 1.0
C      1  0.5412180000000  0.4296470000000  0.4773300000000 1.0
C      1  0.5412180000000  0.4998210000000  0.4260850000000 1.0
C      1  0.5412160000000  0.5702440000000  0.4769890000000 1.0
END
