TITL C-3985253-1688-149 0.000809504666751422 125000 -311.204686183366 0 0 60 (C1) n - 1
REM
REM in /home/nfs/bkarasulu/CARBON/AIRSS/Generating-Clusters/TERSOFF/Higher-Symm/Only-C60
REM
REM
REM
REM
REM
REM ./C.cell (28575a23ae977d3b5fae324c64b13b57)
REM
REM compiler GCC version 9.2.1 20190827 (Red Hat 9.2.1-1)
REM options -cpp -mtune=generic -march=x86-64 -g -O0 -fpre-include=/usr/include/finclude/math-vector-fortran.h
REM seed -85386436 1747112830 -1121056969 792165160 907886922 -748964975 1640735301 2010113632 -1327600894 1132607721 -1110373354 -57452294 697957635 1188551398 1060777831 -1848554361 349374752 2036820854 1027208898 962025526 -27678941 -385335630 362382902 -243127238 -154488407 1956762818 -1534551959 -196125195 -889556153 -1723858103 -491598444 -28848543 -355606704
REM
CELL 1.54180   50.00000   50.00000   50.00000   90.00000   90.00000   90.00000
LATT -1
SFAC C  
C      1  0.5310760000000  0.4774530000000  0.5519300000000 1.0
C      1  0.4764040000000  0.4782000000000  0.5528240000000 1.0
C      1  0.4382880000000  0.4762780000000  0.5146530000000 1.0
C      1  0.4504470000000  0.4755290000000  0.4624890000000 1.0
C      1  0.4984870000000  0.4725040000000  0.4357020000000 1.0
C      1  0.5495740000000  0.4727930000000  0.4564340000000 1.0
C      1  0.5680160000000  0.4740520000000  0.5098940000000 1.0
C      1  0.4441600000000  0.4594610000000  0.4883650000000 1.0
C      1  0.4729630000000  0.4571130000000  0.4480370000000 1.0
C      1  0.5245100000000  0.4557280000000  0.4454200000000 1.0
C      1  0.5596040000000  0.4559530000000  0.4836430000000 1.0
C      1  0.5487060000000  0.4591110000000  0.5332850000000 1.0
C      1  0.5031270000000  0.4623680000000  0.5546880000000 1.0
C      1  0.4563220000000  0.4607310000000  0.5359300000000 1.0
C      1  0.5103200000000  0.5716120000000  0.4672940000000 1.0
C      1  0.5335040000000  0.5699380000000  0.4887600000000 1.0
C      1  0.5310380000000  0.5703140000000  0.5204070000000 1.0
C      1  0.5062650000000  0.5616960000000  0.5374370000000 1.0
C      1  0.4770150000000  0.5641560000000  0.5280840000000 1.0
C      1  0.4654570000000  0.5654610000000  0.4991240000000 1.0
C      1  0.4801780000000  0.5638720000000  0.4717250000000 1.0
C      1  0.4733440000000  0.4379950000000  0.5231250000000 1.0
C      1  0.4659350000000  0.4383940000000  0.4935330000000 1.0
C      1  0.4842810000000  0.4373520000000  0.4693090000000 1.0
C      1  0.5149570000000  0.4370630000000  0.4680790000000 1.0
C      1  0.5352920000000  0.4374730000000  0.4908310000000 1.0
C      1  0.5295860000000  0.4383920000000  0.5206520000000 1.0
C      1  0.5021010000000  0.4380670000000  0.5354940000000 1.0
C      1  0.5236020000000  0.5188680000000  0.4404530000000 1.0
C      1  0.5628790000000  0.5199500000000  0.4795100000000 1.0
C      1  0.5580450000000  0.5206370000000  0.5364410000000 1.0
C      1  0.5074290000000  0.5177480000000  0.5699240000000 1.0
C      1  0.4477530000000  0.5198820000000  0.5485700000000 1.0
C      1  0.4280290000000  0.5214160000000  0.4899200000000 1.0
C      1  0.4659400000000  0.5177770000000  0.4402450000000 1.0
C      1  0.4769400000000  0.4980960000000  0.5276820000000 1.0
C      1  0.4599820000000  0.4973440000000  0.5020200000000 1.0
C      1  0.4742530000000  0.4949270000000  0.4744700000000 1.0
C      1  0.5004130000000  0.4836640000000  0.4654540000000 1.0
C      1  0.5276560000000  0.4824820000000  0.4776410000000 1.0
C      1  0.5405680000000  0.4876910000000  0.5036180000000 1.0
C      1  0.5240400000000  0.4967500000000  0.5282960000000 1.0
C      1  0.4736830000000  0.5052350000000  0.5689030000000 1.0
C      1  0.4254270000000  0.5074190000000  0.5231840000000 1.0
C      1  0.4371550000000  0.5061100000000  0.4585830000000 1.0
C      1  0.4970850000000  0.5038120000000  0.4288320000000 1.0
C      1  0.5521020000000  0.5048670000000  0.4519920000000 1.0
C      1  0.5768450000000  0.5074130000000  0.5102730000000 1.0
C      1  0.5413550000000  0.5063780000000  0.5651270000000 1.0
C      1  0.4586640000000  0.5322680000000  0.4972770000000 1.0
C      1  0.4786350000000  0.5301700000000  0.4669460000000 1.0
C      1  0.5135500000000  0.5384870000000  0.4615840000000 1.0
C      1  0.5393340000000  0.5378210000000  0.4870730000000 1.0
C      1  0.5362410000000  0.5368410000000  0.5217930000000 1.0
C      1  0.5077380000000  0.5273740000000  0.5398090000000 1.0
C      1  0.4725960000000  0.5308290000000  0.5309710000000 1.0
C      1  0.5056580000000  0.5139310000000  0.4946910000000 1.0
C      1  0.4997910000000  0.4903740000000  0.5127220000000 1.0
C      1  0.4999950000000  0.5416800000000  0.5011720000000 1.0
C      1  0.4994600000000  0.4631410000000  0.5020210000000 1.0
END
