TITL C-3985253-1688-534 -0.00344699792211968 125000 -324.606615589495 0 0 60 (C1) n - 1
REM
REM in /home/nfs/bkarasulu/CARBON/AIRSS/Generating-Clusters/TERSOFF/Higher-Symm/Only-C60
REM
REM
REM
REM
REM
REM ./C.cell (28575a23ae977d3b5fae324c64b13b57)
REM
REM compiler GCC version 9.2.1 20190827 (Red Hat 9.2.1-1)
REM options -cpp -mtune=generic -march=x86-64 -g -O0 -fpre-include=/usr/include/finclude/math-vector-fortran.h
REM seed 352685617 -1628375176 1180373689 -387362758 197901062 956107004 -594630654 1269890435 69913475 -864130010 1228808572 37502189 945648075 184991267 55926528 -743174112 1854474185 -520870561 330965151 -251379967 2055949790 1976009038 -468387548 -1666229067 -1877021095 490162621 650678325 607631953 1124379005 -101313445 -1135554310 -1019190728 -81734312
REM
CELL 1.54180   50.00000   50.00000   50.00000   90.00000   90.00000   90.00000
LATT -1
SFAC C  
C      1  0.5057270000000  0.4220580000000  0.5073550000000 1.0
C      1  0.5062580000000  0.4821500000000  0.5756890000000 1.0
C      1  0.5063250000000  0.5655410000000  0.5393130000000 1.0
C      1  0.5064090000000  0.5555360000000  0.4495950000000 1.0
C      1  0.5057090000000  0.4679380000000  0.4294660000000 1.0
C      1  0.5103530000000  0.5254820000000  0.5111850000000 1.0
C      1  0.5101730000000  0.5195370000000  0.4799010000000 1.0
C      1  0.5100430000000  0.4879930000000  0.4763370000000 1.0
C      1  0.5100830000000  0.4748240000000  0.5048610000000 1.0
C      1  0.5102640000000  0.4977260000000  0.5262770000000 1.0
C      1  0.4981020000000  0.4262660000000  0.4717020000000 1.0
C      1  0.4982020000000  0.4498830000000  0.5603170000000 1.0
C      1  0.4982070000000  0.5410010000000  0.5651640000000 1.0
C      1  0.4982080000000  0.5731070000000  0.4805780000000 1.0
C      1  0.4982540000000  0.5031190000000  0.4220480000000 1.0
C      1  0.4481890000000  0.5557350000000  0.4948810000000 1.0
C      1  0.4483440000000  0.5120090000000  0.4451330000000 1.0
C      1  0.4483000000000  0.4523190000000  0.4717900000000 1.0
C      1  0.4483710000000  0.4585120000000  0.5362690000000 1.0
C      1  0.4481550000000  0.5216790000000  0.5510720000000 1.0
C      1  0.4652350000000  0.4980060000000  0.4257390000000 1.0
C      1  0.4651210000000  0.4293460000000  0.4788260000000 1.0
C      1  0.4653580000000  0.4575280000000  0.5601240000000 1.0
C      1  0.4653070000000  0.5437300000000  0.5597850000000 1.0
C      1  0.4653870000000  0.5705660000000  0.4764290000000 1.0
C      1  0.4818000000000  0.5255390000000  0.4671780000000 1.0
C      1  0.4818640000000  0.4771600000000  0.4666750000000 1.0
C      1  0.4823100000000  0.4619860000000  0.5115820000000 1.0
C      1  0.4825180000000  0.4995680000000  0.5402920000000 1.0
C      1  0.4819720000000  0.5391680000000  0.5134890000000 1.0
C      1  0.5150860000000  0.5152320000000  0.5699550000000 1.0
C      1  0.5150730000000  0.5712450000000  0.5069120000000 1.0
C      1  0.5150830000000  0.5267480000000  0.4334120000000 1.0
C      1  0.5149820000000  0.4449460000000  0.4535520000000 1.0
C      1  0.5149450000000  0.4383940000000  0.5368610000000 1.0
C      1  0.5386570000000  0.4839890000000  0.5374280000000 1.0
C      1  0.5393060000000  0.5311550000000  0.5278090000000 1.0
C      1  0.5396110000000  0.5364910000000  0.4793190000000 1.0
C      1  0.5391160000000  0.4910700000000  0.4600050000000 1.0
C      1  0.5385870000000  0.4599860000000  0.4962190000000 1.0
C      1  0.5641050000000  0.5211010000000  0.4858150000000 1.0
C      1  0.5636000000000  0.4931520000000  0.4765090000000 1.0
C      1  0.5637190000000  0.4754770000000  0.5001270000000 1.0
C      1  0.5640760000000  0.4925800000000  0.5243110000000 1.0
C      1  0.5643510000000  0.5208730000000  0.5153900000000 1.0
C      1  0.4774160000000  0.4335160000000  0.5073890000000 1.0
C      1  0.4775270000000  0.4859350000000  0.5657390000000 1.0
C      1  0.4762610000000  0.5594660000000  0.5345780000000 1.0
C      1  0.4754070000000  0.5514940000000  0.4528450000000 1.0
C      1  0.4763230000000  0.4711700000000  0.4382920000000 1.0
C      1  0.4562150000000  0.4787710000000  0.5147800000000 1.0
C      1  0.4563550000000  0.5077970000000  0.5250850000000 1.0
C      1  0.4561620000000  0.5268110000000  0.5006030000000 1.0
C      1  0.4559260000000  0.5092320000000  0.4748550000000 1.0
C      1  0.4559290000000  0.4794600000000  0.4839310000000 1.0
C      1  0.5388340000000  0.4545180000000  0.5378490000000 1.0
C      1  0.5392610000000  0.5218290000000  0.5556930000000 1.0
C      1  0.5395020000000  0.5605590000000  0.4959420000000 1.0
C      1  0.5392010000000  0.5128260000000  0.4406890000000 1.0
C      1  0.5388360000000  0.4491660000000  0.4690520000000 1.0
END
