TITL C-3985250-725-857 4.49763107968553e-08 125000 -353.898681749303 0 0 60 (C1) n - 1
REM
REM in /home/nfs/bkarasulu/CARBON/AIRSS/Generating-Clusters/TERSOFF/Higher-Symm/Only-C60
REM
REM
REM
REM
REM
REM ./C.cell (28575a23ae977d3b5fae324c64b13b57)
REM
REM compiler GCC version 9.2.1 20190827 (Red Hat 9.2.1-1)
REM options -cpp -mtune=generic -march=x86-64 -g -O0 -fpre-include=/usr/include/finclude/math-vector-fortran.h
REM seed 1563018849 924839869 1261434937 190837574 1585098936 1502212081 559147445 1728889666 1299025144 461185778 -1465593819 -1256811901 -415090544 -2093877259 2094595308 -64940045 659359960 -1832675469 784564493 -1367123233 -376592474 -2050953142 -130021651 2108394802 1684379197 2054792702 -204955896 -207624036 417513275 -640350524 -1414250991 -1581737745 -1156611568
REM
CELL 1.54180   50.00000   50.00000   50.00000   90.00000   90.00000   90.00000
LATT -1
SFAC C  
C      1  0.5194750000000  0.5212560000000  0.4463270000000 1.0
C      1  0.4721220000000  0.5062550000000  0.4477500000000 1.0
C      1  0.5080760000000  0.4714240000000  0.4463470000000 1.0
C      1  0.4574990000000  0.5200650000000  0.4850400000000 1.0
C      1  0.5050440000000  0.4506430000000  0.4844180000000 1.0
C      1  0.5357360000000  0.5266270000000  0.4858920000000 1.0
C      1  0.4909360000000  0.5281660000000  0.4560970000000 1.0
C      1  0.4804520000000  0.4779610000000  0.4568510000000 1.0
C      1  0.5269020000000  0.4938670000000  0.4565050000000 1.0
C      1  0.5364780000000  0.5475610000000  0.5399810000000 1.0
C      1  0.4403220000000  0.5095520000000  0.5368960000000 1.0
C      1  0.5251390000000  0.4399820000000  0.5371910000000 1.0
C      1  0.5337590000000  0.5439040000000  0.4603240000000 1.0
C      1  0.4447350000000  0.5073010000000  0.4597070000000 1.0
C      1  0.5211160000000  0.4462760000000  0.4582490000000 1.0
C      1  0.5164290000000  0.4989400000000  0.4891920000000 1.0
C      1  0.4904820000000  0.5229170000000  0.4888780000000 1.0
C      1  0.4910160000000  0.4777580000000  0.4878740000000 1.0
C      1  0.4558790000000  0.4601090000000  0.4554300000000 1.0
C      1  0.5547540000000  0.4817600000000  0.4557140000000 1.0
C      1  0.4877530000000  0.5588200000000  0.4546940000000 1.0
C      1  0.4570960000000  0.4993450000000  0.5597870000000 1.0
C      1  0.5295620000000  0.4573440000000  0.5618570000000 1.0
C      1  0.5176570000000  0.5394250000000  0.5619720000000 1.0
C      1  0.5104900000000  0.5066960000000  0.5575490000000 1.0
C      1  0.4811500000000  0.5159840000000  0.5526430000000 1.0
C      1  0.5052630000000  0.4748990000000  0.5576050000000 1.0
C      1  0.4961220000000  0.4354650000000  0.5297810000000 1.0
C      1  0.5539000000000  0.5253410000000  0.5312380000000 1.0
C      1  0.4470160000000  0.5377450000000  0.5283660000000 1.0
C      1  0.4722090000000  0.4764760000000  0.5136170000000 1.0
C      1  0.5329870000000  0.4845380000000  0.5138960000000 1.0
C      1  0.4943480000000  0.5440380000000  0.5123760000000 1.0
C      1  0.5214640000000  0.5896570000000  0.4782000000000 1.0
C      1  0.4136270000000  0.4725170000000  0.4791100000000 1.0
C      1  0.5675210000000  0.4385990000000  0.4770020000000 1.0
C      1  0.4552590000000  0.4316150000000  0.4639280000000 1.0
C      1  0.5791580000000  0.4957140000000  0.4649120000000 1.0
C      1  0.4633280000000  0.5736170000000  0.4626740000000 1.0
C      1  0.5255130000000  0.5842550000000  0.5058890000000 1.0
C      1  0.4204970000000  0.4743970000000  0.5065150000000 1.0
C      1  0.5636770000000  0.4432770000000  0.5046990000000 1.0
C      1  0.4617260000000  0.4703640000000  0.5596520000000 1.0
C      1  0.5505430000000  0.4786860000000  0.5577260000000 1.0
C      1  0.4920160000000  0.5557660000000  0.5604680000000 1.0
C      1  0.5597570000000  0.5258000000000  0.5020780000000 1.0
C      1  0.4442570000000  0.5416570000000  0.4991830000000 1.0
C      1  0.4925030000000  0.4298400000000  0.5003050000000 1.0
C      1  0.4330590000000  0.4792120000000  0.4593750000000 1.0
C      1  0.5510860000000  0.4520950000000  0.4580090000000 1.0
C      1  0.5160990000000  0.5684650000000  0.4596360000000 1.0
C      1  0.4826010000000  0.4620810000000  0.5392060000000 1.0
C      1  0.5392710000000  0.5002890000000  0.5391090000000 1.0
C      1  0.4762010000000  0.5423190000000  0.5367350000000 1.0
C      1  0.4470780000000  0.5679970000000  0.4867650000000 1.0
C      1  0.4669880000000  0.4210360000000  0.4889830000000 1.0
C      1  0.5814830000000  0.5105970000000  0.4901410000000 1.0
C      1  0.4439520000000  0.4885730000000  0.5160920000000 1.0
C      1  0.5393910000000  0.4546600000000  0.5157820000000 1.0
C      1  0.5200390000000  0.5584710000000  0.5177820000000 1.0
END
