TITL C-3985259-1859-1006 9.21204038571374e-05 125000 -312.35401894557 0 0 60 (C1) n - 1
REM
REM in /home/nfs/bkarasulu/CARBON/AIRSS/Generating-Clusters/TERSOFF/Higher-Symm/Only-C60
REM
REM
REM
REM
REM
REM ./C.cell (28575a23ae977d3b5fae324c64b13b57)
REM
REM compiler GCC version 9.2.1 20190827 (Red Hat 9.2.1-1)
REM options -cpp -mtune=generic -march=x86-64 -g -O0 -fpre-include=/usr/include/finclude/math-vector-fortran.h
REM seed -533469658 1125456262 470187125 1257305100 -581597382 -313757199 1353414283 -2021325502 242393790 -1441928828 428300555 303101863 -1109519752 1458724700 -914349010 301346127 -620213207 1278946244 -2048880082 -1718586220 1058193107 667610613 30570977 -646215754 -1947312691 1108980343 372745695 451511435 -861478523 -1725000371 -1623832789 -2144599047 1214455185
REM
CELL 1.54180   50.00000   50.00000   50.00000   90.00000   90.00000   90.00000
LATT -1
SFAC C  
C      1  0.5486500000000  0.4592090000000  0.5179090000000 1.0
C      1  0.5133330000000  0.4525630000000  0.5489940000000 1.0
C      1  0.4681890000000  0.4529470000000  0.5418500000000 1.0
C      1  0.4426780000000  0.4525950000000  0.5005140000000 1.0
C      1  0.4629520000000  0.4541360000000  0.4564760000000 1.0
C      1  0.5086330000000  0.4566450000000  0.4452300000000 1.0
C      1  0.5458220000000  0.4569490000000  0.4729620000000 1.0
C      1  0.4481740000000  0.5283160000000  0.4629680000000 1.0
C      1  0.4956460000000  0.5303350000000  0.4366880000000 1.0
C      1  0.5440010000000  0.5279830000000  0.4597380000000 1.0
C      1  0.5632690000000  0.5310720000000  0.5103050000000 1.0
C      1  0.5315340000000  0.5281430000000  0.5550400000000 1.0
C      1  0.4766950000000  0.5311910000000  0.5582110000000 1.0
C      1  0.4408030000000  0.5270880000000  0.5186370000000 1.0
C      1  0.5393980000000  0.5488220000000  0.5075270000000 1.0
C      1  0.5200030000000  0.5446600000000  0.5335260000000 1.0
C      1  0.4869180000000  0.5464280000000  0.5346320000000 1.0
C      1  0.4648720000000  0.5420520000000  0.5103560000000 1.0
C      1  0.4683330000000  0.5442690000000  0.4776930000000 1.0
C      1  0.4963140000000  0.5469910000000  0.4615000000000 1.0
C      1  0.5250410000000  0.5419430000000  0.4776550000000 1.0
C      1  0.4779980000000  0.4848610000000  0.5336200000000 1.0
C      1  0.4596190000000  0.4805010000000  0.5028800000000 1.0
C      1  0.4715640000000  0.4811480000000  0.4717880000000 1.0
C      1  0.5027160000000  0.4831810000000  0.4617510000000 1.0
C      1  0.5303660000000  0.4840060000000  0.4789930000000 1.0
C      1  0.5342680000000  0.4858540000000  0.5107910000000 1.0
C      1  0.5114960000000  0.4842010000000  0.5354490000000 1.0
C      1  0.4860600000000  0.4563110000000  0.5702450000000 1.0
C      1  0.4381780000000  0.4526470000000  0.5321460000000 1.0
C      1  0.4336050000000  0.4530980000000  0.4695000000000 1.0
C      1  0.4808280000000  0.4540580000000  0.4294970000000 1.0
C      1  0.5404190000000  0.4540310000000  0.4412930000000 1.0
C      1  0.5697480000000  0.4542050000000  0.4945100000000 1.0
C      1  0.5456430000000  0.4537970000000  0.5482390000000 1.0
C      1  0.4791020000000  0.4838490000000  0.5801030000000 1.0
C      1  0.4248420000000  0.4800120000000  0.5349830000000 1.0
C      1  0.4250150000000  0.4812690000000  0.4605910000000 1.0
C      1  0.4830220000000  0.4827080000000  0.4177180000000 1.0
C      1  0.5523990000000  0.4823940000000  0.4362060000000 1.0
C      1  0.5816510000000  0.4826020000000  0.5005100000000 1.0
C      1  0.5494160000000  0.4798320000000  0.5639170000000 1.0
C      1  0.4371010000000  0.4986600000000  0.5148280000000 1.0
C      1  0.4489790000000  0.4993170000000  0.4600070000000 1.0
C      1  0.4979990000000  0.5010010000000  0.4362670000000 1.0
C      1  0.5475910000000  0.4998050000000  0.4599790000000 1.0
C      1  0.5614870000000  0.5018030000000  0.5118260000000 1.0
C      1  0.5278140000000  0.4994330000000  0.5569810000000 1.0
C      1  0.4714350000000  0.5025200000000  0.5580670000000 1.0
C      1  0.4664590000000  0.5742450000000  0.5095260000000 1.0
C      1  0.4698080000000  0.5782940000000  0.4785470000000 1.0
C      1  0.4974700000000  0.5813390000000  0.4635110000000 1.0
C      1  0.5246710000000  0.5741010000000  0.4774020000000 1.0
C      1  0.5357980000000  0.5833150000000  0.5054620000000 1.0
C      1  0.5183190000000  0.5768910000000  0.5310640000000 1.0
C      1  0.4871660000000  0.5813380000000  0.5322180000000 1.0
C      1  0.4965400000000  0.4998480000000  0.4995660000000 1.0
C      1  0.4945890000000  0.4478280000000  0.5230220000000 1.0
C      1  0.4988390000000  0.4658930000000  0.4998300000000 1.0
C      1  0.5039500000000  0.5283120000000  0.4983300000000 1.0
END
