TITL C-3985247-764-198 0.00213224180303728 125000 -310.027429274407 0 0 60 (C1) n - 1
REM
REM in /home/nfs/bkarasulu/CARBON/AIRSS/Generating-Clusters/TERSOFF/Higher-Symm/Only-C60
REM
REM
REM
REM
REM
REM ./C.cell (28575a23ae977d3b5fae324c64b13b57)
REM
REM compiler GCC version 9.2.1 20190827 (Red Hat 9.2.1-1)
REM options -cpp -mtune=generic -march=x86-64 -g -O0 -fpre-include=/usr/include/finclude/math-vector-fortran.h
REM seed -1449193461 -1635297520 -1819863970 -1355263203 -170413395 -220621420 -1642341912 226519576 910204200 -1095579966 -1548372942 -1796793352 516427164 -1348739571 -67222934 -419376679 1886568193 -1274269934 959437125 -288639030 -540310550 597180356 1531419869 -1364577608 -1923796673 974520314 -822383906 541382306 1270513279 819517897 -341261022 1084593261 -1648362443
REM
CELL 1.54180   50.00000   50.00000   50.00000   90.00000   90.00000   90.00000
LATT -1
SFAC C  
C      1  0.4321330000000  0.4554280000000  0.5280000000000 1.0
C      1  0.5055290000000  0.4771500000000  0.5377190000000 1.0
C      1  0.4579400000000  0.5007380000000  0.4533410000000 1.0
C      1  0.5596940000000  0.5237450000000  0.4841430000000 1.0
C      1  0.4790660000000  0.5047520000000  0.5187900000000 1.0
C      1  0.5446960000000  0.4513830000000  0.4970000000000 1.0
C      1  0.5246600000000  0.4382800000000  0.4737040000000 1.0
C      1  0.4616850000000  0.4393700000000  0.4943700000000 1.0
C      1  0.5331820000000  0.4406380000000  0.5239790000000 1.0
C      1  0.4980700000000  0.4658200000000  0.5112330000000 1.0
C      1  0.5152550000000  0.4820090000000  0.4686760000000 1.0
C      1  0.4933040000000  0.5498880000000  0.5036850000000 1.0
C      1  0.4549130000000  0.4375900000000  0.5239770000000 1.0
C      1  0.4371110000000  0.5034500000000  0.4835950000000 1.0
C      1  0.4471250000000  0.4682010000000  0.4793510000000 1.0
C      1  0.5053850000000  0.5022180000000  0.5712880000000 1.0
C      1  0.4721140000000  0.5293700000000  0.4944790000000 1.0
C      1  0.4808540000000  0.5676040000000  0.5277760000000 1.0
C      1  0.5307450000000  0.4629910000000  0.5436800000000 1.0
C      1  0.4750310000000  0.5427270000000  0.5465780000000 1.0
C      1  0.5364180000000  0.4978880000000  0.5710640000000 1.0
C      1  0.5071560000000  0.5734850000000  0.5440880000000 1.0
C      1  0.5228710000000  0.5423340000000  0.5003270000000 1.0
C      1  0.5322570000000  0.5413570000000  0.4462640000000 1.0
C      1  0.4959020000000  0.4648480000000  0.4356390000000 1.0
C      1  0.5625730000000  0.5231250000000  0.5150560000000 1.0
C      1  0.5020240000000  0.4346370000000  0.5185850000000 1.0
C      1  0.5644280000000  0.4938160000000  0.5233100000000 1.0
C      1  0.4766240000000  0.5020920000000  0.4283060000000 1.0
C      1  0.4819070000000  0.5420230000000  0.4425470000000 1.0
C      1  0.4420880000000  0.5302450000000  0.5076990000000 1.0
C      1  0.5410630000000  0.5471690000000  0.4739710000000 1.0
C      1  0.5517040000000  0.4827040000000  0.5489380000000 1.0
C      1  0.4937810000000  0.4325110000000  0.4859090000000 1.0
C      1  0.4503670000000  0.5267450000000  0.5399390000000 1.0
C      1  0.5066040000000  0.5065770000000  0.5295090000000 1.0
C      1  0.5416550000000  0.5440170000000  0.5254010000000 1.0
C      1  0.4579880000000  0.4966760000000  0.5433090000000 1.0
C      1  0.5518120000000  0.5749000000000  0.4762980000000 1.0
C      1  0.5646720000000  0.4763170000000  0.4967430000000 1.0
C      1  0.4794260000000  0.4445480000000  0.5422570000000 1.0
C      1  0.4687610000000  0.5471490000000  0.4684480000000 1.0
C      1  0.5369410000000  0.4819210000000  0.4464420000000 1.0
C      1  0.5592490000000  0.4945460000000  0.4717460000000 1.0
C      1  0.4784190000000  0.5057490000000  0.4769400000000 1.0
C      1  0.4826520000000  0.4766080000000  0.5589630000000 1.0
C      1  0.4723210000000  0.4798240000000  0.4975890000000 1.0
C      1  0.4576110000000  0.5731070000000  0.4779670000000 1.0
C      1  0.5239570000000  0.5103430000000  0.5046400000000 1.0
C      1  0.5086110000000  0.4972850000000  0.4297960000000 1.0
C      1  0.4447150000000  0.4807050000000  0.5206850000000 1.0
C      1  0.4618900000000  0.4678100000000  0.4491690000000 1.0
C      1  0.4531940000000  0.5646040000000  0.5071950000000 1.0
C      1  0.5260240000000  0.4490510000000  0.4451690000000 1.0
C      1  0.4890460000000  0.4613480000000  0.4704830000000 1.0
C      1  0.5023150000000  0.5278880000000  0.5526660000000 1.0
C      1  0.5077910000000  0.5280460000000  0.4391670000000 1.0
C      1  0.5227650000000  0.4750470000000  0.4966930000000 1.0
C      1  0.5076360000000  0.5083820000000  0.4762700000000 1.0
C      1  0.5242920000000  0.5492220000000  0.5494550000000 1.0
END
