TITL C-3985251-913-25 -0.000519262976360218 125000 -300.400681052099 0 0 60 (C3i) n - 1
REM
REM in /home/nfs/bkarasulu/CARBON/AIRSS/Generating-Clusters/TERSOFF/Higher-Symm/Only-C60
REM
REM
REM
REM
REM
REM ./C.cell (28575a23ae977d3b5fae324c64b13b57)
REM
REM compiler GCC version 9.2.1 20190827 (Red Hat 9.2.1-1)
REM options -cpp -mtune=generic -march=x86-64 -g -O0 -fpre-include=/usr/include/finclude/math-vector-fortran.h
REM seed -734545084 -778038561 -1728204434 1666469382 1731526299 -194676370 -105896343 319697624 1939095119 -1557936106 922085613 1984153406 688704302 1747276979 1376413968 -2012150054 916963227 -1328225388 -1653477867 14030320 2103855396 -1851434855 -1977762075 1051503097 -411509719 1175801532 1090938108 -1244376972 -595085836 -1861227262 1784794105 430577407 389239530
REM
CELL 1.54180   50.00000   50.00000   50.00000   90.00000   90.00000   90.00000
LATT -1
SFAC C  
C      1  0.5678310000000  0.5073030000000  0.4703930000000 1.0
C      1  0.4321700000000  0.5292920000000  0.4915210000000 1.0
C      1  0.5678360000000  0.5219880000000  0.5211290000000 1.0
C      1  0.4321690000000  0.4926970000000  0.5296070000000 1.0
C      1  0.5678300000000  0.4707080000000  0.5084790000000 1.0
C      1  0.4321640000000  0.4780120000000  0.4788710000000 1.0
C      1  0.4988600000000  0.5211260000000  0.5644570000000 1.0
C      1  0.5011410000000  0.4547410000000  0.5505250000000 1.0
C      1  0.4988600000000  0.4336150000000  0.4860660000000 1.0
C      1  0.5011400000000  0.4788740000000  0.4355430000000 1.0
C      1  0.4988590000000  0.5452590000000  0.4494750000000 1.0
C      1  0.5011400000000  0.5663850000000  0.5139340000000 1.0
C      1  0.4561080000000  0.5105040000000  0.4484920000000 1.0
C      1  0.5438940000000  0.5498600000000  0.4833370000000 1.0
C      1  0.4561050000000  0.5393590000000  0.5348500000000 1.0
C      1  0.5438920000000  0.4894960000000  0.5515080000000 1.0
C      1  0.4561060000000  0.4501400000000  0.5166630000000 1.0
C      1  0.5438950000000  0.4606410000000  0.4651500000000 1.0
C      1  0.4341090000000  0.5076560000000  0.4705030000000 1.0
C      1  0.5658780000000  0.5293730000000  0.4918910000000 1.0
C      1  0.4341230000000  0.5217080000000  0.5213810000000 1.0
C      1  0.5658910000000  0.4923440000000  0.5294970000000 1.0
C      1  0.4341220000000  0.4706270000000  0.5081090000000 1.0
C      1  0.5658770000000  0.4782920000000  0.4786190000000 1.0
C      1  0.5282640000000  0.4836720000000  0.5129690000000 1.0
C      1  0.4717250000000  0.4806060000000  0.4923460000000 1.0
C      1  0.5282760000000  0.4969250000000  0.4793780000000 1.0
C      1  0.4717360000000  0.5163280000000  0.4870310000000 1.0
C      1  0.5282750000000  0.5193940000000  0.5076540000000 1.0
C      1  0.4717240000000  0.5030750000000  0.5206220000000 1.0
C      1  0.4686030000000  0.4839700000000  0.4427280000000 1.0
C      1  0.5313950000000  0.5415820000000  0.4574830000000 1.0
C      1  0.4686030000000  0.5576140000000  0.5147530000000 1.0
C      1  0.5313970000000  0.5160300000000  0.5572720000000 1.0
C      1  0.4686050000000  0.4584180000000  0.5425170000000 1.0
C      1  0.5313970000000  0.4423860000000  0.4852470000000 1.0
C      1  0.5310150000000  0.4669590000000  0.4390800000000 1.0
C      1  0.4689860000000  0.5362360000000  0.4409250000000 1.0
C      1  0.5310130000000  0.5692780000000  0.5018460000000 1.0
C      1  0.4689850000000  0.5330410000000  0.5609200000000 1.0
C      1  0.5310140000000  0.4637640000000  0.5590750000000 1.0
C      1  0.4689870000000  0.4307220000000  0.4981540000000 1.0
C      1  0.5422390000000  0.4503140000000  0.5138930000000 1.0
C      1  0.4577650000000  0.4631290000000  0.4639230000000 1.0
C      1  0.5422370000000  0.5128100000000  0.4500260000000 1.0
C      1  0.4577610000000  0.5496860000000  0.4861070000000 1.0
C      1  0.5422350000000  0.5368710000000  0.5360770000000 1.0
C      1  0.4577630000000  0.4871900000000  0.5499740000000 1.0
C      1  0.5016660000000  0.5321080000000  0.4892160000000 1.0
C      1  0.4983400000000  0.5253940000000  0.5224150000000 1.0
C      1  0.5016630000000  0.4932840000000  0.5332000000000 1.0
C      1  0.4983340000000  0.4678920000000  0.5107840000000 1.0
C      1  0.5016600000000  0.4746060000000  0.4775850000000 1.0
C      1  0.4983370000000  0.5067160000000  0.4668000000000 1.0
C      1  0.5091650000000  0.4398280000000  0.5207500000000 1.0
C      1  0.4908360000000  0.4519440000000  0.4582640000000 1.0
C      1  0.5091640000000  0.5121160000000  0.4375130000000 1.0
C      1  0.4908350000000  0.5601720000000  0.4792500000000 1.0
C      1  0.5091640000000  0.5480560000000  0.5417360000000 1.0
C      1  0.4908360000000  0.4878840000000  0.5624870000000 1.0
END
