TITL C-3985259-1859-486 -5.78673564741477e-05 125000 -351.930194232748 0 0 60 (C2) n - 1
REM
REM in /home/nfs/bkarasulu/CARBON/AIRSS/Generating-Clusters/TERSOFF/Higher-Symm/Only-C60
REM
REM
REM
REM
REM
REM ./C.cell (28575a23ae977d3b5fae324c64b13b57)
REM
REM compiler GCC version 9.2.1 20190827 (Red Hat 9.2.1-1)
REM options -cpp -mtune=generic -march=x86-64 -g -O0 -fpre-include=/usr/include/finclude/math-vector-fortran.h
REM seed -1796409036 163323328 -1208519472 972516170 1291472516 434500358 555963592 -493278192 1119695862 -850544885 274945114 1211042307 -1782236729 449278955 402583675 -1015423028 -1098321398 -992354162 -1130117915 -2027492525 -293942922 -1184290108 -694670353 -1216869727 -2070202417 1125326728 -986569109 -743877881 -1231241417 -1661710490 764602491 282233066 -849231630
REM
CELL 1.54180   50.00000   50.00000   50.00000   90.00000   90.00000   90.00000
LATT -1
SFAC C  
C      1  0.5382550000000  0.5774380000000  0.4895590000000 1.0
C      1  0.5392960000000  0.5652980000000  0.5364690000000 1.0
C      1  0.5355020000000  0.5330610000000  0.5693790000000 1.0
C      1  0.5386320000000  0.4858440000000  0.5764280000000 1.0
C      1  0.5384930000000  0.4428830000000  0.5533850000000 1.0
C      1  0.5382550000000  0.4225620000000  0.5104410000000 1.0
C      1  0.5392960000000  0.4347020000000  0.4635310000000 1.0
C      1  0.5355020000000  0.4669390000000  0.4306210000000 1.0
C      1  0.5386320000000  0.5141560000000  0.4235720000000 1.0
C      1  0.5384930000000  0.5571170000000  0.4466150000000 1.0
C      1  0.4775710000000  0.4737580000000  0.5460640000000 1.0
C      1  0.4685980000000  0.4553820000000  0.5213020000000 1.0
C      1  0.4777560000000  0.4482660000000  0.4912720000000 1.0
C      1  0.4710820000000  0.4635500000000  0.4650790000000 1.0
C      1  0.4714860000000  0.4962710000000  0.4496290000000 1.0
C      1  0.4775710000000  0.5262420000000  0.4539360000000 1.0
C      1  0.4685980000000  0.5446180000000  0.4786980000000 1.0
C      1  0.4777560000000  0.5517340000000  0.5087280000000 1.0
C      1  0.4710820000000  0.5364500000000  0.5349210000000 1.0
C      1  0.4714860000000  0.5037290000000  0.5503710000000 1.0
C      1  0.5095250000000  0.4844110000000  0.5798430000000 1.0
C      1  0.5095320000000  0.4401080000000  0.5560500000000 1.0
C      1  0.5094020000000  0.4186690000000  0.5108950000000 1.0
C      1  0.5102660000000  0.4297720000000  0.4620580000000 1.0
C      1  0.5065960000000  0.4659860000000  0.4280180000000 1.0
C      1  0.5095250000000  0.5155890000000  0.4201570000000 1.0
C      1  0.5095320000000  0.5598920000000  0.4439500000000 1.0
C      1  0.5094020000000  0.5813310000000  0.4891050000000 1.0
C      1  0.5102660000000  0.5702280000000  0.5379420000000 1.0
C      1  0.5065960000000  0.5340140000000  0.5719820000000 1.0
C      1  0.5492850000000  0.4790210000000  0.4537920000000 1.0
C      1  0.5523680000000  0.5094950000000  0.4502680000000 1.0
C      1  0.5518030000000  0.5371650000000  0.4648620000000 1.0
C      1  0.5510730000000  0.5508220000000  0.4924200000000 1.0
C      1  0.5523700000000  0.5409330000000  0.5221940000000 1.0
C      1  0.5492850000000  0.5209790000000  0.5462080000000 1.0
C      1  0.5523680000000  0.4905050000000  0.5497320000000 1.0
C      1  0.5518030000000  0.4628350000000  0.5351380000000 1.0
C      1  0.5510730000000  0.4491780000000  0.5075800000000 1.0
C      1  0.5523700000000  0.4590670000000  0.4778060000000 1.0
C      1  0.4957990000000  0.5741260000000  0.5130280000000 1.0
C      1  0.4930580000000  0.5513520000000  0.5532980000000 1.0
C      1  0.4929770000000  0.5085630000000  0.5737860000000 1.0
C      1  0.4954860000000  0.4627680000000  0.5662410000000 1.0
C      1  0.4937870000000  0.4318130000000  0.5323560000000 1.0
C      1  0.4957990000000  0.4258740000000  0.4869720000000 1.0
C      1  0.4930580000000  0.4486480000000  0.4467020000000 1.0
C      1  0.4929770000000  0.4914370000000  0.4262140000000 1.0
C      1  0.4954860000000  0.5372320000000  0.4337590000000 1.0
C      1  0.4937870000000  0.5681870000000  0.4676440000000 1.0
C      1  0.4260190000000  0.4597460000000  0.4910030000000 1.0
C      1  0.4393390000000  0.4659360000000  0.4658930000000 1.0
C      1  0.4402210000000  0.4941090000000  0.4532320000000 1.0
C      1  0.4262400000000  0.5172260000000  0.4640360000000 1.0
C      1  0.4381850000000  0.5366870000000  0.4825400000000 1.0
C      1  0.4260190000000  0.5402540000000  0.5089970000000 1.0
C      1  0.4393390000000  0.5340640000000  0.5341070000000 1.0
C      1  0.4402210000000  0.5058910000000  0.5467680000000 1.0
C      1  0.4262400000000  0.4827740000000  0.5359640000000 1.0
C      1  0.4381850000000  0.4633130000000  0.5174600000000 1.0
END
