TITL C-3985254-1270-1309 -0.000721008963783208 125000 -285.796198797747 0 0 60 (C6) n - 1
REM
REM in /home/nfs/bkarasulu/CARBON/AIRSS/Generating-Clusters/TERSOFF/Higher-Symm/Only-C60
REM
REM
REM
REM
REM
REM ./C.cell (28575a23ae977d3b5fae324c64b13b57)
REM
REM compiler GCC version 9.2.1 20190827 (Red Hat 9.2.1-1)
REM options -cpp -mtune=generic -march=x86-64 -g -O0 -fpre-include=/usr/include/finclude/math-vector-fortran.h
REM seed -961166651 -431593781 -283835523 1312215453 -678703993 464024892 -320263620 610414719 -386348049 1759954596 1115117906 -1245176171 1862287296 865629944 1727789115 -944142072 -1474453096 1485664694 1965696684 1518853828 2082579328 2046235314 485320705 1289463462 847702969 2040363756 -1501547894 1708972419 1977321196 -453111772 546485554 236586530 730141150
REM
CELL 1.54180   50.00000   50.00000   50.00000   90.00000   90.00000   90.00000
LATT -1
SFAC C  
C      1  0.5262650000000  0.4335320000000  0.4856940000000 1.0
C      1  0.5254480000000  0.4335100000000  0.5155810000000 1.0
C      1  0.4993100000000  0.4334990000000  0.5298360000000 1.0
C      1  0.4737350000000  0.4335320000000  0.5143060000000 1.0
C      1  0.4745520000000  0.4335100000000  0.4844190000000 1.0
C      1  0.5006900000000  0.4334990000000  0.4701640000000 1.0
C      1  0.5477700000000  0.5258580000000  0.5594430000000 1.0
C      1  0.4724300000000  0.5258220000000  0.5710670000000 1.0
C      1  0.4246540000000  0.5258290000000  0.5116340000000 1.0
C      1  0.4522300000000  0.5258580000000  0.4405570000000 1.0
C      1  0.5275700000000  0.5258220000000  0.4289330000000 1.0
C      1  0.5753460000000  0.5258290000000  0.4883660000000 1.0
C      1  0.5219890000000  0.5058260000000  0.5635200000000 1.0
C      1  0.4559640000000  0.5058320000000  0.5507830000000 1.0
C      1  0.4340140000000  0.5058200000000  0.4872570000000 1.0
C      1  0.4780110000000  0.5058260000000  0.4364800000000 1.0
C      1  0.5440360000000  0.5058320000000  0.4492170000000 1.0
C      1  0.5659860000000  0.5058200000000  0.5127430000000 1.0
C      1  0.4396020000000  0.5509840000000  0.5125470000000 1.0
C      1  0.4589360000000  0.5510050000000  0.4539690000000 1.0
C      1  0.5193030000000  0.5509730000000  0.4414250000000 1.0
C      1  0.5603980000000  0.5509840000000  0.4874530000000 1.0
C      1  0.5410640000000  0.5510050000000  0.5460310000000 1.0
C      1  0.4806970000000  0.5509730000000  0.5585750000000 1.0
C      1  0.4930850000000  0.5023380000000  0.5750200000000 1.0
C      1  0.4315740000000  0.5023310000000  0.5314770000000 1.0
C      1  0.4385110000000  0.5023460000000  0.4564730000000 1.0
C      1  0.5069150000000  0.5023380000000  0.4249800000000 1.0
C      1  0.5684260000000  0.5023310000000  0.4685230000000 1.0
C      1  0.5614890000000  0.5023460000000  0.5435270000000 1.0
C      1  0.4900830000000  0.5159480000000  0.4675650000000 1.0
C      1  0.5231390000000  0.5159760000000  0.4752020000000 1.0
C      1  0.5330480000000  0.5159690000000  0.5076360000000 1.0
C      1  0.5099170000000  0.5159480000000  0.5324350000000 1.0
C      1  0.4768610000000  0.5159760000000  0.5247980000000 1.0
C      1  0.4669520000000  0.5159690000000  0.4923640000000 1.0
C      1  0.5348220000000  0.5516410000000  0.5109350000000 1.0
C      1  0.5079420000000  0.5515980000000  0.5356160000000 1.0
C      1  0.4731190000000  0.5516560000000  0.5246870000000 1.0
C      1  0.4651780000000  0.5516410000000  0.4890650000000 1.0
C      1  0.4920580000000  0.5515980000000  0.4643840000000 1.0
C      1  0.5268810000000  0.5516560000000  0.4753130000000 1.0
C      1  0.4881730000000  0.4808190000000  0.4684330000000 1.0
C      1  0.5213890000000  0.4808720000000  0.4739950000000 1.0
C      1  0.5331940000000  0.4808740000000  0.5055670000000 1.0
C      1  0.5118270000000  0.4808190000000  0.5315670000000 1.0
C      1  0.4786110000000  0.4808720000000  0.5260050000000 1.0
C      1  0.4668060000000  0.4808740000000  0.4944330000000 1.0
C      1  0.5443760000000  0.4554150000000  0.4741850000000 1.0
C      1  0.5445590000000  0.4554220000000  0.5255610000000 1.0
C      1  0.5001200000000  0.4553940000000  0.5513730000000 1.0
C      1  0.4556240000000  0.4554150000000  0.5258150000000 1.0
C      1  0.4554410000000  0.4554220000000  0.4744390000000 1.0
C      1  0.4998800000000  0.4553940000000  0.4486270000000 1.0
C      1  0.5653160000000  0.4776290000000  0.4901220000000 1.0
C      1  0.5412520000000  0.4776310000000  0.5516470000000 1.0
C      1  0.4759010000000  0.4776490000000  0.5615310000000 1.0
C      1  0.4346840000000  0.4776290000000  0.5098780000000 1.0
C      1  0.4587480000000  0.4776310000000  0.4483530000000 1.0
C      1  0.5240990000000  0.4776490000000  0.4384690000000 1.0
END
