TITL C-3985247-764-319 6.15580865451768e-05 125000 -334.727087914546 0 0 60 (C2) n - 1
REM
REM in /home/nfs/bkarasulu/CARBON/AIRSS/Generating-Clusters/TERSOFF/Higher-Symm/Only-C60
REM
REM
REM
REM
REM
REM ./C.cell (28575a23ae977d3b5fae324c64b13b57)
REM
REM compiler GCC version 9.2.1 20190827 (Red Hat 9.2.1-1)
REM options -cpp -mtune=generic -march=x86-64 -g -O0 -fpre-include=/usr/include/finclude/math-vector-fortran.h
REM seed 712944761 -535862429 247323197 -627518011 -164127604 -1263182616 -1326845535 -1769449412 -736253372 -53667834 973302769 -558672206 -1293718672 -1445736020 -1834862568 2102885261 1806950687 -2125538107 -544859350 -277038864 -167221717 -1042965411 -328209230 244660805 -201066937 299109966 -1113731630 -2031861151 720863567 -6208121 1161046781 -2117753076 -404962598
REM
CELL 1.54180   50.00000   50.00000   50.00000   90.00000   90.00000   90.00000
LATT -1
SFAC C  
C      1  0.4532200000000  0.4690970000000  0.5338710000000 1.0
C      1  0.5467790000000  0.4690970000000  0.4661290000000 1.0
C      1  0.5101460000000  0.5374300000000  0.4892500000000 1.0
C      1  0.4898540000000  0.5374300000000  0.5107500000000 1.0
C      1  0.5558060000000  0.4859150000000  0.4918050000000 1.0
C      1  0.4441960000000  0.4859110000000  0.5081950000000 1.0
C      1  0.5257380000000  0.5374830000000  0.5325270000000 1.0
C      1  0.4742620000000  0.5374820000000  0.4674730000000 1.0
C      1  0.4657200000000  0.5024460000000  0.4216960000000 1.0
C      1  0.5342840000000  0.5024460000000  0.5783030000000 1.0
C      1  0.4926390000000  0.4794530000000  0.5592710000000 1.0
C      1  0.5073620000000  0.4794540000000  0.4407290000000 1.0
C      1  0.5354650000000  0.4191470000000  0.4910210000000 1.0
C      1  0.4645360000000  0.4191490000000  0.5089770000000 1.0
C      1  0.4322540000000  0.4625050000000  0.4907720000000 1.0
C      1  0.5677440000000  0.4625040000000  0.5092270000000 1.0
C      1  0.5693440000000  0.5263210000000  0.5139470000000 1.0
C      1  0.4306580000000  0.5263200000000  0.4860530000000 1.0
C      1  0.5556530000000  0.5206360000000  0.4622400000000 1.0
C      1  0.4443490000000  0.5206350000000  0.5377600000000 1.0
C      1  0.4869770000000  0.4744040000000  0.4626700000000 1.0
C      1  0.5130240000000  0.4744050000000  0.5373300000000 1.0
C      1  0.4813910000000  0.5449310000000  0.5578340000000 1.0
C      1  0.5186080000000  0.5449320000000  0.4421660000000 1.0
C      1  0.4523220000000  0.5476350000000  0.4848110000000 1.0
C      1  0.5476790000000  0.5476360000000  0.5151890000000 1.0
C      1  0.4898430000000  0.4048460000000  0.5104320000000 1.0
C      1  0.5101550000000  0.4048480000000  0.4895690000000 1.0
C      1  0.5129710000000  0.5090520000000  0.4766500000000 1.0
C      1  0.4870290000000  0.5090510000000  0.5233500000000 1.0
C      1  0.5380840000000  0.4479940000000  0.4942970000000 1.0
C      1  0.4619100000000  0.4479960000000  0.5057030000000 1.0
C      1  0.5048960000000  0.4981610000000  0.5819720000000 1.0
C      1  0.4951030000000  0.4981610000000  0.4180290000000 1.0
C      1  0.5339560000000  0.5555350000000  0.4892820000000 1.0
C      1  0.4660440000000  0.5555340000000  0.5107180000000 1.0
C      1  0.5195130000000  0.5177130000000  0.4284900000000 1.0
C      1  0.4804870000000  0.5177120000000  0.5715110000000 1.0
C      1  0.4923650000000  0.5541520000000  0.4517810000000 1.0
C      1  0.5076340000000  0.5541520000000  0.5482200000000 1.0
C      1  0.4802670000000  0.5056610000000  0.4710500000000 1.0
C      1  0.5197350000000  0.5056620000000  0.5289500000000 1.0
C      1  0.5133750000000  0.4637060000000  0.5066060000000 1.0
C      1  0.4866250000000  0.4637060000000  0.4933940000000 1.0
C      1  0.5532790000000  0.4992440000000  0.5999920000000 1.0
C      1  0.4467190000000  0.4992520000000  0.4000080000000 1.0
C      1  0.4575580000000  0.5473680000000  0.5385650000000 1.0
C      1  0.5424430000000  0.5473700000000  0.4614350000000 1.0
C      1  0.4202720000000  0.4788530000000  0.4682740000000 1.0
C      1  0.5797280000000  0.4788540000000  0.5317250000000 1.0
C      1  0.5424980000000  0.5033280000000  0.5501690000000 1.0
C      1  0.4575000000000  0.5033270000000  0.4498320000000 1.0
C      1  0.5261790000000  0.4925260000000  0.5001370000000 1.0
C      1  0.4738210000000  0.4925250000000  0.4998630000000 1.0
C      1  0.5342010000000  0.4970780000000  0.4511950000000 1.0
C      1  0.4657990000000  0.4970770000000  0.5488060000000 1.0
C      1  0.4298670000000  0.5115350000000  0.5124820000000 1.0
C      1  0.5701340000000  0.5115350000000  0.4875180000000 1.0
C      1  0.5695720000000  0.5058410000000  0.5382270000000 1.0
C      1  0.4304290000000  0.5058420000000  0.4617710000000 1.0
END
