TITL C-3985252-168-416 1.24235139559667e-07 125000 -248.337507293008 0 0 60 (D2h) n - 1
REM
REM in /home/nfs/bkarasulu/CARBON/AIRSS/Generating-Clusters/TERSOFF/Higher-Symm/Only-C60
REM
REM
REM
REM
REM
REM ./C.cell (28575a23ae977d3b5fae324c64b13b57)
REM
REM compiler GCC version 9.2.1 20190827 (Red Hat 9.2.1-1)
REM options -cpp -mtune=generic -march=x86-64 -g -O0 -fpre-include=/usr/include/finclude/math-vector-fortran.h
REM seed -414714263 -996441823 1744296686 -1704860742 -709442226 1948824840 -1137345700 -1923704639 2030032204 269249877 1674424891 -1162673596 748130363 -428035424 -1953496632 -1048480251 -1856360852 60589888 -133578812 544531106 15338266 2011853556 726222183 393545091 -367067854 412603734 1906652102 1841937420 -1751967843 -870930461 315172243 1916727764 -1433783811
REM
CELL 1.54180   50.00000   50.00000   50.00000   90.00000   90.00000   90.00000
LATT -1
SFAC C  
C      1  0.5183490000000  0.5546650000000  0.4819110000000 1.0
C      1  0.4816510000000  0.5546650000000  0.5180890000000 1.0
C      1  0.5183490000000  0.4453350000000  0.4819110000000 1.0
C      1  0.4816510000000  0.4453350000000  0.5180890000000 1.0
C      1  0.5183490000000  0.5546650000000  0.5180890000000 1.0
C      1  0.4816510000000  0.5546650000000  0.4819110000000 1.0
C      1  0.5183490000000  0.4453350000000  0.5180890000000 1.0
C      1  0.4816510000000  0.4453350000000  0.4819110000000 1.0
C      1  0.5508490000000  0.4567300000000  0.4710820000000 1.0
C      1  0.4491510000000  0.4567300000000  0.5289180000000 1.0
C      1  0.5508490000000  0.5432700000000  0.4710820000000 1.0
C      1  0.4491510000000  0.5432700000000  0.5289180000000 1.0
C      1  0.5508490000000  0.4567300000000  0.5289180000000 1.0
C      1  0.4491510000000  0.4567300000000  0.4710820000000 1.0
C      1  0.5508490000000  0.5432700000000  0.5289180000000 1.0
C      1  0.4491510000000  0.5432700000000  0.4710820000000 1.0
C      1  0.4550960000000  0.4665720000000  0.4417590000000 1.0
C      1  0.5449040000000  0.4665720000000  0.5582410000000 1.0
C      1  0.4550960000000  0.5334280000000  0.4417590000000 1.0
C      1  0.5449040000000  0.5334280000000  0.5582410000000 1.0
C      1  0.4550960000000  0.4665720000000  0.5582410000000 1.0
C      1  0.5449040000000  0.4665720000000  0.4417590000000 1.0
C      1  0.4550960000000  0.5334280000000  0.5582410000000 1.0
C      1  0.5449040000000  0.5334280000000  0.4417590000000 1.0
C      1  0.5155890000000  0.4793450000000  0.4686470000000 1.0
C      1  0.4844110000000  0.4793450000000  0.5313530000000 1.0
C      1  0.5155890000000  0.5206550000000  0.4686470000000 1.0
C      1  0.4844110000000  0.5206550000000  0.5313530000000 1.0
C      1  0.5155890000000  0.4793450000000  0.5313530000000 1.0
C      1  0.4844110000000  0.4793450000000  0.4686470000000 1.0
C      1  0.5155890000000  0.5206550000000  0.5313530000000 1.0
C      1  0.4844110000000  0.5206550000000  0.4686470000000 1.0
C      1  0.5140490000000  0.5209500000000  0.4165610000000 1.0
C      1  0.4859510000000  0.5209500000000  0.5834390000000 1.0
C      1  0.5140490000000  0.4790500000000  0.4165610000000 1.0
C      1  0.4859510000000  0.4790500000000  0.5834390000000 1.0
C      1  0.5140490000000  0.5209500000000  0.5834390000000 1.0
C      1  0.4859510000000  0.5209500000000  0.4165610000000 1.0
C      1  0.5140490000000  0.4790500000000  0.5834390000000 1.0
C      1  0.4859510000000  0.4790500000000  0.4165610000000 1.0
C      1  0.4831090000000  0.5555580000000  0.4456230000000 1.0
C      1  0.5168910000000  0.5555580000000  0.5543770000000 1.0
C      1  0.4831090000000  0.4444420000000  0.4456230000000 1.0
C      1  0.5168910000000  0.4444420000000  0.5543770000000 1.0
C      1  0.4831090000000  0.5555580000000  0.5543770000000 1.0
C      1  0.5168910000000  0.5555580000000  0.4456230000000 1.0
C      1  0.4831090000000  0.4444420000000  0.5543770000000 1.0
C      1  0.5168910000000  0.4444420000000  0.4456230000000 1.0
C      1  0.4558830000000  0.4841230000000  0.4848820000000 1.0
C      1  0.5441170000000  0.4841230000000  0.5151180000000 1.0
C      1  0.4558830000000  0.5158770000000  0.4848820000000 1.0
C      1  0.5441170000000  0.5158770000000  0.5151180000000 1.0
C      1  0.4558830000000  0.4841230000000  0.5151180000000 1.0
C      1  0.5441170000000  0.4841230000000  0.4848820000000 1.0
C      1  0.4558830000000  0.5158770000000  0.5151180000000 1.0
C      1  0.5441170000000  0.5158770000000  0.4848820000000 1.0
C      1  0.5302300000000  0.5000000000000  0.4411150000000 1.0
C      1  0.4697700000000  0.5000000000000  0.5588850000000 1.0
C      1  0.4697700000000  0.5000000000000  0.4411150000000 1.0
C      1  0.5302300000000  0.5000000000000  0.5588850000000 1.0
END
