TITL C-3985245-9316-702 3.33024084747892e-05 125000 -333.45005347248 0 0 60 (D2) n - 1
REM
REM in /home/nfs/bkarasulu/CARBON/AIRSS/Generating-Clusters/TERSOFF/Higher-Symm/Only-C60
REM
REM
REM
REM
REM
REM ./C.cell (28575a23ae977d3b5fae324c64b13b57)
REM
REM compiler GCC version 9.2.1 20190827 (Red Hat 9.2.1-1)
REM options -cpp -mtune=generic -march=x86-64 -g -O0 -fpre-include=/usr/include/finclude/math-vector-fortran.h
REM seed 1205617056 1798436799 1953013403 318363007 -1803196874 -420006199 233804156 -128796435 -1638961759 1356779750 334587014 -196629312 2012202093 740886630 956144454 267015172 478500076 -1284620378 -573078853 -1295188202 -725567318 1537866456 731009380 474494884 1482885424 -37311550 -422020801 -1464462471 -469027741 692535412 -12218726 1062608328 16141597
REM
CELL 1.54180   50.00000   50.00000   50.00000   90.00000   90.00000   90.00000
LATT -1
SFAC C  
C      1  0.5096310000000  0.4894840000000  0.4194560000000 1.0
C      1  0.4903540000000  0.4894820000000  0.5805410000000 1.0
C      1  0.5096290000000  0.5105160000000  0.5805450000000 1.0
C      1  0.4903560000000  0.5105190000000  0.4194590000000 1.0
C      1  0.5164290000000  0.5429440000000  0.4407000000000 1.0
C      1  0.4835760000000  0.5429560000000  0.5593030000000 1.0
C      1  0.5164260000000  0.4570550000000  0.5593020000000 1.0
C      1  0.4835790000000  0.4570430000000  0.4406960000000 1.0
C      1  0.5281950000000  0.5123140000000  0.4794330000000 1.0
C      1  0.4718050000000  0.5123150000000  0.5205670000000 1.0
C      1  0.5281940000000  0.4876860000000  0.5205680000000 1.0
C      1  0.4718070000000  0.4876850000000  0.4794320000000 1.0
C      1  0.5700220000000  0.5271970000000  0.4725840000000 1.0
C      1  0.4299800000000  0.5271980000000  0.5274170000000 1.0
C      1  0.5700200000000  0.4728040000000  0.5274190000000 1.0
C      1  0.4299820000000  0.4728020000000  0.4725800000000 1.0
C      1  0.4374360000000  0.4757680000000  0.5303250000000 1.0
C      1  0.5625650000000  0.4757680000000  0.4696760000000 1.0
C      1  0.4374370000000  0.5242320000000  0.4696720000000 1.0
C      1  0.5625630000000  0.5242320000000  0.5303270000000 1.0
C      1  0.5074070000000  0.4740170000000  0.4438040000000 1.0
C      1  0.4925900000000  0.4740190000000  0.5561920000000 1.0
C      1  0.5074060000000  0.5259830000000  0.5561960000000 1.0
C      1  0.4925920000000  0.5259810000000  0.4438090000000 1.0
C      1  0.5144740000000  0.4692500000000  0.4965830000000 1.0
C      1  0.4855260000000  0.4692500000000  0.5034160000000 1.0
C      1  0.5144740000000  0.5307500000000  0.5034180000000 1.0
C      1  0.4855260000000  0.5307500000000  0.4965840000000 1.0
C      1  0.4486450000000  0.4328250000000  0.4978970000000 1.0
C      1  0.5513570000000  0.4328260000000  0.5021040000000 1.0
C      1  0.4486450000000  0.5671740000000  0.5021000000000 1.0
C      1  0.5513570000000  0.5671750000000  0.4978980000000 1.0
C      1  0.4718270000000  0.5579590000000  0.5386420000000 1.0
C      1  0.5281760000000  0.5579550000000  0.4613550000000 1.0
C      1  0.4718300000000  0.4420400000000  0.4613570000000 1.0
C      1  0.5281740000000  0.4420440000000  0.5386460000000 1.0
C      1  0.5153190000000  0.5143140000000  0.5282900000000 1.0
C      1  0.4846800000000  0.5143140000000  0.4717130000000 1.0
C      1  0.5153200000000  0.4856860000000  0.4717110000000 1.0
C      1  0.4846790000000  0.4856860000000  0.5282870000000 1.0
C      1  0.5567070000000  0.5535500000000  0.4718890000000 1.0
C      1  0.4432940000000  0.5535510000000  0.5281100000000 1.0
C      1  0.5567060000000  0.4464500000000  0.5281130000000 1.0
C      1  0.4432970000000  0.4464490000000  0.4718870000000 1.0
C      1  0.4757420000000  0.5608460000000  0.4866380000000 1.0
C      1  0.5242590000000  0.5608460000000  0.5133590000000 1.0
C      1  0.4757420000000  0.4391540000000  0.5133610000000 1.0
C      1  0.5242600000000  0.4391540000000  0.4866420000000 1.0
C      1  0.4578050000000  0.4543300000000  0.5359000000000 1.0
C      1  0.5421960000000  0.4543290000000  0.4641010000000 1.0
C      1  0.4578070000000  0.5456700000000  0.4640970000000 1.0
C      1  0.5421940000000  0.5456710000000  0.5359010000000 1.0
C      1  0.5572000000000  0.5021720000000  0.4841210000000 1.0
C      1  0.4428000000000  0.5021720000000  0.5158790000000 1.0
C      1  0.5571990000000  0.4978280000000  0.5158820000000 1.0
C      1  0.4428010000000  0.4978280000000  0.4841180000000 1.0
C      1  0.5108090000000  0.5679800000000  0.4820960000000 1.0
C      1  0.4891930000000  0.5679810000000  0.5178990000000 1.0
C      1  0.5108080000000  0.4320200000000  0.5179050000000 1.0
C      1  0.4891940000000  0.4320190000000  0.4821010000000 1.0
END
