TITL C-3985254-1270-1185 -0.000111278855348408 125000 -296.523023265972 0 0 60 (C2) n - 1
REM
REM in /home/nfs/bkarasulu/CARBON/AIRSS/Generating-Clusters/TERSOFF/Higher-Symm/Only-C60
REM
REM
REM
REM
REM
REM ./C.cell (28575a23ae977d3b5fae324c64b13b57)
REM
REM compiler GCC version 9.2.1 20190827 (Red Hat 9.2.1-1)
REM options -cpp -mtune=generic -march=x86-64 -g -O0 -fpre-include=/usr/include/finclude/math-vector-fortran.h
REM seed -1612035249 644044899 779869094 283235057 691734565 -1126779856 -6331266 1599081882 -1799859708 -10616704 1611861637 -790600024 1808147163 90761557 573286500 358325546 -1429288101 -193593769 -1421045095 -528751710 -1838366820 1828482350 -1569671891 222947383 -1749403491 -9283518 -1852738771 -1408719679 1302657931 514906948 -1830366601 1961874654 1845182323
REM
CELL 1.54180   50.00000   50.00000   50.00000   90.00000   90.00000   90.00000
LATT -1
SFAC C  
C      1  0.4986100000000  0.4271150000000  0.4937540000000 1.0
C      1  0.4950110000000  0.5421220000000  0.4447630000000 1.0
C      1  0.4969790000000  0.5318350000000  0.5642150000000 1.0
C      1  0.5013900000000  0.5728840000000  0.4937540000000 1.0
C      1  0.5049910000000  0.4578790000000  0.4447630000000 1.0
C      1  0.5030220000000  0.4681650000000  0.5642140000000 1.0
C      1  0.5099470000000  0.4466370000000  0.5421560000000 1.0
C      1  0.5105130000000  0.4900780000000  0.4340370000000 1.0
C      1  0.5089200000000  0.5631100000000  0.5228270000000 1.0
C      1  0.4900530000000  0.5533620000000  0.5421550000000 1.0
C      1  0.4894890000000  0.5099230000000  0.4340360000000 1.0
C      1  0.4910800000000  0.4368910000000  0.5228260000000 1.0
C      1  0.4665970000000  0.4377020000000  0.4804670000000 1.0
C      1  0.4609020000000  0.5496330000000  0.4555170000000 1.0
C      1  0.4658540000000  0.5134680000000  0.5631670000000 1.0
C      1  0.5334020000000  0.5622970000000  0.4804670000000 1.0
C      1  0.5390980000000  0.4503680000000  0.4555180000000 1.0
C      1  0.5341470000000  0.4865320000000  0.5631660000000 1.0
C      1  0.4764790000000  0.5318760000000  0.5269510000000 1.0
C      1  0.4758490000000  0.4606480000000  0.5142180000000 1.0
C      1  0.4733390000000  0.5098520000000  0.4604440000000 1.0
C      1  0.5235200000000  0.4681250000000  0.5269530000000 1.0
C      1  0.5241500000000  0.5393520000000  0.5142190000000 1.0
C      1  0.5266600000000  0.4901460000000  0.4604450000000 1.0
C      1  0.5523760000000  0.5434570000000  0.5449340000000 1.0
C      1  0.5531530000000  0.4409380000000  0.5149300000000 1.0
C      1  0.5536190000000  0.5171710000000  0.4430760000000 1.0
C      1  0.4476250000000  0.4565430000000  0.5449340000000 1.0
C      1  0.4468470000000  0.5590620000000  0.5149300000000 1.0
C      1  0.4463820000000  0.4828300000000  0.4430730000000 1.0
C      1  0.5334870000000  0.4317150000000  0.4859480000000 1.0
C      1  0.5302860000000  0.5431910000000  0.4524300000000 1.0
C      1  0.5296100000000  0.5223180000000  0.5636460000000 1.0
C      1  0.4665130000000  0.5682860000000  0.4859480000000 1.0
C      1  0.4697140000000  0.4568090000000  0.4524280000000 1.0
C      1  0.4703910000000  0.4776820000000  0.5636460000000 1.0
C      1  0.5337900000000  0.5114020000000  0.4795700000000 1.0
C      1  0.5350070000000  0.5118360000000  0.5235830000000 1.0
C      1  0.5301520000000  0.4716290000000  0.4979460000000 1.0
C      1  0.4662080000000  0.4885990000000  0.4795690000000 1.0
C      1  0.4649930000000  0.4881630000000  0.5235810000000 1.0
C      1  0.4698480000000  0.5283710000000  0.4979440000000 1.0
C      1  0.5530520000000  0.4709670000000  0.5358410000000 1.0
C      1  0.5562480000000  0.4828170000000  0.4554270000000 1.0
C      1  0.5531270000000  0.5487610000000  0.5085350000000 1.0
C      1  0.4469490000000  0.5290330000000  0.5358410000000 1.0
C      1  0.4437520000000  0.5171830000000  0.4554250000000 1.0
C      1  0.4468720000000  0.4512390000000  0.5085350000000 1.0
C      1  0.4424060000000  0.5218160000000  0.4892020000000 1.0
C      1  0.4348690000000  0.5025910000000  0.5145700000000 1.0
C      1  0.4388880000000  0.4800520000000  0.4917540000000 1.0
C      1  0.5575950000000  0.4781820000000  0.4892040000000 1.0
C      1  0.5651310000000  0.4974090000000  0.5145700000000 1.0
C      1  0.5611110000000  0.5199480000000  0.4917540000000 1.0
C      1  0.5132950000000  0.4955190000000  0.5280690000000 1.0
C      1  0.5094740000000  0.4693060000000  0.4779110000000 1.0
C      1  0.5142530000000  0.5262470000000  0.4901160000000 1.0
C      1  0.4867050000000  0.5044810000000  0.5280680000000 1.0
C      1  0.4905260000000  0.5306940000000  0.4779110000000 1.0
C      1  0.4857450000000  0.4737520000000  0.4901150000000 1.0
END
