TITL C-3985254-1270-2035 -0.000178158924107963 125000 -325.960989468483 0 0 60 (C5) n - 1
REM
REM in /home/nfs/bkarasulu/CARBON/AIRSS/Generating-Clusters/TERSOFF/Higher-Symm/Only-C60
REM
REM
REM
REM
REM
REM ./C.cell (28575a23ae977d3b5fae324c64b13b57)
REM
REM compiler GCC version 9.2.1 20190827 (Red Hat 9.2.1-1)
REM options -cpp -mtune=generic -march=x86-64 -g -O0 -fpre-include=/usr/include/finclude/math-vector-fortran.h
REM seed 1327515824 -522885683 994611333 661792775 1465793389 -1839207123 1246995436 937397270 -683673490 256950048 -1719415461 -780586315 -1511232653 -1130726742 576920766 1960887856 -970375575 2050814348 1165360423 1106103026 1641300601 293886825 -164196575 2107945127 2072195704 1283655166 -1247802756 246519957 -1662711633 -383387439 1444075542 -1899866059 1063938840
REM
CELL 1.54180   50.00000   50.00000   50.00000   90.00000   90.00000   90.00000
LATT -1
SFAC C  
C      1  0.5252080000000  0.4731190000000  0.5307350000000 1.0
C      1  0.4822190000000  0.4676990000000  0.5306950000000 1.0
C      1  0.4638150000000  0.5068960000000  0.5306810000000 1.0
C      1  0.4953660000000  0.5365810000000  0.5307000000000 1.0
C      1  0.5333660000000  0.5156960000000  0.5307370000000 1.0
C      1  0.5163560000000  0.5623410000000  0.5562850000000 1.0
C      1  0.5643730000000  0.5036670000000  0.5562850000000 1.0
C      1  0.5232810000000  0.4399350000000  0.5563310000000 1.0
C      1  0.4500720000000  0.4592980000000  0.5563170000000 1.0
C      1  0.4458580000000  0.5348000000000  0.5563720000000 1.0
C      1  0.4763380000000  0.4870870000000  0.4878910000000 1.0
C      1  0.4804160000000  0.5185170000000  0.4878970000000 1.0
C      1  0.5115710000000  0.5243500000000  0.4879200000000 1.0
C      1  0.5267400000000  0.4965220000000  0.4879300000000 1.0
C      1  0.5049660000000  0.4734940000000  0.4879120000000 1.0
C      1  0.5096670000000  0.4566400000000  0.4626130000000 1.0
C      1  0.4617510000000  0.4774070000000  0.4625990000000 1.0
C      1  0.4667030000000  0.5293950000000  0.4625990000000 1.0
C      1  0.5176790000000  0.5407670000000  0.4626230000000 1.0
C      1  0.5442140000000  0.4957880000000  0.4626220000000 1.0
C      1  0.5104090000000  0.5233210000000  0.4392740000000 1.0
C      1  0.5254010000000  0.4973110000000  0.4392810000000 1.0
C      1  0.5053000000000  0.4750140000000  0.4392720000000 1.0
C      1  0.4778780000000  0.4872400000000  0.4392580000000 1.0
C      1  0.4810360000000  0.5171020000000  0.4392590000000 1.0
C      1  0.4253930000000  0.4500110000000  0.5075220000000 1.0
C      1  0.4293970000000  0.5554500000000  0.5075890000000 1.0
C      1  0.5309660000000  0.5842900000000  0.5075240000000 1.0
C      1  0.5897290000000  0.4965970000000  0.5075200000000 1.0
C      1  0.5244960000000  0.4135980000000  0.5075200000000 1.0
C      1  0.4316220000000  0.4885290000000  0.4660940000000 1.0
C      1  0.4679530000000  0.5614870000000  0.4661250000000 1.0
C      1  0.5485760000000  0.5494850000000  0.4660960000000 1.0
C      1  0.5620720000000  0.4690880000000  0.4661000000000 1.0
C      1  0.4897850000000  0.4314180000000  0.4660970000000 1.0
C      1  0.4815680000000  0.4759450000000  0.5621580000000 1.0
C      1  0.4714130000000  0.5100380000000  0.5621420000000 1.0
C      1  0.5006950000000  0.5304510000000  0.5621700000000 1.0
C      1  0.5291490000000  0.5087490000000  0.5622190000000 1.0
C      1  0.5171940000000  0.4749990000000  0.5622010000000 1.0
C      1  0.5690110000000  0.4927640000000  0.5274650000000 1.0
C      1  0.5144380000000  0.4321160000000  0.5274740000000 1.0
C      1  0.4399150000000  0.4652910000000  0.5274660000000 1.0
C      1  0.4484120000000  0.5463750000000  0.5275360000000 1.0
C      1  0.5282090000000  0.5634090000000  0.5274680000000 1.0
C      1  0.5828010000000  0.4955710000000  0.4791200000000 1.0
C      1  0.5213730000000  0.4198930000000  0.4791160000000 1.0
C      1  0.4304190000000  0.4549270000000  0.4791170000000 1.0
C      1  0.4356400000000  0.5522140000000  0.4791830000000 1.0
C      1  0.5297910000000  0.5773420000000  0.4791090000000 1.0
C      1  0.5394860000000  0.4448980000000  0.4647970000000 1.0
C      1  0.4597960000000  0.4454190000000  0.4647940000000 1.0
C      1  0.4356780000000  0.5213650000000  0.4647980000000 1.0
C      1  0.5004440000000  0.5677750000000  0.4648030000000 1.0
C      1  0.5646040000000  0.5205220000000  0.4648020000000 1.0
C      1  0.4712270000000  0.5304130000000  0.5159420000000 1.0
C      1  0.5200290000000  0.5367650000000  0.5159710000000 1.0
C      1  0.5411350000000  0.4923170000000  0.5159940000000 1.0
C      1  0.5054100000000  0.4584800000000  0.5159570000000 1.0
C      1  0.4621910000000  0.4820250000000  0.5159210000000 1.0
END
