TITL C-3985244-725-100 2.66044605831113e-07 125000 -326.254083252325 0 0 60 (D3) n - 1
REM
REM in /home/nfs/bkarasulu/CARBON/AIRSS/Generating-Clusters/TERSOFF/Higher-Symm/Only-C60
REM
REM
REM
REM
REM
REM ./C.cell (28575a23ae977d3b5fae324c64b13b57)
REM
REM compiler GCC version 9.2.1 20190827 (Red Hat 9.2.1-1)
REM options -cpp -mtune=generic -march=x86-64 -g -O0 -fpre-include=/usr/include/finclude/math-vector-fortran.h
REM seed -1946226092 -528091589 860614264 -1811972521 -2109086885 -1132019650 3244148 -1416083863 -118313476 -1477236080 -196777426 -851994233 39088589 213750032 -1147756499 1759492190 470271461 1828807012 548016858 686661146 -869469249 597635976 -204103242 -1486030352 1062983572 -1543283091 -817290781 -486026513 -531511828 453335264 1798585404 79350204 -1004872194
REM
CELL 1.54180   50.00000   50.00000   50.00000   90.00000   90.00000   90.00000
LATT -1
SFAC C  
C      1  0.4896860000000  0.4769270000000  0.5147870000000 1.0
C      1  0.5251390000000  0.5026030000000  0.5147870000000 1.0
C      1  0.4851750000000  0.5204690000000  0.5147870000000 1.0
C      1  0.5103140000000  0.4769270000000  0.4852130000000 1.0
C      1  0.4748610000000  0.5026030000000  0.4852130000000 1.0
C      1  0.5148250000000  0.5204690000000  0.4852130000000 1.0
C      1  0.5433630000000  0.4511360000000  0.4765780000000 1.0
C      1  0.5206360000000  0.5619870000000  0.4765780000000 1.0
C      1  0.4360000000000  0.4868790000000  0.4765790000000 1.0
C      1  0.4566370000000  0.4511360000000  0.5234220000000 1.0
C      1  0.4793640000000  0.5619870000000  0.5234220000000 1.0
C      1  0.5640000000000  0.4868790000000  0.5234210000000 1.0
C      1  0.4712490000000  0.5569200000000  0.4959600000000 1.0
C      1  0.4650810000000  0.4466400000000  0.4959590000000 1.0
C      1  0.5636700000000  0.4964400000000  0.4959580000000 1.0
C      1  0.5287510000000  0.5569200000000  0.5040400000000 1.0
C      1  0.5349190000000  0.4466400000000  0.5040410000000 1.0
C      1  0.4363300000000  0.4964400000000  0.5040420000000 1.0
C      1  0.4963820000000  0.4386900000000  0.4607930000000 1.0
C      1  0.5549040000000  0.5275220000000  0.4607930000000 1.0
C      1  0.4487130000000  0.5337880000000  0.4607940000000 1.0
C      1  0.5036180000000  0.4386900000000  0.5392070000000 1.0
C      1  0.4450960000000  0.5275220000000  0.5392070000000 1.0
C      1  0.5512870000000  0.5337880000000  0.5392060000000 1.0
C      1  0.5349940000000  0.5490250000000  0.4538030000000 1.0
C      1  0.4400460000000  0.5057950000000  0.4538050000000 1.0
C      1  0.5249580000000  0.4451810000000  0.4538040000000 1.0
C      1  0.4650060000000  0.5490250000000  0.5461970000000 1.0
C      1  0.5599540000000  0.5057950000000  0.5461950000000 1.0
C      1  0.4750420000000  0.4451810000000  0.5461960000000 1.0
C      1  0.5265770000000  0.4713670000000  0.4366000000000 1.0
C      1  0.5115070000000  0.5373330000000  0.4366000000000 1.0
C      1  0.4619130000000  0.4912990000000  0.4366000000000 1.0
C      1  0.4734230000000  0.4713670000000  0.5634000000000 1.0
C      1  0.4884930000000  0.5373330000000  0.5634000000000 1.0
C      1  0.5380870000000  0.4912990000000  0.5634000000000 1.0
C      1  0.4827720000000  0.5101690000000  0.5457240000000 1.0
C      1  0.4998080000000  0.4799940000000  0.5457250000000 1.0
C      1  0.5174220000000  0.5098350000000  0.5457250000000 1.0
C      1  0.5172280000000  0.5101690000000  0.4542760000000 1.0
C      1  0.5001920000000  0.4799940000000  0.4542750000000 1.0
C      1  0.4825780000000  0.5098350000000  0.4542750000000 1.0
C      1  0.5201390000000  0.5420550000000  0.5515320000000 1.0
C      1  0.4535100000000  0.4964130000000  0.5515340000000 1.0
C      1  0.5263530000000  0.4615310000000  0.5515330000000 1.0
C      1  0.4798610000000  0.5420550000000  0.4484680000000 1.0
C      1  0.5464900000000  0.4964130000000  0.4484660000000 1.0
C      1  0.4736470000000  0.4615310000000  0.4484670000000 1.0
C      1  0.5454740000000  0.4822380000000  0.4773770000000 1.0
C      1  0.4926460000000  0.5482630000000  0.4773790000000 1.0
C      1  0.4618800000000  0.4694990000000  0.4773780000000 1.0
C      1  0.4545260000000  0.4822380000000  0.5226230000000 1.0
C      1  0.5073540000000  0.5482630000000  0.5226210000000 1.0
C      1  0.5381200000000  0.4694990000000  0.5226220000000 1.0
C      1  0.4353150000000  0.5251350000000  0.5103500000000 1.0
C      1  0.5105760000000  0.4314130000000  0.5103490000000 1.0
C      1  0.5541100000000  0.5434520000000  0.5103480000000 1.0
C      1  0.5646850000000  0.5251350000000  0.4896500000000 1.0
C      1  0.4894240000000  0.4314130000000  0.4896510000000 1.0
C      1  0.4458900000000  0.5434520000000  0.4896520000000 1.0
END
