TITL C-3985250-725-971 -0.000271108475444774 125000 -313.646661652088 0 0 60 (C3h) n - 1
REM
REM in /home/nfs/bkarasulu/CARBON/AIRSS/Generating-Clusters/TERSOFF/Higher-Symm/Only-C60
REM
REM
REM
REM
REM
REM ./C.cell (28575a23ae977d3b5fae324c64b13b57)
REM
REM compiler GCC version 9.2.1 20190827 (Red Hat 9.2.1-1)
REM options -cpp -mtune=generic -march=x86-64 -g -O0 -fpre-include=/usr/include/finclude/math-vector-fortran.h
REM seed 1989235777 76582635 -371219664 2086421294 -1965618464 -391606481 -1301961225 2077992871 -1076473267 1840876838 129552509 1981859061 736643814 -1947364270 -673991621 24148035 -287990685 -1047631824 -1361238342 -1270054562 -1836210621 -120043617 2068150318 -403336932 -653731128 462138248 753594701 -123231742 -1372154952 -1613635778 794583044 1863369774 -358563313
REM
CELL 1.54180   50.00000   50.00000   50.00000   90.00000   90.00000   90.00000
LATT -1
SFAC C  
C      1  0.5121040000000  0.5565020000000  0.4743420000000 1.0
C      1  0.5428800000000  0.4612650000000  0.4743430000000 1.0
C      1  0.4450160000000  0.4822310000000  0.4743400000000 1.0
C      1  0.5121030000000  0.5565020000000  0.5256590000000 1.0
C      1  0.5428810000000  0.4612680000000  0.5256600000000 1.0
C      1  0.4450150000000  0.4822300000000  0.5256590000000 1.0
C      1  0.4469080000000  0.4877530000000  0.5551990000000 1.0
C      1  0.5159430000000  0.5521020000000  0.5551950000000 1.0
C      1  0.5371530000000  0.4601450000000  0.5551970000000 1.0
C      1  0.4469070000000  0.4877570000000  0.4448080000000 1.0
C      1  0.5159390000000  0.5521030000000  0.4448020000000 1.0
C      1  0.5371520000000  0.4601440000000  0.4448040000000 1.0
C      1  0.4744760000000  0.4474030000000  0.5155040000000 1.0
C      1  0.4672110000000  0.5484020000000  0.5155040000000 1.0
C      1  0.5583120000000  0.5041940000000  0.5155040000000 1.0
C      1  0.4744780000000  0.4474010000000  0.4844960000000 1.0
C      1  0.4672110000000  0.5484020000000  0.4844960000000 1.0
C      1  0.5583120000000  0.5041950000000  0.4844960000000 1.0
C      1  0.4615760000000  0.5359550000000  0.4384080000000 1.0
C      1  0.5503470000000  0.5153030000000  0.4384120000000 1.0
C      1  0.4880800000000  0.4487470000000  0.4384100000000 1.0
C      1  0.4615730000000  0.5359510000000  0.5615870000000 1.0
C      1  0.5503500000000  0.5153020000000  0.5615930000000 1.0
C      1  0.4880760000000  0.4487460000000  0.5615870000000 1.0
C      1  0.4708930000000  0.4963510000000  0.5149780000000 1.0
C      1  0.5113920000000  0.5270320000000  0.5149770000000 1.0
C      1  0.5177130000000  0.4766170000000  0.5149780000000 1.0
C      1  0.4708930000000  0.4963490000000  0.4850240000000 1.0
C      1  0.5113930000000  0.5270310000000  0.4850220000000 1.0
C      1  0.5177140000000  0.4766160000000  0.4850230000000 1.0
C      1  0.4768680000000  0.4762430000000  0.5561810000000 1.0
C      1  0.4909900000000  0.5319130000000  0.5561810000000 1.0
C      1  0.5321430000000  0.4918480000000  0.5561790000000 1.0
C      1  0.4768680000000  0.4762420000000  0.4438200000000 1.0
C      1  0.4909900000000  0.5319120000000  0.4438200000000 1.0
C      1  0.5321420000000  0.4918470000000  0.4438190000000 1.0
C      1  0.4819130000000  0.5232260000000  0.4741340000000 1.0
C      1  0.5291590000000  0.5040490000000  0.4741350000000 1.0
C      1  0.4889280000000  0.4727220000000  0.4741350000000 1.0
C      1  0.4819130000000  0.5232270000000  0.5258660000000 1.0
C      1  0.5291580000000  0.5040490000000  0.5258660000000 1.0
C      1  0.4889280000000  0.4727220000000  0.5258670000000 1.0
C      1  0.5550990000000  0.5459940000000  0.5173820000000 1.0
C      1  0.5122880000000  0.4292960000000  0.5173740000000 1.0
C      1  0.4326200000000  0.5247160000000  0.5173780000000 1.0
C      1  0.5550950000000  0.5459950000000  0.4826210000000 1.0
C      1  0.5122830000000  0.4292820000000  0.4826140000000 1.0
C      1  0.4326160000000  0.5247220000000  0.4826170000000 1.0
C      1  0.4429750000000  0.5178540000000  0.5478090000000 1.0
C      1  0.5439770000000  0.5404620000000  0.5478130000000 1.0
C      1  0.5130540000000  0.4416860000000  0.5478120000000 1.0
C      1  0.4429700000000  0.5178530000000  0.4521870000000 1.0
C      1  0.5439740000000  0.5404580000000  0.4521910000000 1.0
C      1  0.5130500000000  0.4416890000000  0.4521900000000 1.0
C      1  0.4429460000000  0.4538300000000  0.5158710000000 1.0
C      1  0.4885380000000  0.5724970000000  0.5158680000000 1.0
C      1  0.5685140000000  0.4736780000000  0.5158680000000 1.0
C      1  0.4429480000000  0.4538220000000  0.4841330000000 1.0
C      1  0.4885430000000  0.5724940000000  0.4841290000000 1.0
C      1  0.5685100000000  0.4736730000000  0.4841300000000 1.0
END
