TITL C-3985254-1270-899 -0.000455012729990367 125000 -342.312766244525 0 0 60 (C1) n - 1
REM
REM in /home/nfs/bkarasulu/CARBON/AIRSS/Generating-Clusters/TERSOFF/Higher-Symm/Only-C60
REM
REM
REM
REM
REM
REM ./C.cell (28575a23ae977d3b5fae324c64b13b57)
REM
REM compiler GCC version 9.2.1 20190827 (Red Hat 9.2.1-1)
REM options -cpp -mtune=generic -march=x86-64 -g -O0 -fpre-include=/usr/include/finclude/math-vector-fortran.h
REM seed -2024089243 -1866440513 1661650300 -1607925894 216789796 -956974101 -534481496 -879426307 -949969465 1889474452 1679186756 536069109 -1189048691 1996658313 239938398 -933840900 1067531953 -1924509446 1453210133 1897191197 -1089424988 -878238208 -756103195 -913828285 -1564321152 -834259271 -603625877 -39279029 326287918 -409872554 -762306710 -1148418308 163067710
REM
CELL 1.54180   50.00000   50.00000   50.00000   90.00000   90.00000   90.00000
LATT -1
SFAC C  
C      1  0.4967060000000  0.4373290000000  0.5352050000000 1.0
C      1  0.5477720000000  0.4594170000000  0.5355790000000 1.0
C      1  0.5623300000000  0.5146980000000  0.5372130000000 1.0
C      1  0.5291790000000  0.5590260000000  0.5400030000000 1.0
C      1  0.4715650000000  0.5608330000000  0.5411140000000 1.0
C      1  0.4351080000000  0.5162620000000  0.5389050000000 1.0
C      1  0.4478990000000  0.4627720000000  0.5354550000000 1.0
C      1  0.5163330000000  0.4752040000000  0.5056500000000 1.0
C      1  0.5258340000000  0.4944160000000  0.4834930000000 1.0
C      1  0.5193510000000  0.5170120000000  0.5073450000000 1.0
C      1  0.4989240000000  0.5265990000000  0.4885230000000 1.0
C      1  0.4735800000000  0.5147090000000  0.4907570000000 1.0
C      1  0.4708120000000  0.4894560000000  0.5079580000000 1.0
C      1  0.4886950000000  0.4706350000000  0.4966320000000 1.0
C      1  0.4430550000000  0.4572390000000  0.5072410000000 1.0
C      1  0.4987280000000  0.4306970000000  0.5069940000000 1.0
C      1  0.5537670000000  0.4562920000000  0.5074030000000 1.0
C      1  0.5644620000000  0.5143950000000  0.5086380000000 1.0
C      1  0.5285590000000  0.5590900000000  0.5107400000000 1.0
C      1  0.4707280000000  0.5616680000000  0.5118710000000 1.0
C      1  0.4322960000000  0.5159290000000  0.5097650000000 1.0
C      1  0.5006660000000  0.4659230000000  0.4278000000000 1.0
C      1  0.5282240000000  0.4790060000000  0.4270890000000 1.0
C      1  0.5346150000000  0.5087440000000  0.4275970000000 1.0
C      1  0.5148610000000  0.5321010000000  0.4284820000000 1.0
C      1  0.4841120000000  0.5314470000000  0.4296070000000 1.0
C      1  0.4649440000000  0.5079770000000  0.4279400000000 1.0
C      1  0.4730980000000  0.4787440000000  0.4283640000000 1.0
C      1  0.4588700000000  0.4670540000000  0.4525350000000 1.0
C      1  0.5013360000000  0.4465100000000  0.4515430000000 1.0
C      1  0.5444850000000  0.4656100000000  0.4499850000000 1.0
C      1  0.5548080000000  0.5133910000000  0.4506780000000 1.0
C      1  0.5242340000000  0.5496390000000  0.4522990000000 1.0
C      1  0.4759260000000  0.5467460000000  0.4547020000000 1.0
C      1  0.4434960000000  0.5112710000000  0.4507270000000 1.0
C      1  0.5255600000000  0.4787290000000  0.5402830000000 1.0
C      1  0.5369650000000  0.5093230000000  0.5495880000000 1.0
C      1  0.5179420000000  0.5371570000000  0.5564130000000 1.0
C      1  0.4819000000000  0.5378320000000  0.5563280000000 1.0
C      1  0.4610330000000  0.5116370000000  0.5520110000000 1.0
C      1  0.4696900000000  0.4826720000000  0.5408310000000 1.0
C      1  0.4969530000000  0.4647080000000  0.5441990000000 1.0
C      1  0.4547800000000  0.5310460000000  0.4701130000000 1.0
C      1  0.4383070000000  0.4852080000000  0.4635880000000 1.0
C      1  0.4790640000000  0.4535780000000  0.4705160000000 1.0
C      1  0.5282730000000  0.4437780000000  0.4626090000000 1.0
C      1  0.5524510000000  0.4887120000000  0.4679940000000 1.0
C      1  0.5490830000000  0.5391510000000  0.4644860000000 1.0
C      1  0.5010540000000  0.5519300000000  0.4708260000000 1.0
C      1  0.5302660000000  0.4383860000000  0.4913880000000 1.0
C      1  0.5652260000000  0.4848350000000  0.4944440000000 1.0
C      1  0.5515020000000  0.5402910000000  0.4939700000000 1.0
C      1  0.5002270000000  0.5676560000000  0.4970110000000 1.0
C      1  0.4437620000000  0.5435780000000  0.4963160000000 1.0
C      1  0.4322840000000  0.4843780000000  0.4923440000000 1.0
C      1  0.4671530000000  0.4349020000000  0.4924890000000 1.0
C      1  0.5046000000000  0.5157680000000  0.5899860000000 1.0
C      1  0.5045710000000  0.4945970000000  0.4619460000000 1.0
C      1  0.4995540000000  0.5099710000000  0.5305590000000 1.0
C      1  0.4991680000000  0.5006820000000  0.5654490000000 1.0
END
