TITL C-3985251-913-496 0.0209166628639052 125000 -299.243228592108 0 0 60 (S12) n - 1
REM
REM in /home/nfs/bkarasulu/CARBON/AIRSS/Generating-Clusters/TERSOFF/Higher-Symm/Only-C60
REM
REM
REM
REM
REM
REM ./C.cell (28575a23ae977d3b5fae324c64b13b57)
REM
REM compiler GCC version 9.2.1 20190827 (Red Hat 9.2.1-1)
REM options -cpp -mtune=generic -march=x86-64 -g -O0 -fpre-include=/usr/include/finclude/math-vector-fortran.h
REM seed 638873699 548699881 1120189462 -647474059 -1069036205 1972685150 674491377 -367594689 -1047634026 127866466 -1557771629 -729672403 354955600 -598266405 -1976238140 198457348 -281137058 1826327638 -568024868 1988810716 -576094886 2096181974 -867027735 1781125677 152060349 -427688379 894224606 1223911744 -234635271 -116874555 -1257206662 464604223 -135223716
REM
CELL 1.54180   50.00000   50.00000   50.00000   90.00000   90.00000   90.00000
LATT -1
SFAC C  
C      1  0.5307750000000  0.4393410000000  0.4906370000000 1.0
C      1  0.5219640000000  0.5607210000000  0.4765080000000 1.0
C      1  0.5073080000000  0.4395850000000  0.4687350000000 1.0
C      1  0.4906370000000  0.5606590000000  0.4692250000000 1.0
C      1  0.4765080000000  0.4392790000000  0.4780360000000 1.0
C      1  0.4687350000000  0.5604150000000  0.4926920000000 1.0
C      1  0.4692250000000  0.4393410000000  0.5093630000000 1.0
C      1  0.4780360000000  0.5607210000000  0.5234920000000 1.0
C      1  0.4926920000000  0.4395850000000  0.5312650000000 1.0
C      1  0.5093630000000  0.5606590000000  0.5307750000000 1.0
C      1  0.5234920000000  0.4392790000000  0.5219640000000 1.0
C      1  0.5312650000000  0.5604150000000  0.5073080000000 1.0
C      1  0.4724710000000  0.4802290000000  0.5004280000000 1.0
C      1  0.4761630000000  0.5197050000000  0.5141320000000 1.0
C      1  0.4863940000000  0.4802030000000  0.5239920000000 1.0
C      1  0.5004280000000  0.5197710000000  0.5275290000000 1.0
C      1  0.5141320000000  0.4802950000000  0.5238370000000 1.0
C      1  0.5239920000000  0.5197970000000  0.5136060000000 1.0
C      1  0.5275290000000  0.4802290000000  0.4995720000000 1.0
C      1  0.5238370000000  0.5197050000000  0.4858680000000 1.0
C      1  0.5136060000000  0.4802030000000  0.4760080000000 1.0
C      1  0.4995720000000  0.5197710000000  0.4724710000000 1.0
C      1  0.4858680000000  0.4802950000000  0.4761630000000 1.0
C      1  0.4760080000000  0.5197970000000  0.4863940000000 1.0
C      1  0.4582370000000  0.5436610000000  0.5434520000000 1.0
C      1  0.4855230000000  0.4563750000000  0.5584720000000 1.0
C      1  0.5167440000000  0.5435380000000  0.5578270000000 1.0
C      1  0.5434520000000  0.4563390000000  0.5417630000000 1.0
C      1  0.5584720000000  0.5436250000000  0.5144770000000 1.0
C      1  0.5578270000000  0.4564620000000  0.4832560000000 1.0
C      1  0.5417630000000  0.5436610000000  0.4565480000000 1.0
C      1  0.5144770000000  0.4563750000000  0.4415280000000 1.0
C      1  0.4832560000000  0.5435380000000  0.4421730000000 1.0
C      1  0.4565480000000  0.4563390000000  0.4582370000000 1.0
C      1  0.4415280000000  0.5436250000000  0.4855230000000 1.0
C      1  0.4421730000000  0.4564620000000  0.5167440000000 1.0
C      1  0.4582490000000  0.5480630000000  0.4278270000000 1.0
C      1  0.4276840000000  0.4519190000000  0.4583620000000 1.0
C      1  0.4165480000000  0.5480820000000  0.5000980000000 1.0
C      1  0.4278270000000  0.4519370000000  0.5417510000000 1.0
C      1  0.4583620000000  0.5480810000000  0.5723160000000 1.0
C      1  0.5000980000000  0.4519180000000  0.5834520000000 1.0
C      1  0.5417510000000  0.5480630000000  0.5721730000000 1.0
C      1  0.5723160000000  0.4519190000000  0.5416380000000 1.0
C      1  0.5834520000000  0.5480820000000  0.4999020000000 1.0
C      1  0.5721730000000  0.4519370000000  0.4582490000000 1.0
C      1  0.5416380000000  0.5480810000000  0.4276840000000 1.0
C      1  0.4999020000000  0.4519180000000  0.4165480000000 1.0
C      1  0.5481570000000  0.5103300000000  0.4691200000000 1.0
C      1  0.5261590000000  0.4896730000000  0.4491430000000 1.0
C      1  0.4973020000000  0.5103380000000  0.4428390000000 1.0
C      1  0.4691200000000  0.4896700000000  0.4518430000000 1.0
C      1  0.4491430000000  0.5103270000000  0.4738410000000 1.0
C      1  0.4428390000000  0.4896620000000  0.5026980000000 1.0
C      1  0.4518430000000  0.5103300000000  0.5308800000000 1.0
C      1  0.4738410000000  0.4896730000000  0.5508570000000 1.0
C      1  0.5026980000000  0.5103380000000  0.5571610000000 1.0
C      1  0.5308800000000  0.4896700000000  0.5481570000000 1.0
C      1  0.5508570000000  0.5103270000000  0.5261590000000 1.0
C      1  0.5571610000000  0.4896620000000  0.4973020000000 1.0
END
