TITL C-3985245-9316-1001 0.00214788017604663 125000 -326.591750551331 0 0 60 (D5) n - 1
REM
REM in /home/nfs/bkarasulu/CARBON/AIRSS/Generating-Clusters/TERSOFF/Higher-Symm/Only-C60
REM
REM
REM
REM
REM
REM ./C.cell (28575a23ae977d3b5fae324c64b13b57)
REM
REM compiler GCC version 9.2.1 20190827 (Red Hat 9.2.1-1)
REM options -cpp -mtune=generic -march=x86-64 -g -O0 -fpre-include=/usr/include/finclude/math-vector-fortran.h
REM seed 1320325070 -1645792174 1772755796 -2112322759 -372165210 -1242884021 -637086389 643037028 815710950 71978921 -910900730 -1658024588 -201252615 1777217389 -1552364898 828518369 231486704 -802269247 1719104199 -475862785 466331616 -1446347398 1825352357 -662633603 -1877874688 -1677158232 1872834805 1776480371 1877360831 -269013982 1777696224 -1091790862 1325756865
REM
CELL 1.54180   50.00000   50.00000   50.00000   90.00000   90.00000   90.00000
LATT -1
SFAC C  
C      1  0.4784990000000  0.4631780000000  0.4397540000000 1.0
C      1  0.4360580000000  0.4631760000000  0.5018390000000 1.0
C      1  0.4819800000000  0.4631800000000  0.5613790000000 1.0
C      1  0.5528100000000  0.4631780000000  0.5360960000000 1.0
C      1  0.5506520000000  0.4631770000000  0.4609310000000 1.0
C      1  0.4784990000000  0.5412480000000  0.5602460000000 1.0
C      1  0.4360580000000  0.5412500000000  0.4981610000000 1.0
C      1  0.4819800000000  0.5412470000000  0.4386210000000 1.0
C      1  0.5528100000000  0.5412490000000  0.4639040000000 1.0
C      1  0.5506520000000  0.5412490000000  0.5390690000000 1.0
C      1  0.4887420000000  0.4905560000000  0.4352300000000 1.0
C      1  0.4349220000000  0.4905510000000  0.4906810000000 1.0
C      1  0.4710400000000  0.4905530000000  0.5590180000000 1.0
C      1  0.5471740000000  0.4905540000000  0.5457900000000 1.0
C      1  0.5581280000000  0.4905520000000  0.4692870000000 1.0
C      1  0.4887420000000  0.5138710000000  0.5647700000000 1.0
C      1  0.4349220000000  0.5138750000000  0.5093190000000 1.0
C      1  0.4710400000000  0.5138730000000  0.4409820000000 1.0
C      1  0.5471740000000  0.5138720000000  0.4542100000000 1.0
C      1  0.5581280000000  0.5138740000000  0.5307130000000 1.0
C      1  0.5097720000000  0.5243000000000  0.5257910000000 1.0
C      1  0.5275450000000  0.5243000000000  0.4986750000000 1.0
C      1  0.5072510000000  0.5243010000000  0.4733920000000 1.0
C      1  0.4769360000000  0.5243000000000  0.4848790000000 1.0
C      1  0.4784950000000  0.5243010000000  0.5172640000000 1.0
C      1  0.5097720000000  0.4801270000000  0.4742090000000 1.0
C      1  0.5275450000000  0.4801260000000  0.5013250000000 1.0
C      1  0.5072510000000  0.4801260000000  0.5266080000000 1.0
C      1  0.4769360000000  0.4801270000000  0.5151210000000 1.0
C      1  0.4784950000000  0.4801260000000  0.4827360000000 1.0
C      1  0.4718530000000  0.4542810000000  0.4674170000000 1.0
C      1  0.4603140000000  0.4542800000000  0.5167020000000 1.0
C      1  0.5036210000000  0.4542810000000  0.5429060000000 1.0
C      1  0.5419220000000  0.4542810000000  0.5098160000000 1.0
C      1  0.5222890000000  0.4542800000000  0.4631590000000 1.0
C      1  0.4718530000000  0.5501460000000  0.5325830000000 1.0
C      1  0.4603140000000  0.5501470000000  0.4832980000000 1.0
C      1  0.5036210000000  0.5501450000000  0.4570940000000 1.0
C      1  0.5419220000000  0.5501450000000  0.4901840000000 1.0
C      1  0.5222890000000  0.5501460000000  0.5368410000000 1.0
C      1  0.4761300000000  0.5745230000000  0.4902600000000 1.0
C      1  0.4833600000000  0.5745230000000  0.5196910000000 1.0
C      1  0.5135850000000  0.5745240000000  0.5219100000000 1.0
C      1  0.5250360000000  0.5745210000000  0.4938500000000 1.0
C      1  0.5018890000000  0.5745250000000  0.4742890000000 1.0
C      1  0.4761300000000  0.4299030000000  0.5097400000000 1.0
C      1  0.4833600000000  0.4299040000000  0.4803090000000 1.0
C      1  0.5135850000000  0.4299020000000  0.4780900000000 1.0
C      1  0.5250360000000  0.4299060000000  0.5061500000000 1.0
C      1  0.5018890000000  0.4299020000000  0.5257110000000 1.0
C      1  0.4583790000000  0.5022130000000  0.5302330000000 1.0
C      1  0.4583790000000  0.5022140000000  0.4697670000000 1.0
C      1  0.5514440000000  0.5022130000000  0.5000000000000 1.0
C      1  0.5159000000000  0.5022130000000  0.4510730000000 1.0
C      1  0.5159000000000  0.5022140000000  0.5489270000000 1.0
C      1  0.4318190000000  0.5022190000000  0.4504450000000 1.0
C      1  0.4318190000000  0.5022070000000  0.5495550000000 1.0
C      1  0.5260360000000  0.5022100000000  0.4198400000000 1.0
C      1  0.5260360000000  0.5022160000000  0.5801600000000 1.0
C      1  0.5842840000000  0.5022130000000  0.5000000000000 1.0
END
