TITL C-3985250-725-356 1.69880983159217e-07 125000 -302.207863927885 0 0 60 (C6) n - 1
REM
REM in /home/nfs/bkarasulu/CARBON/AIRSS/Generating-Clusters/TERSOFF/Higher-Symm/Only-C60
REM
REM
REM
REM
REM
REM ./C.cell (28575a23ae977d3b5fae324c64b13b57)
REM
REM compiler GCC version 9.2.1 20190827 (Red Hat 9.2.1-1)
REM options -cpp -mtune=generic -march=x86-64 -g -O0 -fpre-include=/usr/include/finclude/math-vector-fortran.h
REM seed 926533005 147992607 457660677 426895918 -462159740 -1660779372 853772974 274026086 192733695 -1100526577 1520702257 868698244 -103255349 -164260224 -1929742721 2000189807 702167892 1887362649 1724827443 1475851827 1952158797 -1904104358 -75841401 192882012 -1404448749 -798701563 -278213860 -228874054 -1490831089 1193851404 -1713143410 506181619 1828681121
REM
CELL 1.54180   50.00000   50.00000   50.00000   90.00000   90.00000   90.00000
LATT -1
SFAC C  
C      1  0.4580860000000  0.5503360000000  0.4689220000000 1.0
C      1  0.4580860000000  0.5520830000000  0.5280530000000 1.0
C      1  0.4580860000000  0.5017460000000  0.5591320000000 1.0
C      1  0.4580860000000  0.4496640000000  0.5310780000000 1.0
C      1  0.4580860000000  0.4479170000000  0.4719470000000 1.0
C      1  0.4580860000000  0.4982540000000  0.4408680000000 1.0
C      1  0.5419140000000  0.4496640000000  0.4689220000000 1.0
C      1  0.5419140000000  0.4479170000000  0.5280530000000 1.0
C      1  0.5419140000000  0.4982540000000  0.5591320000000 1.0
C      1  0.5419140000000  0.5503360000000  0.5310780000000 1.0
C      1  0.5419140000000  0.5520830000000  0.4719470000000 1.0
C      1  0.5419140000000  0.5017460000000  0.4408680000000 1.0
C      1  0.5158340000000  0.4684050000000  0.5023250000000 1.0
C      1  0.5158340000000  0.4821890000000  0.4738010000000 1.0
C      1  0.5158340000000  0.5137830000000  0.4714760000000 1.0
C      1  0.5158340000000  0.5315950000000  0.4976750000000 1.0
C      1  0.5158340000000  0.5178110000000  0.5261990000000 1.0
C      1  0.5158340000000  0.4862170000000  0.5285240000000 1.0
C      1  0.4841660000000  0.5315950000000  0.5023250000000 1.0
C      1  0.4841660000000  0.5178110000000  0.4738010000000 1.0
C      1  0.4841660000000  0.4862170000000  0.4714760000000 1.0
C      1  0.4841660000000  0.4684050000000  0.4976750000000 1.0
C      1  0.4841660000000  0.4821890000000  0.5261990000000 1.0
C      1  0.4841660000000  0.5137830000000  0.5285240000000 1.0
C      1  0.5119230000000  0.5555900000000  0.4520680000000 1.0
C      1  0.5119230000000  0.5693050000000  0.5241760000000 1.0
C      1  0.5119230000000  0.5137150000000  0.5721080000000 1.0
C      1  0.5119230000000  0.4444100000000  0.5479320000000 1.0
C      1  0.5119230000000  0.4306950000000  0.4758240000000 1.0
C      1  0.5119230000000  0.4862850000000  0.4278920000000 1.0
C      1  0.4880770000000  0.4444100000000  0.4520680000000 1.0
C      1  0.4880770000000  0.4306950000000  0.5241760000000 1.0
C      1  0.4880770000000  0.4862850000000  0.5721080000000 1.0
C      1  0.4880770000000  0.5555900000000  0.5479320000000 1.0
C      1  0.4880770000000  0.5693050000000  0.4758240000000 1.0
C      1  0.4880770000000  0.5137150000000  0.4278920000000 1.0
C      1  0.4804760000000  0.4365390000000  0.4924800000000 1.0
C      1  0.4804760000000  0.4747820000000  0.4412810000000 1.0
C      1  0.4804760000000  0.5382430000000  0.4488010000000 1.0
C      1  0.4804760000000  0.5634610000000  0.5075200000000 1.0
C      1  0.4804760000000  0.5252180000000  0.5587190000000 1.0
C      1  0.4804760000000  0.4617570000000  0.5511990000000 1.0
C      1  0.5195240000000  0.5634610000000  0.4924800000000 1.0
C      1  0.5195240000000  0.5252180000000  0.4412810000000 1.0
C      1  0.5195240000000  0.4617570000000  0.4488010000000 1.0
C      1  0.5195240000000  0.4365390000000  0.5075200000000 1.0
C      1  0.5195240000000  0.4747820000000  0.5587190000000 1.0
C      1  0.5195240000000  0.5382430000000  0.5511990000000 1.0
C      1  0.5554490000000  0.4998530000000  0.5307750000000 1.0
C      1  0.5554490000000  0.4732750000000  0.5152600000000 1.0
C      1  0.5554490000000  0.4734220000000  0.4844850000000 1.0
C      1  0.5554490000000  0.5001470000000  0.4692250000000 1.0
C      1  0.5554490000000  0.5267250000000  0.4847400000000 1.0
C      1  0.5554490000000  0.5265780000000  0.5155150000000 1.0
C      1  0.4445510000000  0.5001470000000  0.5307750000000 1.0
C      1  0.4445510000000  0.5267250000000  0.5152600000000 1.0
C      1  0.4445510000000  0.5265780000000  0.4844850000000 1.0
C      1  0.4445510000000  0.4998530000000  0.4692250000000 1.0
C      1  0.4445510000000  0.4732750000000  0.4847400000000 1.0
C      1  0.4445510000000  0.4734220000000  0.5155150000000 1.0
END
