TITL C-3985254-1270-1295 -0.00787492160261375 125000 -352.957352628138 0 0 60 (D3) n - 1
REM
REM in /home/nfs/bkarasulu/CARBON/AIRSS/Generating-Clusters/TERSOFF/Higher-Symm/Only-C60
REM
REM
REM
REM
REM
REM ./C.cell (28575a23ae977d3b5fae324c64b13b57)
REM
REM compiler GCC version 9.2.1 20190827 (Red Hat 9.2.1-1)
REM options -cpp -mtune=generic -march=x86-64 -g -O0 -fpre-include=/usr/include/finclude/math-vector-fortran.h
REM seed -1550010760 676113518 1364123225 -83273688 633961886 -771302226 216871431 -518427293 -1601695223 790808005 -669045620 -1685809825 -1811248709 1341813106 -1127264048 1757495302 -843643177 -1771721655 -1161691467 -1148859442 1350416512 1241656801 1007209831 1521492113 -224330043 -179070361 -1620449470 1910302398 -1077590002 791293092 115589795 -746524423 -633509112
REM
CELL 1.54180   50.00000   50.00000   50.00000   90.00000   90.00000   90.00000
LATT -1
SFAC C  
C      1  0.4545650000000  0.4615930000000  0.5433080000000 1.0
C      1  0.4852250000000  0.4615940000000  0.4389470000000 1.0
C      1  0.5602360000000  0.4616200000000  0.5176870000000 1.0
C      1  0.5454350000000  0.5384070000000  0.5433080000000 1.0
C      1  0.5147750000000  0.5384060000000  0.4389470000000 1.0
C      1  0.4397640000000  0.5383800000000  0.5176870000000 1.0
C      1  0.5357750000000  0.5601180000000  0.5241180000000 1.0
C      1  0.4612530000000  0.5600490000000  0.5188880000000 1.0
C      1  0.5030110000000  0.5600840000000  0.4570200000000 1.0
C      1  0.4642250000000  0.4398820000000  0.5241180000000 1.0
C      1  0.5387470000000  0.4399510000000  0.5188880000000 1.0
C      1  0.4969890000000  0.4399160000000  0.4570200000000 1.0
C      1  0.4727620000000  0.5582840000000  0.4672490000000 1.0
C      1  0.5419830000000  0.5582780000000  0.4927690000000 1.0
C      1  0.4852690000000  0.5582160000000  0.5399140000000 1.0
C      1  0.5272380000000  0.4417160000000  0.4672490000000 1.0
C      1  0.4580170000000  0.4417220000000  0.4927690000000 1.0
C      1  0.5147310000000  0.4417840000000  0.5399140000000 1.0
C      1  0.5304130000000  0.4892590000000  0.5608510000000 1.0
C      1  0.4321070000000  0.4892450000000  0.4959090000000 1.0
C      1  0.5374660000000  0.4892450000000  0.4432600000000 1.0
C      1  0.4695870000000  0.5107410000000  0.5608510000000 1.0
C      1  0.5678930000000  0.5107550000000  0.4959090000000 1.0
C      1  0.4625340000000  0.5107550000000  0.4432600000000 1.0
C      1  0.4728590000000  0.4783660000000  0.5095760000000 1.0
C      1  0.5051790000000  0.4783450000000  0.4717910000000 1.0
C      1  0.5218310000000  0.4783560000000  0.5187100000000 1.0
C      1  0.5271410000000  0.5216340000000  0.5095760000000 1.0
C      1  0.4948210000000  0.5216550000000  0.4717910000000 1.0
C      1  0.4781690000000  0.5216440000000  0.5187100000000 1.0
C      1  0.4724030000000  0.5157500000000  0.4904870000000 1.0
C      1  0.5219780000000  0.5156630000000  0.4808520000000 1.0
C      1  0.5055920000000  0.5157100000000  0.5286540000000 1.0
C      1  0.5275970000000  0.4842500000000  0.4904870000000 1.0
C      1  0.4780220000000  0.4843370000000  0.4808520000000 1.0
C      1  0.4944080000000  0.4842900000000  0.5286540000000 1.0
C      1  0.4898190000000  0.4268780000000  0.5325000000000 1.0
C      1  0.4769280000000  0.4268670000000  0.4748660000000 1.0
C      1  0.5332860000000  0.4268410000000  0.4925890000000 1.0
C      1  0.5101810000000  0.5731220000000  0.5325000000000 1.0
C      1  0.5230720000000  0.5731330000000  0.4748660000000 1.0
C      1  0.4667140000000  0.5731590000000  0.4925890000000 1.0
C      1  0.4930270000000  0.5139570000000  0.4397160000000 1.0
C      1  0.5557400000000  0.5139780000000  0.5241300000000 1.0
C      1  0.4512520000000  0.5139610000000  0.5361910000000 1.0
C      1  0.5069730000000  0.4860430000000  0.4397160000000 1.0
C      1  0.4442600000000  0.4860220000000  0.5241300000000 1.0
C      1  0.5487480000000  0.4860390000000  0.5361910000000 1.0
C      1  0.5593770000000  0.5343170000000  0.4785010000000 1.0
C      1  0.4888950000000  0.5343210000000  0.5622150000000 1.0
C      1  0.4516380000000  0.5343890000000  0.4592650000000 1.0
C      1  0.4406230000000  0.4656830000000  0.4785010000000 1.0
C      1  0.5111050000000  0.4656790000000  0.5622150000000 1.0
C      1  0.5483620000000  0.4656110000000  0.4592650000000 1.0
C      1  0.5410010000000  0.5215290000000  0.4540570000000 1.0
C      1  0.5192970000000  0.5215120000000  0.5585010000000 1.0
C      1  0.4397470000000  0.5215120000000  0.4874780000000 1.0
C      1  0.4589990000000  0.4784710000000  0.4540570000000 1.0
C      1  0.4807030000000  0.4784880000000  0.5585010000000 1.0
C      1  0.5602530000000  0.4784880000000  0.4874780000000 1.0
END
