TITL C-3985254-1270-106 2.68426314120458e-08 125000 -339.264861672629 0 0 60 (C3h) n - 1
REM
REM in /home/nfs/bkarasulu/CARBON/AIRSS/Generating-Clusters/TERSOFF/Higher-Symm/Only-C60
REM
REM
REM
REM
REM
REM ./C.cell (28575a23ae977d3b5fae324c64b13b57)
REM
REM compiler GCC version 9.2.1 20190827 (Red Hat 9.2.1-1)
REM options -cpp -mtune=generic -march=x86-64 -g -O0 -fpre-include=/usr/include/finclude/math-vector-fortran.h
REM seed -1068884736 -409201701 1859620102 -1929180800 332633597 1834819541 -26397083 -1175580065 -430929807 2107613210 1966458198 -205427554 -2128186650 1092533431 2013185817 -1466750510 1295549041 467710117 -794589355 1840591015 -810764957 380899166 -99385666 120901334 731093389 -1323511003 508277076 -1570219505 -1136107065 -589791836 -560413033 -985118807 -1297117376
REM
CELL 1.54180   50.00000   50.00000   50.00000   90.00000   90.00000   90.00000
LATT -1
SFAC C  
C      1  0.4839740000000  0.4436150000000  0.5205200000000 1.0
C      1  0.4839720000000  0.5459650000000  0.5385680000000 1.0
C      1  0.4839810000000  0.5104200000000  0.4409070000000 1.0
C      1  0.5160230000000  0.4436150000000  0.5205240000000 1.0
C      1  0.5160210000000  0.5459650000000  0.5385710000000 1.0
C      1  0.5160300000000  0.5104200000000  0.4409100000000 1.0
C      1  0.5162570000000  0.4962040000000  0.5292110000000 1.0
C      1  0.5162610000000  0.5271940000000  0.4886850000000 1.0
C      1  0.5162620000000  0.4766030000000  0.4821090000000 1.0
C      1  0.4837370000000  0.4962030000000  0.5292070000000 1.0
C      1  0.4837410000000  0.5271940000000  0.4886820000000 1.0
C      1  0.4837420000000  0.4766020000000  0.4821060000000 1.0
C      1  0.4509840000000  0.5076460000000  0.4005980000000 1.0
C      1  0.4509700000000  0.4100960000000  0.5430720000000 1.0
C      1  0.4509680000000  0.5822570000000  0.5563160000000 1.0
C      1  0.5490360000000  0.5076470000000  0.4006080000000 1.0
C      1  0.5490220000000  0.4100960000000  0.5430810000000 1.0
C      1  0.5490200000000  0.5822570000000  0.5563260000000 1.0
C      1  0.4755530000000  0.4310260000000  0.4934600000000 1.0
C      1  0.4755460000000  0.5288260000000  0.5629990000000 1.0
C      1  0.4755570000000  0.5401480000000  0.4435330000000 1.0
C      1  0.5244490000000  0.4310260000000  0.4934650000000 1.0
C      1  0.5244420000000  0.5288260000000  0.5630040000000 1.0
C      1  0.5244530000000  0.5401480000000  0.4435380000000 1.0
C      1  0.4447230000000  0.5652050000000  0.5789960000000 1.0
C      1  0.4447400000000  0.5358140000000  0.4040240000000 1.0
C      1  0.4447300000000  0.3989800000000  0.5169640000000 1.0
C      1  0.5552610000000  0.5652060000000  0.5790070000000 1.0
C      1  0.5552780000000  0.5358140000000  0.4040350000000 1.0
C      1  0.5552680000000  0.3989810000000  0.5169750000000 1.0
C      1  0.5160230000000  0.4997560000000  0.5614840000000 1.0
C      1  0.5160320000000  0.5533670000000  0.4694710000000 1.0
C      1  0.5160320000000  0.4468760000000  0.4690490000000 1.0
C      1  0.4839650000000  0.4997560000000  0.5614810000000 1.0
C      1  0.4839740000000  0.5533670000000  0.4694680000000 1.0
C      1  0.4839740000000  0.4468760000000  0.4690460000000 1.0
C      1  0.4386110000000  0.3997200000000  0.5672040000000 1.0
C      1  0.4386110000000  0.6083450000000  0.5532340000000 1.0
C      1  0.4386290000000  0.4919340000000  0.3795450000000 1.0
C      1  0.5613770000000  0.3997210000000  0.5672160000000 1.0
C      1  0.5613770000000  0.6083450000000  0.5532460000000 1.0
C      1  0.5613950000000  0.4919350000000  0.3795570000000 1.0
C      1  0.4567150000000  0.4091390000000  0.4928700000000 1.0
C      1  0.4567050000000  0.5392590000000  0.5822460000000 1.0
C      1  0.4567210000000  0.5516010000000  0.4248710000000 1.0
C      1  0.5432880000000  0.4091390000000  0.4928780000000 1.0
C      1  0.5432780000000  0.5392600000000  0.5822550000000 1.0
C      1  0.5432940000000  0.5516020000000  0.4248790000000 1.0
C      1  0.4769540000000  0.5238970000000  0.5177040000000 1.0
C      1  0.4769590000000  0.5033850000000  0.4704490000000 1.0
C      1  0.4769550000000  0.4727170000000  0.5118400000000 1.0
C      1  0.5230420000000  0.5238970000000  0.5177080000000 1.0
C      1  0.5230470000000  0.5033850000000  0.4704540000000 1.0
C      1  0.5230430000000  0.4727180000000  0.5118450000000 1.0
C      1  0.4702130000000  0.4321830000000  0.5441510000000 1.0
C      1  0.4702130000000  0.5721470000000  0.5366510000000 1.0
C      1  0.4702250000000  0.4956700000000  0.4191890000000 1.0
C      1  0.5297790000000  0.4321830000000  0.5441570000000 1.0
C      1  0.5297790000000  0.5721470000000  0.5366570000000 1.0
C      1  0.5297910000000  0.4956700000000  0.4191950000000 1.0
END
