TITL C-3985253-1688-708 -3.31942340645529e-07 125000 -315.299219559984 0 0 60 (D3) n - 1
REM
REM in /home/nfs/bkarasulu/CARBON/AIRSS/Generating-Clusters/TERSOFF/Higher-Symm/Only-C60
REM
REM
REM
REM
REM
REM ./C.cell (28575a23ae977d3b5fae324c64b13b57)
REM
REM compiler GCC version 9.2.1 20190827 (Red Hat 9.2.1-1)
REM options -cpp -mtune=generic -march=x86-64 -g -O0 -fpre-include=/usr/include/finclude/math-vector-fortran.h
REM seed 1760787292 1070618542 -921211206 -1953477773 -2083076289 -730732108 1510278246 194583966 -243284289 -743710464 1646515351 -1388117581 -976810467 -453638065 -1032280378 867793284 598016032 -496010368 1254534431 11037119 -1058223730 -1688928532 -1273704663 -1166032553 -430205242 1335106239 -1483311721 1422366320 321022506 445151978 -1539073045 -617310358 -35934873
REM
CELL 1.54180   50.00000   50.00000   50.00000   90.00000   90.00000   90.00000
LATT -1
SFAC C  
C      1  0.5111320000000  0.4823940000000  0.4355800000000 1.0
C      1  0.4791860000000  0.4991620000000  0.4355800000000 1.0
C      1  0.5096810000000  0.5184440000000  0.4355800000000 1.0
C      1  0.5111320000000  0.5176060000000  0.5644200000000 1.0
C      1  0.4791860000000  0.5008380000000  0.5644200000000 1.0
C      1  0.5096810000000  0.4815560000000  0.5644200000000 1.0
C      1  0.5249520000000  0.4643360000000  0.4711070000000 1.0
C      1  0.4566380000000  0.4962230000000  0.4711070000000 1.0
C      1  0.5184090000000  0.5394410000000  0.4711070000000 1.0
C      1  0.5249520000000  0.5356640000000  0.5288930000000 1.0
C      1  0.4566380000000  0.5037770000000  0.5288930000000 1.0
C      1  0.5184090000000  0.4605590000000  0.5288930000000 1.0
C      1  0.5385660000000  0.5541660000000  0.4869540000000 1.0
C      1  0.5276270000000  0.4395180000000  0.4869540000000 1.0
C      1  0.4338080000000  0.5063160000000  0.4869540000000 1.0
C      1  0.5385660000000  0.4458340000000  0.5130460000000 1.0
C      1  0.5276270000000  0.5604820000000  0.5130460000000 1.0
C      1  0.4338080000000  0.4936840000000  0.5130460000000 1.0
C      1  0.4537910000000  0.4759450000000  0.4463860000000 1.0
C      1  0.5022720000000  0.5520460000000  0.4463860000000 1.0
C      1  0.5439370000000  0.4720100000000  0.4463860000000 1.0
C      1  0.4537910000000  0.5240550000000  0.5536140000000 1.0
C      1  0.5022720000000  0.4479540000000  0.5536140000000 1.0
C      1  0.5439370000000  0.5279900000000  0.5536140000000 1.0
C      1  0.4966270000000  0.5348230000000  0.5391910000000 1.0
C      1  0.5318440000000  0.4855100000000  0.5391910000000 1.0
C      1  0.4715290000000  0.4796670000000  0.5391910000000 1.0
C      1  0.4966270000000  0.4651770000000  0.4608090000000 1.0
C      1  0.5318440000000  0.5144900000000  0.4608090000000 1.0
C      1  0.4715290000000  0.5203330000000  0.4608090000000 1.0
C      1  0.4368020000000  0.5368380000000  0.4850920000000 1.0
C      1  0.5635020000000  0.5363120000000  0.4850920000000 1.0
C      1  0.4996960000000  0.4268500000000  0.4850920000000 1.0
C      1  0.4368020000000  0.4631620000000  0.5149080000000 1.0
C      1  0.5635020000000  0.4636880000000  0.5149080000000 1.0
C      1  0.4996960000000  0.5731500000000  0.5149080000000 1.0
C      1  0.4573340000000  0.5516940000000  0.5399270000000 1.0
C      1  0.5661020000000  0.5111030000000  0.5399270000000 1.0
C      1  0.4765640000000  0.4372030000000  0.5399270000000 1.0
C      1  0.4573340000000  0.4483060000000  0.4600730000000 1.0
C      1  0.5661020000000  0.4888970000000  0.4600730000000 1.0
C      1  0.4765640000000  0.5627970000000  0.4600730000000 1.0
C      1  0.5627160000000  0.5202550000000  0.4572400000000 1.0
C      1  0.4861830000000  0.4355600000000  0.4572400000000 1.0
C      1  0.4511010000000  0.5441860000000  0.4572400000000 1.0
C      1  0.5627160000000  0.4797450000000  0.5427600000000 1.0
C      1  0.4861830000000  0.5644400000000  0.5427600000000 1.0
C      1  0.4511010000000  0.4558140000000  0.5427600000000 1.0
C      1  0.4800960000000  0.5633980000000  0.4927550000000 1.0
C      1  0.5648560000000  0.4855380000000  0.4927550000000 1.0
C      1  0.4550480000000  0.4510640000000  0.4927550000000 1.0
C      1  0.4800960000000  0.4366020000000  0.5072450000000 1.0
C      1  0.5648560000000  0.5144620000000  0.5072450000000 1.0
C      1  0.4550480000000  0.5489360000000  0.5072450000000 1.0
C      1  0.5317350000000  0.5070560000000  0.5161570000000 1.0
C      1  0.4902430000000  0.4689890000000  0.5161570000000 1.0
C      1  0.4780220000000  0.5239560000000  0.5161570000000 1.0
C      1  0.5317350000000  0.4929440000000  0.4838430000000 1.0
C      1  0.4902430000000  0.5310110000000  0.4838430000000 1.0
C      1  0.4780220000000  0.4760440000000  0.4838430000000 1.0
END
