TITL C-3985247-764-851 -0.00355449211207542 125000 -299.302864260172 0 0 60 (C2h) n - 1
REM
REM in /home/nfs/bkarasulu/CARBON/AIRSS/Generating-Clusters/TERSOFF/Higher-Symm/Only-C60
REM
REM
REM
REM
REM
REM ./C.cell (28575a23ae977d3b5fae324c64b13b57)
REM
REM compiler GCC version 9.2.1 20190827 (Red Hat 9.2.1-1)
REM options -cpp -mtune=generic -march=x86-64 -g -O0 -fpre-include=/usr/include/finclude/math-vector-fortran.h
REM seed -2126825866 578921692 1524884267 1234608404 -1909636159 1658327033 164856037 -218470693 100332496 1716448407 290127774 2073581604 663949526 -561147350 1067835209 674884484 392290449 70143864 -2092401748 -1121583711 63052975 -1823398882 217495417 1818338705 -600504068 373632505 1129686954 648787002 -327895797 -1911619447 40504499 -119021332 -1622828305
REM
CELL 1.54180   50.00000   50.00000   50.00000   90.00000   90.00000   90.00000
LATT -1
SFAC C  
C      1  0.5351180000000  0.5423860000000  0.4602590000000 1.0
C      1  0.4648820000000  0.4576140000000  0.4602590000000 1.0
C      1  0.5351180000000  0.5423860000000  0.5397410000000 1.0
C      1  0.4648820000000  0.4576140000000  0.5397410000000 1.0
C      1  0.5568480000000  0.4550000000000  0.4713700000000 1.0
C      1  0.4431520000000  0.5450000000000  0.4713700000000 1.0
C      1  0.5568480000000  0.4550000000000  0.5286300000000 1.0
C      1  0.4431520000000  0.5450000000000  0.5286300000000 1.0
C      1  0.4858630000000  0.4419500000000  0.5163090000000 1.0
C      1  0.5141370000000  0.5580500000000  0.5163090000000 1.0
C      1  0.4858630000000  0.4419500000000  0.4836910000000 1.0
C      1  0.5141370000000  0.5580500000000  0.4836910000000 1.0
C      1  0.5400980000000  0.5093990000000  0.4460750000000 1.0
C      1  0.4599020000000  0.4906010000000  0.4460750000000 1.0
C      1  0.5400980000000  0.5093990000000  0.5539250000000 1.0
C      1  0.4599020000000  0.4906010000000  0.5539250000000 1.0
C      1  0.5145350000000  0.4765000000000  0.4409760000000 1.0
C      1  0.4854650000000  0.5235000000000  0.4409760000000 1.0
C      1  0.5145350000000  0.4765000000000  0.5590240000000 1.0
C      1  0.4854650000000  0.5235000000000  0.5590240000000 1.0
C      1  0.5154120000000  0.5142280000000  0.5157090000000 1.0
C      1  0.4845880000000  0.4857720000000  0.5157090000000 1.0
C      1  0.5154120000000  0.5142280000000  0.4842910000000 1.0
C      1  0.4845880000000  0.4857720000000  0.4842910000000 1.0
C      1  0.5149430000000  0.5393490000000  0.4311120000000 1.0
C      1  0.4850570000000  0.4606510000000  0.4311120000000 1.0
C      1  0.5149430000000  0.5393490000000  0.5688880000000 1.0
C      1  0.4850570000000  0.4606510000000  0.5688880000000 1.0
C      1  0.4323540000000  0.4943760000000  0.5223550000000 1.0
C      1  0.5676460000000  0.5056240000000  0.5223550000000 1.0
C      1  0.4323540000000  0.4943760000000  0.4776450000000 1.0
C      1  0.5676460000000  0.5056240000000  0.4776450000000 1.0
C      1  0.4631260000000  0.5613510000000  0.5147870000000 1.0
C      1  0.5368740000000  0.4386490000000  0.5147870000000 1.0
C      1  0.4631260000000  0.5613510000000  0.4852130000000 1.0
C      1  0.5368740000000  0.4386490000000  0.4852130000000 1.0
C      1  0.4821110000000  0.5161280000000  0.5289470000000 1.0
C      1  0.5178890000000  0.4838720000000  0.5289460000000 1.0
C      1  0.4821110000000  0.5161280000000  0.4710540000000 1.0
C      1  0.5178890000000  0.4838720000000  0.4710540000000 1.0
C      1  0.4823610000000  0.4958530000000  0.5776540000000 1.0
C      1  0.5176390000000  0.5041470000000  0.5776540000000 1.0
C      1  0.4823610000000  0.4958530000000  0.4223460000000 1.0
C      1  0.5176390000000  0.5041470000000  0.4223460000000 1.0
C      1  0.5485520000000  0.5269140000000  0.4846650000000 1.0
C      1  0.4514480000000  0.4730860000000  0.4846650000000 1.0
C      1  0.5485520000000  0.5269140000000  0.5153350000000 1.0
C      1  0.4514480000000  0.4730860000000  0.5153350000000 1.0
C      1  0.4481140000000  0.5159650000000  0.4642280000000 1.0
C      1  0.5518860000000  0.4840350000000  0.4642280000000 1.0
C      1  0.4481140000000  0.5159650000000  0.5357720000000 1.0
C      1  0.5518860000000  0.4840350000000  0.5357720000000 1.0
C      1  0.4882840000000  0.5654010000000  0.5296280000000 1.0
C      1  0.5117160000000  0.4345990000000  0.5296280000000 1.0
C      1  0.4882840000000  0.5654010000000  0.4703720000000 1.0
C      1  0.5117160000000  0.4345990000000  0.4703720000000 1.0
C      1  0.4875000000000  0.5579560000000  0.5587740000000 1.0
C      1  0.5125000000000  0.4420440000000  0.5587740000000 1.0
C      1  0.4875000000000  0.5579560000000  0.4412260000000 1.0
C      1  0.5125000000000  0.4420440000000  0.4412260000000 1.0
END
