TITL C-3985251-913-463 -0.00829623548861161 125000 -327.651909842192 0 0 60 (C3) n - 1
REM
REM in /home/nfs/bkarasulu/CARBON/AIRSS/Generating-Clusters/TERSOFF/Higher-Symm/Only-C60
REM
REM
REM
REM
REM
REM ./C.cell (28575a23ae977d3b5fae324c64b13b57)
REM
REM compiler GCC version 9.2.1 20190827 (Red Hat 9.2.1-1)
REM options -cpp -mtune=generic -march=x86-64 -g -O0 -fpre-include=/usr/include/finclude/math-vector-fortran.h
REM seed 1778832661 1344153354 -996377426 -2113978585 1798082820 -1071043929 -898521015 633065508 1161483056 1825827586 885720057 -117309050 -1487741180 -851747234 -1434749879 -451682064 -2055230785 -1699051820 1628865359 1774994097 522977101 989069472 -889939941 -513383601 756128957 1151876489 917188138 1526510182 -222955833 -1506667751 -1226331267 1759711086 -1082690366
REM
CELL 1.54180   50.00000   50.00000   50.00000   90.00000   90.00000   90.00000
LATT -1
SFAC C  
C      1  0.5456140000000  0.5347870000000  0.5491810000000 1.0
C      1  0.4346150000000  0.5347910000000  0.5149160000000 1.0
C      1  0.5197760000000  0.5347790000000  0.4359140000000 1.0
C      1  0.5058850000000  0.4578730000000  0.5325820000000 1.0
C      1  0.4688170000000  0.4577970000000  0.4887750000000 1.0
C      1  0.5253210000000  0.4576890000000  0.4786160000000 1.0
C      1  0.4701150000000  0.5645930000000  0.4914820000000 1.0
C      1  0.5223120000000  0.5646050000000  0.4783580000000 1.0
C      1  0.5075700000000  0.5645900000000  0.5301430000000 1.0
C      1  0.5722310000000  0.5311140000000  0.4994710000000 1.0
C      1  0.4643480000000  0.5311050000000  0.5628240000000 1.0
C      1  0.4634370000000  0.5311200000000  0.4377160000000 1.0
C      1  0.5159760000000  0.5406160000000  0.5512510000000 1.0
C      1  0.4476350000000  0.5406240000000  0.4882100000000 1.0
C      1  0.5364010000000  0.5406220000000  0.4605360000000 1.0
C      1  0.5523720000000  0.4375040000000  0.4802580000000 1.0
C      1  0.4909260000000  0.4375680000000  0.5552580000000 1.0
C      1  0.4568020000000  0.4374070000000  0.4645130000000 1.0
C      1  0.5292830000000  0.5289550000000  0.5099360000000 1.0
C      1  0.4767580000000  0.5289360000000  0.5204030000000 1.0
C      1  0.4939640000000  0.5289380000000  0.4696820000000 1.0
C      1  0.4666360000000  0.4433060000000  0.4373960000000 1.0
C      1  0.5709070000000  0.4433510000000  0.5023510000000 1.0
C      1  0.4625290000000  0.4433700000000  0.5602380000000 1.0
C      1  0.5160910000000  0.4902550000000  0.5202500000000 1.0
C      1  0.4743800000000  0.4903610000000  0.5038750000000 1.0
C      1  0.5094900000000  0.4903860000000  0.4758470000000 1.0
C      1  0.4961490000000  0.4515700000000  0.4675530000000 1.0
C      1  0.5300250000000  0.4514340000000  0.5128970000000 1.0
C      1  0.4738380000000  0.4515110000000  0.5195760000000 1.0
C      1  0.4732530000000  0.5193010000000  0.4901110000000 1.0
C      1  0.5219430000000  0.5192950000000  0.4817760000000 1.0
C      1  0.5048040000000  0.5192980000000  0.5280880000000 1.0
C      1  0.4794110000000  0.5595820000000  0.5202960000000 1.0
C      1  0.4927180000000  0.5596010000000  0.4720280000000 1.0
C      1  0.5278930000000  0.5596290000000  0.5076770000000 1.0
C      1  0.4530910000000  0.4952510000000  0.4623080000000 1.0
C      1  0.5560830000000  0.4952440000000  0.4782340000000 1.0
C      1  0.4908140000000  0.4952230000000  0.5594350000000 1.0
C      1  0.5376200000000  0.4843400000000  0.4325350000000 1.0
C      1  0.5396210000000  0.4843250000000  0.5663820000000 1.0
C      1  0.4227600000000  0.4843580000000  0.5011690000000 1.0
C      1  0.4419400000000  0.4762290000000  0.4809520000000 1.0
C      1  0.5454470000000  0.4762440000000  0.4592910000000 1.0
C      1  0.5125200000000  0.4761820000000  0.5597910000000 1.0
C      1  0.4930450000000  0.5176830000000  0.4370650000000 1.0
C      1  0.5579930000000  0.5176710000000  0.5254620000000 1.0
C      1  0.4489630000000  0.5176660000000  0.5374970000000 1.0
C      1  0.4708320000000  0.4910120000000  0.5373550000000 1.0
C      1  0.4821590000000  0.4909950000000  0.4560720000000 1.0
C      1  0.5469400000000  0.4909940000000  0.5065490000000 1.0
C      1  0.5588160000000  0.4637870000000  0.5221670000000 1.0
C      1  0.4513620000000  0.4637790000000  0.5398650000000 1.0
C      1  0.4897690000000  0.4638030000000  0.4379180000000 1.0
C      1  0.5603600000000  0.4879850000000  0.5460940000000 1.0
C      1  0.4298800000000  0.4880240000000  0.5292900000000 1.0
C      1  0.5097510000000  0.4879950000000  0.4246050000000 1.0
C      1  0.5622940000000  0.5243200000000  0.4713960000000 1.0
C      1  0.4936320000000  0.5243010000000  0.5682380000000 1.0
C      1  0.4440830000000  0.5243280000000  0.4603450000000 1.0
END
