TITL C-3985259-1859-670 -0.000128846393727942 125000 -298.988107739386 0 0 60 (D2d) n - 1
REM
REM in /home/nfs/bkarasulu/CARBON/AIRSS/Generating-Clusters/TERSOFF/Higher-Symm/Only-C60
REM
REM
REM
REM
REM
REM ./C.cell (28575a23ae977d3b5fae324c64b13b57)
REM
REM compiler GCC version 9.2.1 20190827 (Red Hat 9.2.1-1)
REM options -cpp -mtune=generic -march=x86-64 -g -O0 -fpre-include=/usr/include/finclude/math-vector-fortran.h
REM seed -159665098 -1897509012 36446531 311323420 -534023939 722196206 -560136721 -530614197 152561863 -1314355165 1571132712 -1967536755 -55786600 -1135196219 -619926858 341971671 -1127756136 -1869300539 -2006713503 -1557937411 -512206457 -1430202621 -125295743 1770480246 -1273488582 -247397980 572049123 -327802058 -2033672530 252088773 1869734198 601856130 542373954
REM
CELL 1.54180   50.00000   50.00000   50.00000   90.00000   90.00000   90.00000
LATT -1
SFAC C  
C      1  0.5540000000000  0.4594180000000  0.5313680000000 1.0
C      1  0.4460000000000  0.4594180000000  0.4686320000000 1.0
C      1  0.5540020000000  0.5405820000000  0.4686290000000 1.0
C      1  0.4459980000000  0.5405820000000  0.5313700000000 1.0
C      1  0.5313700000000  0.4594170000000  0.5540010000000 1.0
C      1  0.4686300000000  0.4594170000000  0.4459990000000 1.0
C      1  0.4686320000000  0.5405820000000  0.5540020000000 1.0
C      1  0.5313680000000  0.5405820000000  0.4459990000000 1.0
C      1  0.5427670000000  0.5593460000000  0.5212070000000 1.0
C      1  0.4572290000000  0.5593450000000  0.4787950000000 1.0
C      1  0.5427700000000  0.4406550000000  0.4787930000000 1.0
C      1  0.4572300000000  0.4406550000000  0.5212070000000 1.0
C      1  0.5212050000000  0.5593400000000  0.5427690000000 1.0
C      1  0.4787930000000  0.5593440000000  0.4572270000000 1.0
C      1  0.4787930000000  0.4406560000000  0.5427710000000 1.0
C      1  0.5212130000000  0.4406470000000  0.4572240000000 1.0
C      1  0.5235370000000  0.4667440000000  0.4431330000000 1.0
C      1  0.4764610000000  0.4667440000000  0.5568710000000 1.0
C      1  0.5235430000000  0.5332560000000  0.5568810000000 1.0
C      1  0.4764630000000  0.5332580000000  0.4431270000000 1.0
C      1  0.4431270000000  0.4667440000000  0.5235370000000 1.0
C      1  0.5568730000000  0.4667430000000  0.4764630000000 1.0
C      1  0.5568720000000  0.5332550000000  0.5235400000000 1.0
C      1  0.4431290000000  0.5332560000000  0.4764600000000 1.0
C      1  0.5231770000000  0.4867880000000  0.5649170000000 1.0
C      1  0.4768230000000  0.4867880000000  0.4350830000000 1.0
C      1  0.5231740000000  0.5132130000000  0.4350860000000 1.0
C      1  0.4768260000000  0.5132130000000  0.5649140000000 1.0
C      1  0.5649130000000  0.4867880000000  0.5231740000000 1.0
C      1  0.4350870000000  0.4867880000000  0.4768260000000 1.0
C      1  0.4350830000000  0.5132130000000  0.5231770000000 1.0
C      1  0.5649180000000  0.5132130000000  0.4768230000000 1.0
C      1  0.4900850000000  0.5581820000000  0.5355850000000 1.0
C      1  0.5099180000000  0.5581790000000  0.4644200000000 1.0
C      1  0.4900860000000  0.4418200000000  0.4644130000000 1.0
C      1  0.5099130000000  0.4418200000000  0.5355880000000 1.0
C      1  0.5355840000000  0.5581800000000  0.4900820000000 1.0
C      1  0.4644110000000  0.5581800000000  0.5099120000000 1.0
C      1  0.4644160000000  0.4418210000000  0.4900870000000 1.0
C      1  0.5355840000000  0.4418210000000  0.5099130000000 1.0
C      1  0.4998040000000  0.4705300000000  0.4775700000000 1.0
C      1  0.5001930000000  0.4705220000000  0.5224320000000 1.0
C      1  0.4998090000000  0.5294810000000  0.5224210000000 1.0
C      1  0.5001880000000  0.5294780000000  0.4775710000000 1.0
C      1  0.4775730000000  0.4705230000000  0.4998130000000 1.0
C      1  0.5224270000000  0.4705230000000  0.5001870000000 1.0
C      1  0.5224340000000  0.5294790000000  0.4998050000000 1.0
C      1  0.4775680000000  0.5294790000000  0.5001940000000 1.0
C      1  0.4591110000000  0.4931830000000  0.5168060000000 1.0
C      1  0.5408890000000  0.4931830000000  0.4831950000000 1.0
C      1  0.4591130000000  0.5068180000000  0.4831900000000 1.0
C      1  0.5408870000000  0.5068190000000  0.5168090000000 1.0
C      1  0.5168100000000  0.4931820000000  0.4591130000000 1.0
C      1  0.4831900000000  0.4931820000000  0.5408860000000 1.0
C      1  0.4831940000000  0.5068160000000  0.4591110000000 1.0
C      1  0.5168070000000  0.5068150000000  0.5408900000000 1.0
C      1  0.4999990000000  0.5000040000000  0.4189440000000 1.0
C      1  0.5000010000000  0.5000020000000  0.5810570000000 1.0
C      1  0.5810560000000  0.4999960000000  0.4999990000000 1.0
C      1  0.4189440000000  0.4999950000000  0.5000020000000 1.0
END
