TITL C-3985259-1859-1009 6.3071267600073e-08 125000 -314.729090128821 0 0 60 (C4h) n - 1
REM
REM in /home/nfs/bkarasulu/CARBON/AIRSS/Generating-Clusters/TERSOFF/Higher-Symm/Only-C60
REM
REM
REM
REM
REM
REM ./C.cell (28575a23ae977d3b5fae324c64b13b57)
REM
REM compiler GCC version 9.2.1 20190827 (Red Hat 9.2.1-1)
REM options -cpp -mtune=generic -march=x86-64 -g -O0 -fpre-include=/usr/include/finclude/math-vector-fortran.h
REM seed -1511651564 1027411726 -936925371 -1595524692 270460316 1317740096 153214256 1746075036 2114077922 130342551 -47236362 31824686 1277450553 1306004329 -1974383809 1756347254 450357077 1355432881 -1175817858 -407439735 -1891459260 -1473787280 -1874788827 678146481 261280486 367913302 -233463594 1089266080 1767581678 541143857 1561454714 1516986488 -1712963428
REM
CELL 1.54180   50.00000   50.00000   50.00000   90.00000   90.00000   90.00000
LATT -1
SFAC C  
C      1  0.4369650000000  0.4799150000000  0.5153100000000 1.0
C      1  0.4369650000000  0.4846900000000  0.4799150000000 1.0
C      1  0.4369650000000  0.5200850000000  0.4846900000000 1.0
C      1  0.4369650000000  0.5153100000000  0.5200850000000 1.0
C      1  0.5649910000000  0.4799150000000  0.5153100000000 1.0
C      1  0.5649910000000  0.4846900000000  0.4799150000000 1.0
C      1  0.5649910000000  0.5200850000000  0.4846900000000 1.0
C      1  0.5649910000000  0.5153100000000  0.5200850000000 1.0
C      1  0.5278200000000  0.4447120000000  0.5009690000000 1.0
C      1  0.5278200000000  0.4990310000000  0.4447120000000 1.0
C      1  0.5278200000000  0.5552880000000  0.4990310000000 1.0
C      1  0.5278200000000  0.5009690000000  0.5552880000000 1.0
C      1  0.4741370000000  0.4447120000000  0.5009690000000 1.0
C      1  0.4741370000000  0.4990310000000  0.4447120000000 1.0
C      1  0.4741370000000  0.5552880000000  0.4990310000000 1.0
C      1  0.4741370000000  0.5009690000000  0.5552880000000 1.0
C      1  0.4686680000000  0.4942700000000  0.4749000000000 1.0
C      1  0.4686680000000  0.5251000000000  0.4942700000000 1.0
C      1  0.4686680000000  0.5057300000000  0.5251000000000 1.0
C      1  0.4686680000000  0.4749000000000  0.5057300000000 1.0
C      1  0.5332890000000  0.4942700000000  0.4749000000000 1.0
C      1  0.5332890000000  0.5251000000000  0.4942700000000 1.0
C      1  0.5332890000000  0.5057300000000  0.5251000000000 1.0
C      1  0.5332890000000  0.4749000000000  0.5057300000000 1.0
C      1  0.5165430000000  0.4739430000000  0.5595150000000 1.0
C      1  0.5165430000000  0.4404850000000  0.4739430000000 1.0
C      1  0.5165430000000  0.5260570000000  0.4404850000000 1.0
C      1  0.5165430000000  0.5595150000000  0.5260570000000 1.0
C      1  0.4854130000000  0.4739430000000  0.5595150000000 1.0
C      1  0.4854130000000  0.4404850000000  0.4739430000000 1.0
C      1  0.4854130000000  0.5260570000000  0.4404850000000 1.0
C      1  0.4854130000000  0.5595150000000  0.5260570000000 1.0
C      1  0.5605540000000  0.5422980000000  0.4629310000000 1.0
C      1  0.5605540000000  0.5370690000000  0.5422980000000 1.0
C      1  0.5605540000000  0.4577020000000  0.5370690000000 1.0
C      1  0.5605540000000  0.4629310000000  0.4577020000000 1.0
C      1  0.4414030000000  0.5422980000000  0.4629310000000 1.0
C      1  0.4414030000000  0.5370690000000  0.5422980000000 1.0
C      1  0.4414030000000  0.4577020000000  0.5370690000000 1.0
C      1  0.4414030000000  0.4629310000000  0.4577020000000 1.0
C      1  0.5153130000000  0.4778650000000  0.4291010000000 1.0
C      1  0.5153130000000  0.5708990000000  0.4778650000000 1.0
C      1  0.5153130000000  0.5221350000000  0.5708990000000 1.0
C      1  0.5153130000000  0.4291010000000  0.5221350000000 1.0
C      1  0.4866430000000  0.4778650000000  0.4291010000000 1.0
C      1  0.4866430000000  0.5708990000000  0.4778650000000 1.0
C      1  0.4866430000000  0.5221350000000  0.5708990000000 1.0
C      1  0.4866430000000  0.4291010000000  0.5221350000000 1.0
C      1  0.5347620000000  0.4490340000000  0.4525930000000 1.0
C      1  0.5347620000000  0.5474070000000  0.4490340000000 1.0
C      1  0.5347620000000  0.5509660000000  0.5474070000000 1.0
C      1  0.5347620000000  0.4525930000000  0.5509660000000 1.0
C      1  0.4671950000000  0.4490340000000  0.4525930000000 1.0
C      1  0.4671950000000  0.5474070000000  0.4490340000000 1.0
C      1  0.4671950000000  0.5509660000000  0.5474070000000 1.0
C      1  0.4671950000000  0.4525930000000  0.5509660000000 1.0
C      1  0.5009780000000  0.4813620000000  0.5140040000000 1.0
C      1  0.5009780000000  0.4859960000000  0.4813620000000 1.0
C      1  0.5009780000000  0.5186380000000  0.4859960000000 1.0
C      1  0.5009780000000  0.5140040000000  0.5186380000000 1.0
END
