TITL C-3985259-1859-945 -9.90610315904622e-05 125000 -328.304627140476 0 0 60 (C1) n - 1
REM
REM in /home/nfs/bkarasulu/CARBON/AIRSS/Generating-Clusters/TERSOFF/Higher-Symm/Only-C60
REM
REM
REM
REM
REM
REM ./C.cell (28575a23ae977d3b5fae324c64b13b57)
REM
REM compiler GCC version 9.2.1 20190827 (Red Hat 9.2.1-1)
REM options -cpp -mtune=generic -march=x86-64 -g -O0 -fpre-include=/usr/include/finclude/math-vector-fortran.h
REM seed -1896943463 -902409340 1692369070 1878889655 -1224968642 -868731005 -468865184 792433979 -441421219 -1695298237 -600422796 505122701 655480151 -2043458241 559845676 761634011 -2004962594 864028569 297290042 142836291 -902772048 -165537739 -837230858 1113179622 -1512573196 -2018389610 -1340702766 -1862198196 830862611 -453849108 -1361768521 -2039291327 -723779651
REM
CELL 1.54180   50.00000   50.00000   50.00000   90.00000   90.00000   90.00000
LATT -1
SFAC C  
C      1  0.4839770000000  0.4755580000000  0.4328650000000 1.0
C      1  0.5267980000000  0.4822110000000  0.5808670000000 1.0
C      1  0.4306540000000  0.4845500000000  0.5278050000000 1.0
C      1  0.4811890000000  0.4882800000000  0.5165190000000 1.0
C      1  0.4702960000000  0.5405540000000  0.5468830000000 1.0
C      1  0.5012320000000  0.4340360000000  0.5096550000000 1.0
C      1  0.4692900000000  0.5208590000000  0.4507340000000 1.0
C      1  0.4214850000000  0.4773900000000  0.4800030000000 1.0
C      1  0.4310670000000  0.5254310000000  0.4969800000000 1.0
C      1  0.5728740000000  0.5244490000000  0.5236410000000 1.0
C      1  0.4445340000000  0.4826300000000  0.5551600000000 1.0
C      1  0.4958260000000  0.5197170000000  0.4838660000000 1.0
C      1  0.5375960000000  0.5183010000000  0.5006010000000 1.0
C      1  0.5095270000000  0.5477010000000  0.5252560000000 1.0
C      1  0.5339460000000  0.5522300000000  0.5007640000000 1.0
C      1  0.4912020000000  0.5176800000000  0.5607130000000 1.0
C      1  0.5575890000000  0.5505750000000  0.4768680000000 1.0
C      1  0.5357960000000  0.4821090000000  0.4460060000000 1.0
C      1  0.5001840000000  0.4690180000000  0.4790590000000 1.0
C      1  0.4841250000000  0.4922780000000  0.4862630000000 1.0
C      1  0.4670110000000  0.5153650000000  0.5266680000000 1.0
C      1  0.5245770000000  0.5278540000000  0.5513910000000 1.0
C      1  0.5194570000000  0.5098700000000  0.4385920000000 1.0
C      1  0.5275750000000  0.4709840000000  0.4733260000000 1.0
C      1  0.5518640000000  0.4825530000000  0.5443690000000 1.0
C      1  0.5459260000000  0.4592220000000  0.4924870000000 1.0
C      1  0.5595970000000  0.5013060000000  0.4565040000000 1.0
C      1  0.4660540000000  0.4638180000000  0.5190490000000 1.0
C      1  0.4757560000000  0.5441360000000  0.4743810000000 1.0
C      1  0.4631160000000  0.5609510000000  0.5203670000000 1.0
C      1  0.4391590000000  0.4609880000000  0.5019400000000 1.0
C      1  0.4891290000000  0.4403450000000  0.4813560000000 1.0
C      1  0.5418790000000  0.5031900000000  0.5647300000000 1.0
C      1  0.5390880000000  0.5335160000000  0.4290600000000 1.0
C      1  0.5251460000000  0.5088220000000  0.5254120000000 1.0
C      1  0.4745760000000  0.4856660000000  0.5597010000000 1.0
C      1  0.4899790000000  0.5054540000000  0.4323510000000 1.0
C      1  0.5660680000000  0.5063160000000  0.5000740000000 1.0
C      1  0.4519920000000  0.5473900000000  0.4941700000000 1.0
C      1  0.5506710000000  0.5431950000000  0.5317250000000 1.0
C      1  0.5578050000000  0.5312030000000  0.4535110000000 1.0
C      1  0.4850860000000  0.5777750000000  0.5091670000000 1.0
C      1  0.5171940000000  0.5260880000000  0.4640970000000 1.0
C      1  0.4810270000000  0.4418440000000  0.5319910000000 1.0
C      1  0.4901170000000  0.5301050000000  0.5113620000000 1.0
C      1  0.4596600000000  0.4500580000000  0.4759510000000 1.0
C      1  0.4890600000000  0.4591470000000  0.5569620000000 1.0
C      1  0.5169310000000  0.4586600000000  0.5650000000000 1.0
C      1  0.4389190000000  0.5118570000000  0.5207360000000 1.0
C      1  0.5305220000000  0.4437620000000  0.5145440000000 1.0
C      1  0.5048560000000  0.4353450000000  0.4544330000000 1.0
C      1  0.4592640000000  0.4696000000000  0.4517780000000 1.0
C      1  0.4610670000000  0.4957540000000  0.4667510000000 1.0
C      1  0.5291290000000  0.4628160000000  0.5371960000000 1.0
C      1  0.5186810000000  0.5551510000000  0.4617520000000 1.0
C      1  0.4217600000000  0.5068360000000  0.4765170000000 1.0
C      1  0.5683850000000  0.4769350000000  0.4998290000000 1.0
C      1  0.5104060000000  0.4854440000000  0.5263130000000 1.0
C      1  0.5092920000000  0.4595670000000  0.4372900000000 1.0
C      1  0.5030320000000  0.5655530000000  0.4866610000000 1.0
END
