TITL C-3985248-2097-123 0.000768331631678961 125000 -314.21050213437 0 0 60 (C6h) n - 1
REM
REM in /home/nfs/bkarasulu/CARBON/AIRSS/Generating-Clusters/TERSOFF/Higher-Symm/Only-C60
REM
REM
REM
REM
REM
REM ./C.cell (28575a23ae977d3b5fae324c64b13b57)
REM
REM compiler GCC version 9.2.1 20190827 (Red Hat 9.2.1-1)
REM options -cpp -mtune=generic -march=x86-64 -g -O0 -fpre-include=/usr/include/finclude/math-vector-fortran.h
REM seed -1991281536 -2078609463 426717725 1036410761 -1846081678 102766841 1735634194 2043445035 -1369091030 -152234538 209405773 -922683795 -396291940 -1432110330 -1146713486 -366981778 956939790 -1999057320 1063529053 -591744386 -1102639318 -255097586 -299347817 -1555399150 -2000116995 -1045018275 -1678036071 2101685956 857831564 509287930 -558901744 -1521914063 720450846
REM
CELL 1.54180   50.00000   50.00000   50.00000   90.00000   90.00000   90.00000
LATT -1
SFAC C  
C      1  0.5523670000000  0.5461520000000  0.5100880000000 1.0
C      1  0.5349190000000  0.5461520000000  0.4596930000000 1.0
C      1  0.4825530000000  0.5461510000000  0.4496060000000 1.0
C      1  0.4476330000000  0.5461520000000  0.4899120000000 1.0
C      1  0.4650810000000  0.5461520000000  0.5403070000000 1.0
C      1  0.5174470000000  0.5461510000000  0.5503930000000 1.0
C      1  0.5523670000000  0.4538360000000  0.5100880000000 1.0
C      1  0.5349190000000  0.4538350000000  0.4596930000000 1.0
C      1  0.4825530000000  0.4538360000000  0.4496060000000 1.0
C      1  0.4476330000000  0.4538360000000  0.4899120000000 1.0
C      1  0.4650810000000  0.4538350000000  0.5403070000000 1.0
C      1  0.5174470000000  0.4538360000000  0.5503930000000 1.0
C      1  0.4817160000000  0.5274440000000  0.5221720000000 1.0
C      1  0.5100720000000  0.5274580000000  0.5269350000000 1.0
C      1  0.5283440000000  0.5274450000000  0.5047360000000 1.0
C      1  0.5182850000000  0.5274460000000  0.4778260000000 1.0
C      1  0.4899250000000  0.5274390000000  0.4730630000000 1.0
C      1  0.4716550000000  0.5274470000000  0.4952640000000 1.0
C      1  0.4817160000000  0.4725430000000  0.5221720000000 1.0
C      1  0.5100720000000  0.4725330000000  0.5269350000000 1.0
C      1  0.5283440000000  0.4725420000000  0.5047360000000 1.0
C      1  0.5182850000000  0.4725410000000  0.4778260000000 1.0
C      1  0.4899250000000  0.4725490000000  0.4730630000000 1.0
C      1  0.4716550000000  0.4725400000000  0.4952640000000 1.0
C      1  0.5599220000000  0.4706840000000  0.4584630000000 1.0
C      1  0.4939890000000  0.4706850000000  0.4273380000000 1.0
C      1  0.4340670000000  0.4706840000000  0.4688740000000 1.0
C      1  0.4400780000000  0.4706840000000  0.5415370000000 1.0
C      1  0.5060110000000  0.4706850000000  0.5726630000000 1.0
C      1  0.5659330000000  0.4706840000000  0.5311260000000 1.0
C      1  0.5599220000000  0.5293030000000  0.4584630000000 1.0
C      1  0.4939890000000  0.5293030000000  0.4273380000000 1.0
C      1  0.4340670000000  0.5293030000000  0.4688740000000 1.0
C      1  0.4400780000000  0.5293030000000  0.5415370000000 1.0
C      1  0.5060110000000  0.5293030000000  0.5726630000000 1.0
C      1  0.5659330000000  0.5293030000000  0.5311260000000 1.0
C      1  0.4701010000000  0.4306120000000  0.4935940000000 1.0
C      1  0.4795010000000  0.4306120000000  0.5226880000000 1.0
C      1  0.5094000000000  0.4306250000000  0.5290990000000 1.0
C      1  0.5298990000000  0.4306100000000  0.5064060000000 1.0
C      1  0.5204990000000  0.4306140000000  0.4773120000000 1.0
C      1  0.4906000000000  0.4306120000000  0.4709010000000 1.0
C      1  0.4701010000000  0.5693760000000  0.4935940000000 1.0
C      1  0.4795010000000  0.5693760000000  0.5226880000000 1.0
C      1  0.5094000000000  0.5693600000000  0.5290990000000 1.0
C      1  0.5298990000000  0.5693780000000  0.5064060000000 1.0
C      1  0.5204990000000  0.5693730000000  0.4773120000000 1.0
C      1  0.4906000000000  0.5693750000000  0.4709010000000 1.0
C      1  0.4691410000000  0.4999940000000  0.5512780000000 1.0
C      1  0.5289720000000  0.4999940000000  0.5523550000000 1.0
C      1  0.4710330000000  0.4999940000000  0.4476510000000 1.0
C      1  0.4401580000000  0.4999940000000  0.4989150000000 1.0
C      1  0.5598440000000  0.4999940000000  0.5010850000000 1.0
C      1  0.5308580000000  0.4999940000000  0.4487240000000 1.0
C      1  0.4412770000000  0.4999940000000  0.5304970000000 1.0
C      1  0.5557730000000  0.4999940000000  0.5356080000000 1.0
C      1  0.5587230000000  0.4999940000000  0.4695030000000 1.0
C      1  0.4970500000000  0.4999940000000  0.5661050000000 1.0
C      1  0.5029500000000  0.4999940000000  0.4338950000000 1.0
C      1  0.4442270000000  0.4999940000000  0.4643920000000 1.0
END
