TITL C-3985254-1270-1987 0.00377020854079914 125000 -324.748757355219 0 0 60 (C1) n - 1
REM
REM in /home/nfs/bkarasulu/CARBON/AIRSS/Generating-Clusters/TERSOFF/Higher-Symm/Only-C60
REM
REM
REM
REM
REM
REM ./C.cell (28575a23ae977d3b5fae324c64b13b57)
REM
REM compiler GCC version 9.2.1 20190827 (Red Hat 9.2.1-1)
REM options -cpp -mtune=generic -march=x86-64 -g -O0 -fpre-include=/usr/include/finclude/math-vector-fortran.h
REM seed -2125597947 1569592773 -2137430828 -1441703771 -1321942398 1812341845 1680467861 -932286153 2139599438 2045500764 -1141191989 -1517164470 -47927202 2028118237 -567157966 1678635575 -606208723 1687129926 -2134150476 -1672017544 672141272 1989128322 -229138902 393094115 -1277994527 80593246 -1922207573 -1795458243 -89433476 -706858692 -2058260998 1347841401 -1328848376
REM
CELL 1.54180   50.00000   50.00000   50.00000   90.00000   90.00000   90.00000
LATT -1
SFAC C  
C      1  0.5499880000000  0.4587800000000  0.4717380000000 1.0
C      1  0.5119150000000  0.5668260000000  0.4707990000000 1.0
C      1  0.4378450000000  0.4769230000000  0.4714910000000 1.0
C      1  0.5237030000000  0.4661400000000  0.5680190000000 1.0
C      1  0.5173290000000  0.5380340000000  0.5679590000000 1.0
C      1  0.4587010000000  0.4958200000000  0.5682920000000 1.0
C      1  0.5138590000000  0.5597580000000  0.5479620000000 1.0
C      1  0.4418010000000  0.4828240000000  0.5478410000000 1.0
C      1  0.5431090000000  0.4579820000000  0.5475020000000 1.0
C      1  0.5370290000000  0.5155470000000  0.5657010000000 1.0
C      1  0.4683970000000  0.5238470000000  0.5659790000000 1.0
C      1  0.4946110000000  0.4598730000000  0.5662380000000 1.0
C      1  0.4808810000000  0.4479970000000  0.5423130000000 1.0
C      1  0.5542290000000  0.5091440000000  0.5420400000000 1.0
C      1  0.4656070000000  0.5404660000000  0.5415980000000 1.0
C      1  0.4888780000000  0.5244280000000  0.4786420000000 1.0
C      1  0.4846580000000  0.4790010000000  0.4716700000000 1.0
C      1  0.5221900000000  0.4988960000000  0.4758770000000 1.0
C      1  0.5331110000000  0.4614940000000  0.4980190000000 1.0
C      1  0.5185390000000  0.5534140000000  0.4978760000000 1.0
C      1  0.4470310000000  0.4887920000000  0.4986140000000 1.0
C      1  0.4910050000000  0.4486560000000  0.5138000000000 1.0
C      1  0.5519420000000  0.5201150000000  0.5142660000000 1.0
C      1  0.4626300000000  0.5297760000000  0.5138900000000 1.0
C      1  0.5561540000000  0.5013150000000  0.4389910000000 1.0
C      1  0.4705470000000  0.5479820000000  0.4382470000000 1.0
C      1  0.4730410000000  0.4506290000000  0.4392240000000 1.0
C      1  0.4897800000000  0.5610850000000  0.5070320000000 1.0
C      1  0.4507600000000  0.4584940000000  0.5071710000000 1.0
C      1  0.5583290000000  0.4792230000000  0.5074370000000 1.0
C      1  0.5002260000000  0.4755460000000  0.5023740000000 1.0
C      1  0.5260480000000  0.5232900000000  0.5005630000000 1.0
C      1  0.4770900000000  0.5032260000000  0.5050270000000 1.0
C      1  0.4921910000000  0.5310340000000  0.5812160000000 1.0
C      1  0.4767850000000  0.4771780000000  0.5814820000000 1.0
C      1  0.5307160000000  0.4913770000000  0.5810190000000 1.0
C      1  0.5647980000000  0.4826280000000  0.4637220000000 1.0
C      1  0.4833600000000  0.5650110000000  0.4621190000000 1.0
C      1  0.4521650000000  0.4524070000000  0.4631060000000 1.0
C      1  0.4857970000000  0.5621790000000  0.5365330000000 1.0
C      1  0.4522370000000  0.4562610000000  0.5370100000000 1.0
C      1  0.5610490000000  0.4801930000000  0.5371340000000 1.0
C      1  0.4707190000000  0.4386020000000  0.4888940000000 1.0
C      1  0.5676670000000  0.5050590000000  0.4896500000000 1.0
C      1  0.4658830000000  0.5509630000000  0.4880420000000 1.0
C      1  0.4523170000000  0.5340600000000  0.4610580000000 1.0
C      1  0.4937450000000  0.4392720000000  0.4621560000000 1.0
C      1  0.5534610000000  0.5237260000000  0.4630350000000 1.0
C      1  0.5141370000000  0.4751810000000  0.4288050000000 1.0
C      1  0.5139290000000  0.5243970000000  0.4298240000000 1.0
C      1  0.4719380000000  0.5002840000000  0.4304990000000 1.0
C      1  0.5193800000000  0.5273570000000  0.4593650000000 1.0
C      1  0.4678610000000  0.5040340000000  0.4605830000000 1.0
C      1  0.5117190000000  0.4691290000000  0.4583440000000 1.0
C      1  0.4317590000000  0.4973560000000  0.5239100000000 1.0
C      1  0.5346380000000  0.4435460000000  0.5231210000000 1.0
C      1  0.5313800000000  0.5634870000000  0.5241920000000 1.0
C      1  0.4841350000000  0.4742680000000  0.4239280000000 1.0
C      1  0.5299510000000  0.4994850000000  0.4237660000000 1.0
C      1  0.4853220000000  0.5262040000000  0.4232920000000 1.0
END
