TITL C-3985254-1270-919 -0.00173025927977721 125000 -329.463662924683 0 0 60 (C1) n - 1
REM
REM in /home/nfs/bkarasulu/CARBON/AIRSS/Generating-Clusters/TERSOFF/Higher-Symm/Only-C60
REM
REM
REM
REM
REM
REM ./C.cell (28575a23ae977d3b5fae324c64b13b57)
REM
REM compiler GCC version 9.2.1 20190827 (Red Hat 9.2.1-1)
REM options -cpp -mtune=generic -march=x86-64 -g -O0 -fpre-include=/usr/include/finclude/math-vector-fortran.h
REM seed 831591731 -1173637000 -41646439 -1142106720 1499686127 -1660121716 -767463026 1488758798 935820287 -2092203913 -1601135710 -1950363268 1495451998 -1774547965 -760921691 1822522566 -1688580624 1896560660 283756373 -52429463 -1821881301 -1405445425 576552049 775520695 1118222744 1391904355 1809752912 -1873138940 1336024057 927977938 1024803287 1546577750 2039995357
REM
CELL 1.54180   50.00000   50.00000   50.00000   90.00000   90.00000   90.00000
LATT -1
SFAC C  
C      1  0.4605010000000  0.5614270000000  0.4849730000000 1.0
C      1  0.4841360000000  0.5590510000000  0.5386870000000 1.0
C      1  0.5364160000000  0.5580310000000  0.5148060000000 1.0
C      1  0.5130920000000  0.5604410000000  0.4619070000000 1.0
C      1  0.5356210000000  0.5557840000000  0.4834270000000 1.0
C      1  0.5158540000000  0.5580100000000  0.5382590000000 1.0
C      1  0.4619850000000  0.5559900000000  0.5165190000000 1.0
C      1  0.4819650000000  0.5568090000000  0.4621250000000 1.0
C      1  0.5061530000000  0.4935210000000  0.4639240000000 1.0
C      1  0.4661760000000  0.5043210000000  0.4899670000000 1.0
C      1  0.4896090000000  0.5017650000000  0.5332020000000 1.0
C      1  0.5322430000000  0.4911140000000  0.5066540000000 1.0
C      1  0.4809470000000  0.4849720000000  0.4752100000000 1.0
C      1  0.5247220000000  0.4794520000000  0.4809050000000 1.0
C      1  0.5114340000000  0.4829250000000  0.5263050000000 1.0
C      1  0.4663550000000  0.4949470000000  0.5171400000000 1.0
C      1  0.5577930000000  0.4855210000000  0.5393250000000 1.0
C      1  0.5410120000000  0.4857460000000  0.4421550000000 1.0
C      1  0.4412830000000  0.4861980000000  0.4614630000000 1.0
C      1  0.4643470000000  0.4835230000000  0.5613450000000 1.0
C      1  0.4364530000000  0.4831650000000  0.5435500000000 1.0
C      1  0.4666860000000  0.4874040000000  0.4359770000000 1.0
C      1  0.5634160000000  0.4872200000000  0.4669660000000 1.0
C      1  0.5338180000000  0.4869280000000  0.5614840000000 1.0
C      1  0.4888750000000  0.4449350000000  0.4625590000000 1.0
C      1  0.4637050000000  0.4453230000000  0.5125820000000 1.0
C      1  0.5137020000000  0.4426680000000  0.5380370000000 1.0
C      1  0.5402930000000  0.4410760000000  0.4875430000000 1.0
C      1  0.5199700000000  0.4391560000000  0.4659560000000 1.0
C      1  0.5358320000000  0.4388670000000  0.5188420000000 1.0
C      1  0.4823100000000  0.4391480000000  0.5345570000000 1.0
C      1  0.4668540000000  0.4406400000000  0.4815860000000 1.0
C      1  0.5164350000000  0.5121280000000  0.5650970000000 1.0
C      1  0.5649310000000  0.5121110000000  0.4838910000000 1.0
C      1  0.4833460000000  0.5127230000000  0.4335890000000 1.0
C      1  0.4363870000000  0.5095010000000  0.5191030000000 1.0
C      1  0.4842000000000  0.5102340000000  0.5622960000000 1.0
C      1  0.4370710000000  0.5122030000000  0.4826580000000 1.0
C      1  0.5161670000000  0.5112250000000  0.4361700000000 1.0
C      1  0.5618270000000  0.5098810000000  0.5162700000000 1.0
C      1  0.5577130000000  0.5384350000000  0.4728420000000 1.0
C      1  0.4718610000000  0.5389820000000  0.4403260000000 1.0
C      1  0.4397980000000  0.5384170000000  0.5266750000000 1.0
C      1  0.5267780000000  0.5394520000000  0.5597490000000 1.0
C      1  0.4378720000000  0.5420070000000  0.4754690000000 1.0
C      1  0.5242850000000  0.5411240000000  0.4393780000000 1.0
C      1  0.5585630000000  0.5390310000000  0.5249370000000 1.0
C      1  0.4749620000000  0.5394140000000  0.5607560000000 1.0
C      1  0.5592850000000  0.4607640000000  0.5203270000000 1.0
C      1  0.5212920000000  0.4612240000000  0.4414400000000 1.0
C      1  0.4415880000000  0.4616160000000  0.4808350000000 1.0
C      1  0.4823530000000  0.4594560000000  0.5603520000000 1.0
C      1  0.4376050000000  0.4626620000000  0.5168750000000 1.0
C      1  0.4855240000000  0.4629460000000  0.4366480000000 1.0
C      1  0.5646500000000  0.4621180000000  0.4847510000000 1.0
C      1  0.5170820000000  0.4616520000000  0.5630590000000 1.0
C      1  0.4987290000000  0.5254960000000  0.5182780000000 1.0
C      1  0.5238070000000  0.5201340000000  0.5021390000000 1.0
C      1  0.5085950000000  0.5214000000000  0.4761500000000 1.0
C      1  0.4837360000000  0.5274640000000  0.4920010000000 1.0
END
