TITL C-3985259-1859-1216 -0.000317985795327769 125000 -331.595686454159 0 0 60 (C1) n - 1
REM
REM in /home/nfs/bkarasulu/CARBON/AIRSS/Generating-Clusters/TERSOFF/Higher-Symm/Only-C60
REM
REM
REM
REM
REM
REM ./C.cell (28575a23ae977d3b5fae324c64b13b57)
REM
REM compiler GCC version 9.2.1 20190827 (Red Hat 9.2.1-1)
REM options -cpp -mtune=generic -march=x86-64 -g -O0 -fpre-include=/usr/include/finclude/math-vector-fortran.h
REM seed -1977973633 1999287936 853246609 -1796982953 -758728523 -578517112 1182577991 1517496636 -1676646641 1438367394 842505355 210208961 -1913369680 -2101920900 1756827495 -1004182906 -1427803813 -485410016 -1499877372 1683519019 -1718921554 -1006548086 -1251365184 -1714819939 -58219314 1576373568 -847015248 850701890 -1902964380 -1746205109 1831104691 638672951 1071652687
REM
CELL 1.54180   50.00000   50.00000   50.00000   90.00000   90.00000   90.00000
LATT -1
SFAC C  
C      1  0.4470420000000  0.5318290000000  0.4559010000000 1.0
C      1  0.5034480000000  0.5651120000000  0.4928430000000 1.0
C      1  0.5371460000000  0.5602090000000  0.5297490000000 1.0
C      1  0.4641150000000  0.4580940000000  0.5359640000000 1.0
C      1  0.5147520000000  0.5052960000000  0.5017710000000 1.0
C      1  0.4826470000000  0.4284140000000  0.4915330000000 1.0
C      1  0.5465710000000  0.5426550000000  0.4814390000000 1.0
C      1  0.4371370000000  0.4992500000000  0.5200300000000 1.0
C      1  0.4332520000000  0.5099800000000  0.4705550000000 1.0
C      1  0.5004810000000  0.4255550000000  0.5148320000000 1.0
C      1  0.4706990000000  0.4547410000000  0.4852660000000 1.0
C      1  0.5061650000000  0.5503010000000  0.4650180000000 1.0
C      1  0.5096360000000  0.4737920000000  0.5088420000000 1.0
C      1  0.4543410000000  0.5565910000000  0.4714590000000 1.0
C      1  0.4459800000000  0.4835990000000  0.4675250000000 1.0
C      1  0.5465270000000  0.4658630000000  0.5347230000000 1.0
C      1  0.5592840000000  0.4929910000000  0.5332080000000 1.0
C      1  0.5437250000000  0.4415150000000  0.4668470000000 1.0
C      1  0.5646750000000  0.4530160000000  0.4861840000000 1.0
C      1  0.5193120000000  0.4501210000000  0.4864470000000 1.0
C      1  0.4885530000000  0.5066450000000  0.4833810000000 1.0
C      1  0.4881930000000  0.5281390000000  0.4632860000000 1.0
C      1  0.5016860000000  0.5334860000000  0.5710590000000 1.0
C      1  0.5387840000000  0.4939850000000  0.4643320000000 1.0
C      1  0.4815350000000  0.5068720000000  0.5429230000000 1.0
C      1  0.5420560000000  0.5141700000000  0.4905110000000 1.0
C      1  0.5342350000000  0.5155550000000  0.4428430000000 1.0
C      1  0.5068600000000  0.5519200000000  0.5249660000000 1.0
C      1  0.5115430000000  0.4644140000000  0.4320310000000 1.0
C      1  0.4407870000000  0.5162000000000  0.5469450000000 1.0
C      1  0.5667040000000  0.4816320000000  0.4808960000000 1.0
C      1  0.5061760000000  0.4907680000000  0.5541980000000 1.0
C      1  0.4698450000000  0.5363410000000  0.5541400000000 1.0
C      1  0.4715960000000  0.5221090000000  0.4383280000000 1.0
C      1  0.5541580000000  0.4447620000000  0.5143630000000 1.0
C      1  0.4398170000000  0.4601430000000  0.4883050000000 1.0
C      1  0.5144970000000  0.4729120000000  0.4637570000000 1.0
C      1  0.5554330000000  0.5428110000000  0.5439230000000 1.0
C      1  0.4865160000000  0.5615940000000  0.5438020000000 1.0
C      1  0.5163400000000  0.4675770000000  0.5390320000000 1.0
C      1  0.5371550000000  0.5645390000000  0.4988700000000 1.0
C      1  0.4618840000000  0.5388430000000  0.5185650000000 1.0
C      1  0.4322480000000  0.5401640000000  0.5119590000000 1.0
C      1  0.4787820000000  0.4730040000000  0.5095390000000 1.0
C      1  0.5658430000000  0.5013500000000  0.5056990000000 1.0
C      1  0.4818510000000  0.4816070000000  0.4648000000000 1.0
C      1  0.4878380000000  0.4918200000000  0.4308590000000 1.0
C      1  0.5382580000000  0.4489550000000  0.4387660000000 1.0
C      1  0.4721540000000  0.5568650000000  0.4956480000000 1.0
C      1  0.4220410000000  0.5156130000000  0.4977670000000 1.0
C      1  0.4378530000000  0.4684260000000  0.5176550000000 1.0
C      1  0.5489610000000  0.5153930000000  0.5513470000000 1.0
C      1  0.4942960000000  0.4447410000000  0.5364500000000 1.0
C      1  0.5045080000000  0.5214370000000  0.5247530000000 1.0
C      1  0.4650190000000  0.4824890000000  0.5532560000000 1.0
C      1  0.5137150000000  0.5083450000000  0.4233510000000 1.0
C      1  0.5302590000000  0.4253880000000  0.5072140000000 1.0
C      1  0.5336640000000  0.5432780000000  0.4546440000000 1.0
C      1  0.4684640000000  0.5054870000000  0.5102840000000 1.0
C      1  0.5229630000000  0.5112960000000  0.5654190000000 1.0
END
