TITL C-3985254-1270-1137 0.00933818907043294 125000 -285.269245327062 0 0 60 (D6h) n - 1
REM
REM in /home/nfs/bkarasulu/CARBON/AIRSS/Generating-Clusters/TERSOFF/Higher-Symm/Only-C60
REM
REM
REM
REM
REM
REM ./C.cell (28575a23ae977d3b5fae324c64b13b57)
REM
REM compiler GCC version 9.2.1 20190827 (Red Hat 9.2.1-1)
REM options -cpp -mtune=generic -march=x86-64 -g -O0 -fpre-include=/usr/include/finclude/math-vector-fortran.h
REM seed 319438268 1490505821 -1689505953 55331150 -322317316 -903178669 -108081804 -2026172611 1646062843 2086158298 -1796402064 1071368396 -431086771 -25388137 953645534 1170687367 -313366300 -1069498763 729049688 -707586823 1917930469 1547281667 61150019 334586690 -202700988 252489408 -1361687965 -1147362980 1084936440 1317863484 1946596111 -1666852723 1515094625
REM
CELL 1.54180   50.00000   50.00000   50.00000   90.00000   90.00000   90.00000
LATT -1
SFAC C  
C      1  0.4811500000000  0.4703140000000  0.4449790000000 1.0
C      1  0.5382340000000  0.4702800000000  0.4561580000000 1.0
C      1  0.5570780000000  0.4703010000000  0.5111930000000 1.0
C      1  0.5188500000000  0.4703140000000  0.5550210000000 1.0
C      1  0.4617660000000  0.4702800000000  0.5438420000000 1.0
C      1  0.4429220000000  0.4703010000000  0.4888070000000 1.0
C      1  0.4811500000000  0.5296860000000  0.4449790000000 1.0
C      1  0.5382340000000  0.5297200000000  0.4561580000000 1.0
C      1  0.5570780000000  0.5296990000000  0.5111930000000 1.0
C      1  0.5188500000000  0.5296860000000  0.5550210000000 1.0
C      1  0.4617660000000  0.5297200000000  0.5438420000000 1.0
C      1  0.4429220000000  0.5296990000000  0.4888070000000 1.0
C      1  0.4508440000000  0.5151150000000  0.4571040000000 1.0
C      1  0.5125760000000  0.5151180000000  0.4360000000000 1.0
C      1  0.5617070000000  0.5151170000000  0.4788540000000 1.0
C      1  0.5491560000000  0.5151150000000  0.5428960000000 1.0
C      1  0.4874240000000  0.5151180000000  0.5640000000000 1.0
C      1  0.4382930000000  0.5151170000000  0.5211460000000 1.0
C      1  0.4508440000000  0.4848850000000  0.4571040000000 1.0
C      1  0.5125760000000  0.4848820000000  0.4360000000000 1.0
C      1  0.5617070000000  0.4848830000000  0.4788540000000 1.0
C      1  0.5491560000000  0.4848850000000  0.5428960000000 1.0
C      1  0.4874240000000  0.4848820000000  0.5640000000000 1.0
C      1  0.4382930000000  0.4848830000000  0.5211460000000 1.0
C      1  0.4902190000000  0.4838620000000  0.4715190000000 1.0
C      1  0.5198190000000  0.4838740000000  0.4772840000000 1.0
C      1  0.5295210000000  0.4838660000000  0.5057990000000 1.0
C      1  0.5097810000000  0.4838620000000  0.5284810000000 1.0
C      1  0.4801810000000  0.4838740000000  0.5227160000000 1.0
C      1  0.4704790000000  0.4838660000000  0.4942010000000 1.0
C      1  0.4902190000000  0.5161380000000  0.4715190000000 1.0
C      1  0.5198190000000  0.5161260000000  0.4772840000000 1.0
C      1  0.5295210000000  0.5161340000000  0.5057990000000 1.0
C      1  0.5097810000000  0.5161380000000  0.5284810000000 1.0
C      1  0.4801810000000  0.5161260000000  0.5227160000000 1.0
C      1  0.4704790000000  0.5161340000000  0.4942010000000 1.0
C      1  0.4631890000000  0.4410710000000  0.5421830000000 1.0
C      1  0.4450610000000  0.4410520000000  0.4892160000000 1.0
C      1  0.4818740000000  0.4410410000000  0.4470280000000 1.0
C      1  0.5368110000000  0.4410710000000  0.4578170000000 1.0
C      1  0.5549390000000  0.4410520000000  0.5107840000000 1.0
C      1  0.5181260000000  0.4410410000000  0.5529720000000 1.0
C      1  0.4631890000000  0.5589290000000  0.5421830000000 1.0
C      1  0.4450610000000  0.5589480000000  0.4892160000000 1.0
C      1  0.4818740000000  0.5589590000000  0.4470280000000 1.0
C      1  0.5368110000000  0.5589290000000  0.4578170000000 1.0
C      1  0.5549390000000  0.5589480000000  0.5107840000000 1.0
C      1  0.5181260000000  0.5589590000000  0.5529720000000 1.0
C      1  0.5272470000000  0.5767080000000  0.5237680000000 1.0
C      1  0.4930420000000  0.5767100000000  0.5354800000000 1.0
C      1  0.4657940000000  0.5767110000000  0.5117120000000 1.0
C      1  0.4727530000000  0.5767080000000  0.4762320000000 1.0
C      1  0.5069580000000  0.5767100000000  0.4645200000000 1.0
C      1  0.5342060000000  0.5767110000000  0.4882880000000 1.0
C      1  0.5272470000000  0.4232920000000  0.5237680000000 1.0
C      1  0.4930420000000  0.4232900000000  0.5354800000000 1.0
C      1  0.4657940000000  0.4232890000000  0.5117120000000 1.0
C      1  0.4727530000000  0.4232920000000  0.4762320000000 1.0
C      1  0.5069580000000  0.4232900000000  0.4645200000000 1.0
C      1  0.5342060000000  0.4232890000000  0.4882880000000 1.0
END
