TITL C-3985250-725-339 -0.0172629512568833 125000 -287.627731464703 0 0 60 (C4) n - 1
REM
REM in /home/nfs/bkarasulu/CARBON/AIRSS/Generating-Clusters/TERSOFF/Higher-Symm/Only-C60
REM
REM
REM
REM
REM
REM ./C.cell (28575a23ae977d3b5fae324c64b13b57)
REM
REM compiler GCC version 9.2.1 20190827 (Red Hat 9.2.1-1)
REM options -cpp -mtune=generic -march=x86-64 -g -O0 -fpre-include=/usr/include/finclude/math-vector-fortran.h
REM seed -1890079605 -583569102 2097469602 1138793275 608366405 1032295978 314693844 1596690468 1237611881 -1366388090 724290414 1456047791 -873820777 -4539557 636433700 -1013451431 2070645318 -939707082 -1211940753 -126209732 10968085 -818649318 -2092284285 1717508923 -557080646 -839801589 -235822007 1222468949 -1453793778 -158610310 -1406890063 -1314873292 564253721
REM
CELL 1.54180   50.00000   50.00000   50.00000   90.00000   90.00000   90.00000
LATT -1
SFAC C  
C      1  0.5486840000000  0.5031060000000  0.4583070000000 1.0
C      1  0.5209830000000  0.5027820000000  0.4399710000000 1.0
C      1  0.4879820000000  0.5043140000000  0.4367400000000 1.0
C      1  0.4583900000000  0.5032120000000  0.4514130000000 1.0
C      1  0.4398650000000  0.5026620000000  0.4789770000000 1.0
C      1  0.4368660000000  0.5044110000000  0.5119890000000 1.0
C      1  0.4513330000000  0.5031150000000  0.5416930000000 1.0
C      1  0.4790030000000  0.5027470000000  0.5600510000000 1.0
C      1  0.5120020000000  0.5043620000000  0.5632150000000 1.0
C      1  0.5416490000000  0.5031630000000  0.5486240000000 1.0
C      1  0.5601090000000  0.5027020000000  0.5210120000000 1.0
C      1  0.5631660000000  0.5044020000000  0.4880040000000 1.0
C      1  0.5615590000000  0.5292590000000  0.4471050000000 1.0
C      1  0.5267290000000  0.5291270000000  0.4239200000000 1.0
C      1  0.4849710000000  0.5303480000000  0.4203370000000 1.0
C      1  0.4472060000000  0.5294740000000  0.4386040000000 1.0
C      1  0.4235860000000  0.5288980000000  0.4732710000000 1.0
C      1  0.4206360000000  0.5305640000000  0.5150600000000 1.0
C      1  0.4384130000000  0.5292760000000  0.5528790000000 1.0
C      1  0.4731590000000  0.5290660000000  0.5761640000000 1.0
C      1  0.5150700000000  0.5304390000000  0.5796070000000 1.0
C      1  0.5528490000000  0.5293820000000  0.5615770000000 1.0
C      1  0.5764020000000  0.5289660000000  0.5265850000000 1.0
C      1  0.5793720000000  0.5305320000000  0.4848950000000 1.0
C      1  0.4504200000000  0.5561060000000  0.5429060000000 1.0
C      1  0.4784190000000  0.5560950000000  0.5615740000000 1.0
C      1  0.5121780000000  0.5571420000000  0.5638160000000 1.0
C      1  0.5427970000000  0.5562810000000  0.5494570000000 1.0
C      1  0.5617140000000  0.5559270000000  0.5216200000000 1.0
C      1  0.5636640000000  0.5573060000000  0.4878450000000 1.0
C      1  0.5496110000000  0.5560810000000  0.4570970000000 1.0
C      1  0.5215410000000  0.5561730000000  0.4384940000000 1.0
C      1  0.4878060000000  0.5570240000000  0.4360640000000 1.0
C      1  0.4572860000000  0.5564100000000  0.4506400000000 1.0
C      1  0.4381940000000  0.5558330000000  0.4783580000000 1.0
C      1  0.4363900000000  0.5573580000000  0.5121290000000 1.0
C      1  0.5230830000000  0.4692930000000  0.4343370000000 1.0
C      1  0.4869560000000  0.4732030000000  0.4280820000000 1.0
C      1  0.4540850000000  0.4704140000000  0.4461130000000 1.0
C      1  0.4342520000000  0.4692700000000  0.4768960000000 1.0
C      1  0.4281740000000  0.4732080000000  0.5130400000000 1.0
C      1  0.4460670000000  0.4704100000000  0.5459850000000 1.0
C      1  0.4769270000000  0.4692700000000  0.5656750000000 1.0
C      1  0.5130520000000  0.4732470000000  0.5719010000000 1.0
C      1  0.5459140000000  0.4703780000000  0.5538950000000 1.0
C      1  0.5657200000000  0.4692940000000  0.5231020000000 1.0
C      1  0.5718300000000  0.4732070000000  0.4869500000000 1.0
C      1  0.5539330000000  0.4703980000000  0.4540340000000 1.0
C      1  0.4542910000000  0.4386990000000  0.5376780000000 1.0
C      1  0.4819260000000  0.4361720000000  0.5539350000000 1.0
C      1  0.5111920000000  0.4437630000000  0.5606430000000 1.0
C      1  0.5375740000000  0.4385620000000  0.5456860000000 1.0
C      1  0.5540230000000  0.4363010000000  0.5181420000000 1.0
C      1  0.5606420000000  0.4436870000000  0.4887990000000 1.0
C      1  0.5457060000000  0.4386720000000  0.4623350000000 1.0
C      1  0.5180930000000  0.4362140000000  0.4460580000000 1.0
C      1  0.4887920000000  0.4437220000000  0.4393430000000 1.0
C      1  0.4624220000000  0.4386170000000  0.4543160000000 1.0
C      1  0.4459750000000  0.4362710000000  0.4818640000000 1.0
C      1  0.4393670000000  0.4436820000000  0.5111960000000 1.0
END
