TITL C-3985245-9316-888 0.00455575797667331 125000 -296.771267832109 0 0 60 (C1) n - 1
REM
REM in /home/nfs/bkarasulu/CARBON/AIRSS/Generating-Clusters/TERSOFF/Higher-Symm/Only-C60
REM
REM
REM
REM
REM
REM ./C.cell (28575a23ae977d3b5fae324c64b13b57)
REM
REM compiler GCC version 9.2.1 20190827 (Red Hat 9.2.1-1)
REM options -cpp -mtune=generic -march=x86-64 -g -O0 -fpre-include=/usr/include/finclude/math-vector-fortran.h
REM seed 1886807 749126709 1558600987 -1794185809 -2060145124 410471877 205455865 1508364121 -1429241111 898235300 1713285745 1149378040 -529452196 -290684304 -1906041902 1283382239 -426933273 -939787352 1917685012 -1529552498 1089853823 1671176443 -907100046 1702716960 -1925163795 696439728 -1193587180 -2006693973 1672064502 526033069 -63387110 -157126432 -1191928697
REM
CELL 1.54180   50.00000   50.00000   50.00000   90.00000   90.00000   90.00000
LATT -1
SFAC C  
C      1  0.5549000000000  0.4793260000000  0.4391220000000 1.0
C      1  0.5251480000000  0.4787510000000  0.5774250000000 1.0
C      1  0.4199250000000  0.4790010000000  0.4831760000000 1.0
C      1  0.4320360000000  0.4955430000000  0.5053280000000 1.0
C      1  0.5295150000000  0.4955890000000  0.4387630000000 1.0
C      1  0.5378710000000  0.4953800000000  0.5556530000000 1.0
C      1  0.4546030000000  0.4977950000000  0.4686960000000 1.0
C      1  0.5513800000000  0.4999190000000  0.4755000000000 1.0
C      1  0.4954470000000  0.4980600000000  0.5549120000000 1.0
C      1  0.5176170000000  0.4894510000000  0.5315260000000 1.0
C      1  0.4625700000000  0.4899340000000  0.4996130000000 1.0
C      1  0.5196240000000  0.4899350000000  0.4683820000000 1.0
C      1  0.4594940000000  0.4400820000000  0.5294580000000 1.0
C      1  0.4930140000000  0.4384230000000  0.4560470000000 1.0
C      1  0.5429960000000  0.4394320000000  0.5171250000000 1.0
C      1  0.4678500000000  0.5103630000000  0.5424520000000 1.0
C      1  0.4798210000000  0.5092500000000  0.4513810000000 1.0
C      1  0.5528020000000  0.5097100000000  0.5063120000000 1.0
C      1  0.4987410000000  0.5292530000000  0.5635620000000 1.0
C      1  0.4460860000000  0.5289050000000  0.4668980000000 1.0
C      1  0.5560060000000  0.5305360000000  0.4700290000000 1.0
C      1  0.4721470000000  0.4625650000000  0.4832530000000 1.0
C      1  0.5313040000000  0.4641900000000  0.4839820000000 1.0
C      1  0.4974060000000  0.4632800000000  0.5315270000000 1.0
C      1  0.5626170000000  0.4665710000000  0.4685560000000 1.0
C      1  0.4964310000000  0.4648430000000  0.5676370000000 1.0
C      1  0.4423000000000  0.4653190000000  0.4630050000000 1.0
C      1  0.5410510000000  0.5476340000000  0.5420180000000 1.0
C      1  0.4432660000000  0.5475330000000  0.5146250000000 1.0
C      1  0.5158430000000  0.5476500000000  0.4434270000000 1.0
C      1  0.4775340000000  0.4384910000000  0.5026590000000 1.0
C      1  0.5146660000000  0.4394850000000  0.4807010000000 1.0
C      1  0.5082250000000  0.4358570000000  0.5122080000000 1.0
C      1  0.5117440000000  0.5416180000000  0.5380220000000 1.0
C      1  0.4612100000000  0.5417280000000  0.4909490000000 1.0
C      1  0.5271730000000  0.5421190000000  0.4709180000000 1.0
C      1  0.4619990000000  0.5564680000000  0.5366530000000 1.0
C      1  0.4873190000000  0.5561840000000  0.4485280000000 1.0
C      1  0.5507040000000  0.5565470000000  0.5148720000000 1.0
C      1  0.4908120000000  0.5610410000000  0.5281630000000 1.0
C      1  0.4802390000000  0.5610980000000  0.4776990000000 1.0
C      1  0.5289050000000  0.5613520000000  0.4941930000000 1.0
C      1  0.5707480000000  0.4537450000000  0.4987060000000 1.0
C      1  0.4651760000000  0.4544000000000  0.5623030000000 1.0
C      1  0.4638820000000  0.4535200000000  0.4406280000000 1.0
C      1  0.4659910000000  0.5368820000000  0.5595750000000 1.0
C      1  0.4660400000000  0.5359070000000  0.4408250000000 1.0
C      1  0.5684580000000  0.5368660000000  0.5002960000000 1.0
C      1  0.4668970000000  0.4725580000000  0.5246640000000 1.0
C      1  0.4955130000000  0.4715670000000  0.4612470000000 1.0
C      1  0.5368840000000  0.4719060000000  0.5152480000000 1.0
C      1  0.5670790000000  0.4827290000000  0.5170150000000 1.0
C      1  0.4515680000000  0.4836390000000  0.5505300000000 1.0
C      1  0.4814310000000  0.4818500000000  0.4340530000000 1.0
C      1  0.5224590000000  0.5164030000000  0.5181740000000 1.0
C      1  0.4725130000000  0.5165730000000  0.5103750000000 1.0
C      1  0.5051050000000  0.5164730000000  0.4714670000000 1.0
C      1  0.5238350000000  0.5230110000000  0.4268260000000 1.0
C      1  0.5513320000000  0.5227300000000  0.5569270000000 1.0
C      1  0.4247490000000  0.5230310000000  0.5161890000000 1.0
END
