TITL C-3985245-9316-1195 -0.000412807435608186 125000 -328.190226263774 0 0 60 (Cs) n - 1
REM
REM in /home/nfs/bkarasulu/CARBON/AIRSS/Generating-Clusters/TERSOFF/Higher-Symm/Only-C60
REM
REM
REM
REM
REM
REM ./C.cell (28575a23ae977d3b5fae324c64b13b57)
REM
REM compiler GCC version 9.2.1 20190827 (Red Hat 9.2.1-1)
REM options -cpp -mtune=generic -march=x86-64 -g -O0 -fpre-include=/usr/include/finclude/math-vector-fortran.h
REM seed 166369654 -359917848 764088820 1815542117 -421108454 113468429 -664669064 -1043232485 -2065643409 2107639381 1805356738 -2069189420 -357862286 766851358 -1317141478 1477235722 -608700172 -785194116 -1031631895 803761240 -952424076 454199325 -1164582537 648603222 1717183899 -323052951 595229525 723957566 -2071726243 -1222506362 1713213798 1809642507 -1755885294
REM
CELL 1.54180   50.00000   50.00000   50.00000   90.00000   90.00000   90.00000
LATT -1
SFAC C  
C      1  0.4774110000000  0.4164960000000  0.4950610000000 1.0
C      1  0.4774110000000  0.5835040000000  0.4950610000000 1.0
C      1  0.5010500000000  0.5709590000000  0.4733710000000 1.0
C      1  0.5010500000000  0.4290410000000  0.4733710000000 1.0
C      1  0.4616910000000  0.4375790000000  0.5095840000000 1.0
C      1  0.4616910000000  0.5624210000000  0.5095840000000 1.0
C      1  0.5335510000000  0.4832950000000  0.5425210000000 1.0
C      1  0.5335510000000  0.5167050000000  0.5425210000000 1.0
C      1  0.5642080000000  0.5150990000000  0.4730780000000 1.0
C      1  0.5642080000000  0.4849010000000  0.4730780000000 1.0
C      1  0.5097090000000  0.5590280000000  0.5059880000000 1.0
C      1  0.5097090000000  0.4409720000000  0.5059880000000 1.0
C      1  0.5130600000000  0.5291290000000  0.4973720000000 1.0
C      1  0.5130610000000  0.4708710000000  0.4973710000000 1.0
C      1  0.5425710000000  0.5489950000000  0.5376280000000 1.0
C      1  0.5425710000000  0.4510050000000  0.5376280000000 1.0
C      1  0.4963500000000  0.5660360000000  0.5330180000000 1.0
C      1  0.4963500000000  0.4339630000000  0.5330180000000 1.0
C      1  0.4784790000000  0.4729730000000  0.4513150000000 1.0
C      1  0.4784790000000  0.5270270000000  0.4513150000000 1.0
C      1  0.4796890000000  0.5153080000000  0.5658830000000 1.0
C      1  0.4796890000000  0.4846920000000  0.5658820000000 1.0
C      1  0.4839870000000  0.4850030000000  0.5241200000000 1.0
C      1  0.4839880000000  0.5149980000000  0.5241210000000 1.0
C      1  0.5257110000000  0.4842700000000  0.4395190000000 1.0
C      1  0.5257110000000  0.5157300000000  0.4395190000000 1.0
C      1  0.4903380000000  0.4855290000000  0.4826160000000 1.0
C      1  0.4903380000000  0.5144710000000  0.4826130000000 1.0
C      1  0.4726810000000  0.4497520000000  0.4699960000000 1.0
C      1  0.4726800000000  0.5502480000000  0.4699960000000 1.0
C      1  0.4664730000000  0.4412160000000  0.5390290000000 1.0
C      1  0.4664730000000  0.5587840000000  0.5390290000000 1.0
C      1  0.4392770000000  0.5162290000000  0.5062600000000 1.0
C      1  0.4392770000000  0.4837710000000  0.5062600000000 1.0
C      1  0.5356180000000  0.5150210000000  0.5104640000000 1.0
C      1  0.5356180000000  0.4849790000000  0.5104640000000 1.0
C      1  0.4561240000000  0.4859850000000  0.4387270000000 1.0
C      1  0.4561240000000  0.5140150000000  0.4387270000000 1.0
C      1  0.5441820000000  0.5304350000000  0.4572730000000 1.0
C      1  0.5441820000000  0.4695650000000  0.4572730000000 1.0
C      1  0.5039140000000  0.5271070000000  0.5496120000000 1.0
C      1  0.5039140000000  0.4728930000000  0.5496120000000 1.0
C      1  0.5154860000000  0.5568080000000  0.5532230000000 1.0
C      1  0.5154860000000  0.4431920000000  0.5532230000000 1.0
C      1  0.4367300000000  0.4838680000000  0.5380720000000 1.0
C      1  0.4367300000000  0.5161320000000  0.5380720000000 1.0
C      1  0.5458240000000  0.4426300000000  0.5051260000000 1.0
C      1  0.5458240000000  0.5573700000000  0.5051260000000 1.0
C      1  0.4647040000000  0.4675500000000  0.4991520000000 1.0
C      1  0.4647040000000  0.5324490000000  0.4991530000000 1.0
C      1  0.5344810000000  0.4434990000000  0.4723330000000 1.0
C      1  0.5344810000000  0.5565010000000  0.4723330000000 1.0
C      1  0.5613260000000  0.4722510000000  0.5002790000000 1.0
C      1  0.5613260000000  0.5277490000000  0.5002790000000 1.0
C      1  0.4576110000000  0.5318340000000  0.5523740000000 1.0
C      1  0.4576110000000  0.4681660000000  0.5523740000000 1.0
C      1  0.5020910000000  0.5330990000000  0.4347540000000 1.0
C      1  0.5020920000000  0.4669010000000  0.4347540000000 1.0
C      1  0.5056730000000  0.5618460000000  0.4422500000000 1.0
C      1  0.5056730000000  0.4381540000000  0.4422500000000 1.0
END
