TITL C-3985254-1270-4 1.26628863524409e-07 125000 -253.777434213923 0 0 60 (Td) n - 1
REM
REM in /home/nfs/bkarasulu/CARBON/AIRSS/Generating-Clusters/TERSOFF/Higher-Symm/Only-C60
REM
REM
REM
REM
REM
REM ./C.cell (28575a23ae977d3b5fae324c64b13b57)
REM
REM compiler GCC version 9.2.1 20190827 (Red Hat 9.2.1-1)
REM options -cpp -mtune=generic -march=x86-64 -g -O0 -fpre-include=/usr/include/finclude/math-vector-fortran.h
REM seed -425355711 241829 -1329051095 -1318105846 -875837466 -2048632974 -674583430 780053511 679116919 -1167203839 286914971 860288384 -718551262 479193542 381703158 -129675126 -959668606 761931548 169876444 645054991 1616548537 2135029839 -1255472474 2092410214 1627782945 -816943465 -838234760 -904705255 670644512 1715298549 1951722036 -1932598383 2077953242
REM
CELL 1.54180   50.00000   50.00000   50.00000   90.00000   90.00000   90.00000
LATT -1
SFAC C  
C      1  0.4767300000000  0.4992110000000  0.5862610000000 1.0
C      1  0.5862610000000  0.4767300000000  0.4992110000000 1.0
C      1  0.4992110000000  0.5862610000000  0.4767300000000 1.0
C      1  0.4767300000000  0.5007890000000  0.4137390000000 1.0
C      1  0.5232700000000  0.5007890000000  0.5862610000000 1.0
C      1  0.5232700000000  0.4992110000000  0.4137390000000 1.0
C      1  0.5862610000000  0.5232700000000  0.5007890000000 1.0
C      1  0.4137390000000  0.5232700000000  0.4992110000000 1.0
C      1  0.4137390000000  0.4767300000000  0.5007890000000 1.0
C      1  0.4992110000000  0.4137390000000  0.5232700000000 1.0
C      1  0.5007890000000  0.4137390000000  0.4767300000000 1.0
C      1  0.5007890000000  0.5862610000000  0.5232700000000 1.0
C      1  0.4767300000000  0.5862610000000  0.4992110000000 1.0
C      1  0.5862610000000  0.4992110000000  0.4767300000000 1.0
C      1  0.4992110000000  0.4767300000000  0.5862610000000 1.0
C      1  0.4767300000000  0.4137390000000  0.5007890000000 1.0
C      1  0.5232700000000  0.5862610000000  0.5007890000000 1.0
C      1  0.5232700000000  0.4137390000000  0.4992110000000 1.0
C      1  0.5862610000000  0.5007890000000  0.5232700000000 1.0
C      1  0.4137390000000  0.4992110000000  0.5232700000000 1.0
C      1  0.4137390000000  0.5007890000000  0.4767300000000 1.0
C      1  0.4992110000000  0.5232700000000  0.4137390000000 1.0
C      1  0.5007890000000  0.4767300000000  0.4137390000000 1.0
C      1  0.5007890000000  0.5232700000000  0.5862610000000 1.0
C      1  0.4410510000000  0.5116330000000  0.5345460000000 1.0
C      1  0.5345460000000  0.4410510000000  0.5116330000000 1.0
C      1  0.5116330000000  0.5345460000000  0.4410510000000 1.0
C      1  0.4410510000000  0.4883670000000  0.4654540000000 1.0
C      1  0.5589490000000  0.4883670000000  0.5345460000000 1.0
C      1  0.5589490000000  0.5116330000000  0.4654540000000 1.0
C      1  0.5345460000000  0.5589490000000  0.4883670000000 1.0
C      1  0.4654540000000  0.5589490000000  0.5116330000000 1.0
C      1  0.4654540000000  0.4410510000000  0.4883670000000 1.0
C      1  0.5116330000000  0.4654540000000  0.5589490000000 1.0
C      1  0.4883670000000  0.4654540000000  0.4410510000000 1.0
C      1  0.4883670000000  0.5345460000000  0.5589490000000 1.0
C      1  0.4410510000000  0.5345460000000  0.5116330000000 1.0
C      1  0.5345460000000  0.5116330000000  0.4410510000000 1.0
C      1  0.5116330000000  0.4410510000000  0.5345460000000 1.0
C      1  0.4410510000000  0.4654540000000  0.4883670000000 1.0
C      1  0.5589490000000  0.5345460000000  0.4883670000000 1.0
C      1  0.5589490000000  0.4654540000000  0.5116330000000 1.0
C      1  0.5345460000000  0.4883670000000  0.5589490000000 1.0
C      1  0.4654540000000  0.5116330000000  0.5589490000000 1.0
C      1  0.4654540000000  0.4883670000000  0.4410510000000 1.0
C      1  0.5116330000000  0.5589490000000  0.4654540000000 1.0
C      1  0.4883670000000  0.4410510000000  0.4654540000000 1.0
C      1  0.4883670000000  0.5589490000000  0.5345460000000 1.0
C      1  0.4998230000000  0.5257370000000  0.4742630000000 1.0
C      1  0.5001770000000  0.4742630000000  0.4742630000000 1.0
C      1  0.5257370000000  0.4998230000000  0.4742630000000 1.0
C      1  0.5257370000000  0.4742630000000  0.4998230000000 1.0
C      1  0.4998230000000  0.4742630000000  0.5257370000000 1.0
C      1  0.4742630000000  0.5001770000000  0.4742630000000 1.0
C      1  0.4742630000000  0.4998230000000  0.5257370000000 1.0
C      1  0.4742630000000  0.4742630000000  0.5001770000000 1.0
C      1  0.4742630000000  0.5257370000000  0.4998230000000 1.0
C      1  0.5001770000000  0.5257370000000  0.5257370000000 1.0
C      1  0.5257370000000  0.5257370000000  0.5001770000000 1.0
C      1  0.5257370000000  0.5001770000000  0.5257370000000 1.0
END
