TITL C-3985247-764-596 3.26396829437133e-08 125000 -293.071544287004 0 0 60 (Td) n - 1
REM
REM in /home/nfs/bkarasulu/CARBON/AIRSS/Generating-Clusters/TERSOFF/Higher-Symm/Only-C60
REM
REM
REM
REM
REM
REM ./C.cell (28575a23ae977d3b5fae324c64b13b57)
REM
REM compiler GCC version 9.2.1 20190827 (Red Hat 9.2.1-1)
REM options -cpp -mtune=generic -march=x86-64 -g -O0 -fpre-include=/usr/include/finclude/math-vector-fortran.h
REM seed 1098344034 -1206755968 1765228499 -1803393829 -1371765472 -51812197 -963582461 401932265 1361033957 -1356177572 503414646 1892531212 -1697663276 -1750736096 1459519240 843208110 -1586688350 695791758 -1787636744 182563869 -1810050491 -479714208 -2129466558 -581134649 992613212 14649869 -1667057025 -1935699224 1547270084 2013709472 148035710 -32243763 -1962855852
REM
CELL 1.54180   50.00000   50.00000   50.00000   90.00000   90.00000   90.00000
LATT -1
SFAC C  
C      1  0.4143210000000  0.4770590000000  0.5001390000000 1.0
C      1  0.5001390000000  0.4143210000000  0.4770590000000 1.0
C      1  0.4770590000000  0.5001390000000  0.4143210000000 1.0
C      1  0.5856790000000  0.5229410000000  0.5001390000000 1.0
C      1  0.5856790000000  0.4770590000000  0.4998610000000 1.0
C      1  0.4143210000000  0.5229410000000  0.4998610000000 1.0
C      1  0.4998610000000  0.5856790000000  0.4770590000000 1.0
C      1  0.4998610000000  0.4143210000000  0.5229410000000 1.0
C      1  0.5001390000000  0.5856790000000  0.5229410000000 1.0
C      1  0.5229410000000  0.4998610000000  0.4143210000000 1.0
C      1  0.5229410000000  0.5001390000000  0.5856790000000 1.0
C      1  0.4770590000000  0.4998610000000  0.5856790000000 1.0
C      1  0.4770590000000  0.4143210000000  0.5001390000000 1.0
C      1  0.4143210000000  0.5001390000000  0.4770590000000 1.0
C      1  0.5001390000000  0.4770590000000  0.4143210000000 1.0
C      1  0.5229410000000  0.5856790000000  0.5001390000000 1.0
C      1  0.4770590000000  0.5856790000000  0.4998610000000 1.0
C      1  0.5229410000000  0.4143210000000  0.4998610000000 1.0
C      1  0.5856790000000  0.4998610000000  0.4770590000000 1.0
C      1  0.4143210000000  0.4998610000000  0.5229410000000 1.0
C      1  0.5856790000000  0.5001390000000  0.5229410000000 1.0
C      1  0.4998610000000  0.5229410000000  0.4143210000000 1.0
C      1  0.5001390000000  0.5229410000000  0.5856790000000 1.0
C      1  0.4998610000000  0.4770590000000  0.5856790000000 1.0
C      1  0.4427740000000  0.5026770000000  0.5350840000000 1.0
C      1  0.5350840000000  0.4427740000000  0.5026770000000 1.0
C      1  0.5026770000000  0.5350840000000  0.4427740000000 1.0
C      1  0.5572260000000  0.4973230000000  0.5350840000000 1.0
C      1  0.5572260000000  0.5026770000000  0.4649160000000 1.0
C      1  0.4427740000000  0.4973230000000  0.4649160000000 1.0
C      1  0.4649160000000  0.5572260000000  0.5026770000000 1.0
C      1  0.4649160000000  0.4427740000000  0.4973230000000 1.0
C      1  0.5350840000000  0.5572260000000  0.4973230000000 1.0
C      1  0.4973230000000  0.4649160000000  0.4427740000000 1.0
C      1  0.4973230000000  0.5350840000000  0.5572260000000 1.0
C      1  0.5026770000000  0.4649160000000  0.5572260000000 1.0
C      1  0.5026770000000  0.4427740000000  0.5350840000000 1.0
C      1  0.4427740000000  0.5350840000000  0.5026770000000 1.0
C      1  0.5350840000000  0.5026770000000  0.4427740000000 1.0
C      1  0.4973230000000  0.5572260000000  0.5350840000000 1.0
C      1  0.5026770000000  0.5572260000000  0.4649160000000 1.0
C      1  0.4973230000000  0.4427740000000  0.4649160000000 1.0
C      1  0.5572260000000  0.4649160000000  0.5026770000000 1.0
C      1  0.4427740000000  0.4649160000000  0.4973230000000 1.0
C      1  0.5572260000000  0.5350840000000  0.4973230000000 1.0
C      1  0.4649160000000  0.4973230000000  0.4427740000000 1.0
C      1  0.5350840000000  0.4973230000000  0.5572260000000 1.0
C      1  0.4649160000000  0.5026770000000  0.5572260000000 1.0
C      1  0.5106940000000  0.5106940000000  0.4630260000000 1.0
C      1  0.5106940000000  0.4893060000000  0.5369740000000 1.0
C      1  0.4630260000000  0.4893060000000  0.4893060000000 1.0
C      1  0.4893060000000  0.4630260000000  0.4893060000000 1.0
C      1  0.4893060000000  0.4893060000000  0.4630260000000 1.0
C      1  0.5369740000000  0.5106940000000  0.4893060000000 1.0
C      1  0.5369740000000  0.4893060000000  0.5106940000000 1.0
C      1  0.4630260000000  0.5106940000000  0.5106940000000 1.0
C      1  0.5106940000000  0.5369740000000  0.4893060000000 1.0
C      1  0.5106940000000  0.4630260000000  0.5106940000000 1.0
C      1  0.4893060000000  0.5369740000000  0.5106940000000 1.0
C      1  0.4893060000000  0.5106940000000  0.5369740000000 1.0
END
