TITL C-3985252-168-338 -0.000866786925120937 125000 -332.7547614915 0 0 60 (C1) n - 1
REM
REM in /home/nfs/bkarasulu/CARBON/AIRSS/Generating-Clusters/TERSOFF/Higher-Symm/Only-C60
REM
REM
REM
REM
REM
REM ./C.cell (28575a23ae977d3b5fae324c64b13b57)
REM
REM compiler GCC version 9.2.1 20190827 (Red Hat 9.2.1-1)
REM options -cpp -mtune=generic -march=x86-64 -g -O0 -fpre-include=/usr/include/finclude/math-vector-fortran.h
REM seed -1878968146 -498847854 -1719826208 -1103530681 -2018312418 1487368558 -463826159 30956759 973686683 391434413 888667900 -205947281 -491567162 -491214403 -1312908641 -1521038665 -1210914912 -38938772 108353968 1987575072 -692565757 2013089252 -1996324271 74159425 524424961 273424080 1746983497 -382951453 1397067467 1749582730 -1615168557 1439003940 -773744619
REM
CELL 1.54180   50.00000   50.00000   50.00000   90.00000   90.00000   90.00000
LATT -1
SFAC C  
C      1  0.5305280000000  0.5263720000000  0.5246980000000 1.0
C      1  0.4871440000000  0.5321960000000  0.5217370000000 1.0
C      1  0.4641540000000  0.4970710000000  0.5217830000000 1.0
C      1  0.4913860000000  0.4651210000000  0.5217590000000 1.0
C      1  0.5296760000000  0.4823080000000  0.5217020000000 1.0
C      1  0.4813970000000  0.4263210000000  0.5343000000000 1.0
C      1  0.5633660000000  0.4604710000000  0.5340860000000 1.0
C      1  0.5568140000000  0.5480060000000  0.5347070000000 1.0
C      1  0.4725420000000  0.5695380000000  0.5341930000000 1.0
C      1  0.4241610000000  0.4950720000000  0.5343520000000 1.0
C      1  0.4945850000000  0.5734440000000  0.5099540000000 1.0
C      1  0.4282400000000  0.5168650000000  0.5098160000000 1.0
C      1  0.4617170000000  0.4365700000000  0.5097750000000 1.0
C      1  0.5481180000000  0.4445530000000  0.5098300000000 1.0
C      1  0.5688780000000  0.5293640000000  0.5080320000000 1.0
C      1  0.4995900000000  0.5423930000000  0.4552840000000 1.0
C      1  0.4592870000000  0.5126360000000  0.4553110000000 1.0
C      1  0.4752170000000  0.4651310000000  0.4552780000000 1.0
C      1  0.5252350000000  0.4657360000000  0.4552180000000 1.0
C      1  0.5402690000000  0.5133900000000  0.4549250000000 1.0
C      1  0.4314070000000  0.4751570000000  0.5072740000000 1.0
C      1  0.5025100000000  0.4273400000000  0.5072040000000 1.0
C      1  0.5691470000000  0.4807190000000  0.5073950000000 1.0
C      1  0.5419450000000  0.5613530000000  0.5046440000000 1.0
C      1  0.4561860000000  0.5568310000000  0.5075670000000 1.0
C      1  0.4898430000000  0.5245010000000  0.5519150000000 1.0
C      1  0.4727240000000  0.4977370000000  0.5519140000000 1.0
C      1  0.4932930000000  0.4734630000000  0.5518780000000 1.0
C      1  0.5224730000000  0.4859650000000  0.5518410000000 1.0
C      1  0.5199660000000  0.5168880000000  0.5538710000000 1.0
C      1  0.5438410000000  0.5366910000000  0.5630780000000 1.0
C      1  0.4787150000000  0.5525850000000  0.5574660000000 1.0
C      1  0.4423960000000  0.4957610000000  0.5576620000000 1.0
C      1  0.4861420000000  0.4439150000000  0.5576230000000 1.0
C      1  0.5481560000000  0.4701100000000  0.5573910000000 1.0
C      1  0.5112330000000  0.5461160000000  0.5059390000000 1.0
C      1  0.4594480000000  0.5247380000000  0.5059300000000 1.0
C      1  0.4633490000000  0.4686650000000  0.5058700000000 1.0
C      1  0.5182500000000  0.4560180000000  0.5058830000000 1.0
C      1  0.5468130000000  0.5041490000000  0.5058160000000 1.0
C      1  0.5120330000000  0.4755670000000  0.4808350000000 1.0
C      1  0.5269450000000  0.5041170000000  0.4807850000000 1.0
C      1  0.5046320000000  0.5267850000000  0.4809670000000 1.0
C      1  0.4758110000000  0.5125250000000  0.4809040000000 1.0
C      1  0.4803490000000  0.4807710000000  0.4808950000000 1.0
C      1  0.4752010000000  0.5075170000000  0.4306250000000 1.0
C      1  0.4848970000000  0.4787680000000  0.4305900000000 1.0
C      1  0.5152080000000  0.4791000000000  0.4305070000000 1.0
C      1  0.5241960000000  0.5080000000000  0.4304340000000 1.0
C      1  0.4995220000000  0.5255940000000  0.4305880000000 1.0
C      1  0.4737200000000  0.5747180000000  0.4854020000000 1.0
C      1  0.4203900000000  0.4978410000000  0.4852540000000 1.0
C      1  0.4776200000000  0.4235370000000  0.4851690000000 1.0
C      1  0.5655200000000  0.4556440000000  0.4852590000000 1.0
C      1  0.5635520000000  0.5487260000000  0.4836900000000 1.0
C      1  0.5532450000000  0.4582770000000  0.4588280000000 1.0
C      1  0.5565870000000  0.5373980000000  0.4577430000000 1.0
C      1  0.4816960000000  0.5651610000000  0.4589370000000 1.0
C      1  0.4321240000000  0.5025290000000  0.4588830000000 1.0
C      1  0.4766140000000  0.4361650000000  0.4588060000000 1.0
END
