TITL C-3985247-764-680 0.00015177403596167 125000 -340.648555148851 0 0 60 (C3) n - 1
REM
REM in /home/nfs/bkarasulu/CARBON/AIRSS/Generating-Clusters/TERSOFF/Higher-Symm/Only-C60
REM
REM
REM
REM
REM
REM ./C.cell (28575a23ae977d3b5fae324c64b13b57)
REM
REM compiler GCC version 9.2.1 20190827 (Red Hat 9.2.1-1)
REM options -cpp -mtune=generic -march=x86-64 -g -O0 -fpre-include=/usr/include/finclude/math-vector-fortran.h
REM seed -1795967528 -1738032530 -607397778 -1794334424 -729118175 -1267477561 -1802082482 -1627272123 1152329673 -673547992 -386086731 1931100421 -954227377 1331685983 1329185628 -582137687 1415749091 -1718216650 24807149 1885296432 -1607151346 1471567214 -507795881 -1331980139 300085585 -2039011713 1970963671 -788116852 -408756554 1308475335 1725909326 1535926626 -1938373076
REM
CELL 1.54180   50.00000   50.00000   50.00000   90.00000   90.00000   90.00000
LATT -1
SFAC C  
C      1  0.4805280000000  0.4889010000000  0.5444190000000 1.0
C      1  0.4804950000000  0.4670770000000  0.4681760000000 1.0
C      1  0.4805080000000  0.5440110000000  0.4874180000000 1.0
C      1  0.5044930000000  0.5123560000000  0.4737870000000 1.0
C      1  0.5045210000000  0.5165290000000  0.5238250000000 1.0
C      1  0.5044980000000  0.4710890000000  0.5023960000000 1.0
C      1  0.4474480000000  0.4632080000000  0.5000290000000 1.0
C      1  0.4474420000000  0.5183730000000  0.4681450000000 1.0
C      1  0.4474740000000  0.5184190000000  0.5318490000000 1.0
C      1  0.4815030000000  0.5382130000000  0.4344840000000 1.0
C      1  0.4815400000000  0.5376630000000  0.5658530000000 1.0
C      1  0.4815070000000  0.4241280000000  0.4996760000000 1.0
C      1  0.4988600000000  0.5572620000000  0.5511010000000 1.0
C      1  0.4988350000000  0.4270990000000  0.5240200000000 1.0
C      1  0.4988290000000  0.5156500000000  0.4248790000000 1.0
C      1  0.5252790000000  0.4528350000000  0.5779610000000 1.0
C      1  0.5252630000000  0.4560630000000  0.4201790000000 1.0
C      1  0.5252940000000  0.5910990000000  0.5018280000000 1.0
C      1  0.4680780000000  0.5149500000000  0.5536110000000 1.0
C      1  0.4680420000000  0.4460890000000  0.4861340000000 1.0
C      1  0.4680450000000  0.5389530000000  0.4602740000000 1.0
C      1  0.5640840000000  0.5264410000000  0.4862770000000 1.0
C      1  0.5640670000000  0.4986510000000  0.5297550000000 1.0
C      1  0.5640690000000  0.4748940000000  0.4839500000000 1.0
C      1  0.4768500000000  0.5169210000000  0.5109460000000 1.0
C      1  0.4768310000000  0.4820500000000  0.5091960000000 1.0
C      1  0.4768160000000  0.5010000000000  0.4798740000000 1.0
C      1  0.5615690000000  0.5017260000000  0.4702950000000 1.0
C      1  0.5615800000000  0.5248540000000  0.5163420000000 1.0
C      1  0.5615650000000  0.4734080000000  0.5133460000000 1.0
C      1  0.5135150000000  0.4020390000000  0.5301560000000 1.0
C      1  0.5135130000000  0.5228780000000  0.4001150000000 1.0
C      1  0.5135480000000  0.5751060000000  0.5697310000000 1.0
C      1  0.4299670000000  0.4939710000000  0.5327690000000 1.0
C      1  0.4299430000000  0.4746440000000  0.4784020000000 1.0
C      1  0.4299460000000  0.5313960000000  0.4888680000000 1.0
C      1  0.5532930000000  0.4545330000000  0.4646490000000 1.0
C      1  0.5533250000000  0.5533390000000  0.4782880000000 1.0
C      1  0.5532900000000  0.4921200000000  0.5570390000000 1.0
C      1  0.4661850000000  0.4780940000000  0.4435410000000 1.0
C      1  0.4662080000000  0.5598630000000  0.5092590000000 1.0
C      1  0.4662110000000  0.4620610000000  0.5472030000000 1.0
C      1  0.5427160000000  0.5473300000000  0.5254920000000 1.0
C      1  0.5426970000000  0.4542420000000  0.5282260000000 1.0
C      1  0.5426900000000  0.4984270000000  0.4462670000000 1.0
C      1  0.5419360000000  0.4686800000000  0.4407330000000 1.0
C      1  0.5419670000000  0.5669890000000  0.5024890000000 1.0
C      1  0.5419420000000  0.4643310000000  0.5567510000000 1.0
C      1  0.5169940000000  0.5389680000000  0.5359440000000 1.0
C      1  0.5169740000000  0.4493690000000  0.5157540000000 1.0
C      1  0.5169670000000  0.5116590000000  0.4482960000000 1.0
C      1  0.4411030000000  0.4910290000000  0.4557040000000 1.0
C      1  0.4411240000000  0.5428670000000  0.5143980000000 1.0
C      1  0.4411250000000  0.4661210000000  0.5299310000000 1.0
C      1  0.5010150000000  0.4370470000000  0.5734580000000 1.0
C      1  0.5010030000000  0.4678670000000  0.4087570000000 1.0
C      1  0.5010360000000  0.5950990000000  0.5177610000000 1.0
C      1  0.4846150000000  0.4382310000000  0.5491170000000 1.0
C      1  0.4846040000000  0.4883550000000  0.4219570000000 1.0
C      1  0.4846360000000  0.5734320000000  0.5289200000000 1.0
END
