TITL C-3985253-1688-715 -3.04152039133306e-06 125000 -328.12325840314 0 0 60 (Ci) n - 1
REM
REM in /home/nfs/bkarasulu/CARBON/AIRSS/Generating-Clusters/TERSOFF/Higher-Symm/Only-C60
REM
REM
REM
REM
REM
REM ./C.cell (28575a23ae977d3b5fae324c64b13b57)
REM
REM compiler GCC version 9.2.1 20190827 (Red Hat 9.2.1-1)
REM options -cpp -mtune=generic -march=x86-64 -g -O0 -fpre-include=/usr/include/finclude/math-vector-fortran.h
REM seed 356846518 730382482 1864547749 621496490 1630255245 1346839888 -481054731 1398496347 -437890894 -1471789914 -1412433465 -2037141119 -980081065 114447525 -2062437611 -514721325 -1784647041 1939482145 1498138481 1121656258 -650217208 1157193468 -589544205 1004822754 -1102955434 -1592590934 1985105333 -396856214 -2109870651 1363503978 1969012597 673214131 -331688325
REM
CELL 1.54180   50.00000   50.00000   50.00000   90.00000   90.00000   90.00000
LATT -1
SFAC C  
C      1  0.4688960000000  0.5080440000000  0.5535330000000 1.0
C      1  0.5311040000000  0.4919550000000  0.4464670000000 1.0
C      1  0.5201230000000  0.5368510000000  0.4718700000000 1.0
C      1  0.4798770000000  0.4631490000000  0.5281300000000 1.0
C      1  0.5546400000000  0.4610200000000  0.5348420000000 1.0
C      1  0.4453600000000  0.5389800000000  0.4651580000000 1.0
C      1  0.4840530000000  0.4411450000000  0.4655540000000 1.0
C      1  0.5159470000000  0.5588550000000  0.5344460000000 1.0
C      1  0.4596150000000  0.4883840000000  0.5318110000000 1.0
C      1  0.5403850000000  0.5116160000000  0.4681890000000 1.0
C      1  0.5623550000000  0.5502740000000  0.4836550000000 1.0
C      1  0.4376450000000  0.4497260000000  0.5163450000000 1.0
C      1  0.4942660000000  0.4891250000000  0.4895510000000 1.0
C      1  0.5057340000000  0.5108750000000  0.5104490000000 1.0
C      1  0.4936330000000  0.5506600000000  0.5556640000000 1.0
C      1  0.5063670000000  0.4493390000000  0.4443360000000 1.0
C      1  0.4557990000000  0.4609000000000  0.4715780000000 1.0
C      1  0.5442010000000  0.5391000000000  0.5284220000000 1.0
C      1  0.5331130000000  0.4934900000000  0.5667040000000 1.0
C      1  0.4668870000000  0.5065100000000  0.4332960000000 1.0
C      1  0.5690070000000  0.5224040000000  0.4739570000000 1.0
C      1  0.4309930000000  0.4775960000000  0.5260430000000 1.0
C      1  0.5393460000000  0.5348360000000  0.5597010000000 1.0
C      1  0.4606540000000  0.4651640000000  0.4402990000000 1.0
C      1  0.4625090000000  0.5381490000000  0.5482330000000 1.0
C      1  0.5374910000000  0.4618510000000  0.4517670000000 1.0
C      1  0.4664440000000  0.4985600000000  0.5023860000000 1.0
C      1  0.5335560000000  0.5014400000000  0.4976140000000 1.0
C      1  0.4316820000000  0.5372400000000  0.5371960000000 1.0
C      1  0.5683180000000  0.4627600000000  0.4628040000000 1.0
C      1  0.5225990000000  0.4704980000000  0.4987780000000 1.0
C      1  0.4774010000000  0.5295020000000  0.5012220000000 1.0
C      1  0.5047570000000  0.4495520000000  0.5400420000000 1.0
C      1  0.4952430000000  0.5504490000000  0.4599580000000 1.0
C      1  0.5297250000000  0.4512360000000  0.4791760000000 1.0
C      1  0.4702750000000  0.5487640000000  0.5208240000000 1.0
C      1  0.4985460000000  0.5091210000000  0.4666030000000 1.0
C      1  0.5014540000000  0.4908790000000  0.5333970000000 1.0
C      1  0.5184920000000  0.4248650000000  0.4834920000000 1.0
C      1  0.4815080000000  0.5751350000000  0.5165080000000 1.0
C      1  0.5540980000000  0.5092480000000  0.5209450000000 1.0
C      1  0.4459020000000  0.4907520000000  0.4790550000000 1.0
C      1  0.5339880000000  0.5539720000000  0.4968790000000 1.0
C      1  0.4660120000000  0.4460280000000  0.5031210000000 1.0
C      1  0.4231840000000  0.5265180000000  0.5098920000000 1.0
C      1  0.5768160000000  0.4734820000000  0.4901080000000 1.0
C      1  0.5020690000000  0.5018670000000  0.5632210000000 1.0
C      1  0.4979310000000  0.4981320000000  0.4367790000000 1.0
C      1  0.5754770000000  0.5030730000000  0.4965210000000 1.0
C      1  0.4245230000000  0.4969270000000  0.5034790000000 1.0
C      1  0.4477800000000  0.5109360000000  0.4558380000000 1.0
C      1  0.5522200000000  0.4890640000000  0.5441620000000 1.0
C      1  0.5750000000000  0.4563750000000  0.5140180000000 1.0
C      1  0.4249990000000  0.5436250000000  0.4859820000000 1.0
C      1  0.4888840000000  0.4219460000000  0.4892250000000 1.0
C      1  0.5111160000000  0.5780540000000  0.5107750000000 1.0
C      1  0.4724440000000  0.5427330000000  0.4755170000000 1.0
C      1  0.5275560000000  0.4572670000000  0.5244830000000 1.0
C      1  0.4883810000000  0.4695390000000  0.4316240000000 1.0
C      1  0.5116190000000  0.5304610000000  0.5683760000000 1.0
END
