TITL C-3985250-725-723 -3.13335009064972e-08 125000 -359.349245933873 0 0 60 (C4) n - 1
REM
REM in /home/nfs/bkarasulu/CARBON/AIRSS/Generating-Clusters/TERSOFF/Higher-Symm/Only-C60
REM
REM
REM
REM
REM
REM ./C.cell (28575a23ae977d3b5fae324c64b13b57)
REM
REM compiler GCC version 9.2.1 20190827 (Red Hat 9.2.1-1)
REM options -cpp -mtune=generic -march=x86-64 -g -O0 -fpre-include=/usr/include/finclude/math-vector-fortran.h
REM seed 1151322800 1369813132 1792401157 -1148533938 569473146 -1902319952 104401274 -1545711627 947982793 1026222534 1488952301 345874911 1048682092 1721626434 1371733529 1277288439 755056481 -1141592092 364538858 -232442507 700663793 884021927 1065206291 -1610220941 1807310474 -1553651410 -1525535726 -1145192204 -931947100 1340843599 432571660 1729644728 -75964469
REM
CELL 1.54180   50.00000   50.00000   50.00000   90.00000   90.00000   90.00000
LATT -1
SFAC C  
C      1  0.4685980000000  0.4754400000000  0.5587190000000 1.0
C      1  0.5587190000000  0.4754400000000  0.5314020000000 1.0
C      1  0.5314020000000  0.4754400000000  0.4412810000000 1.0
C      1  0.4412810000000  0.4754400000000  0.4685980000000 1.0
C      1  0.5069460000000  0.5196750000000  0.4311140000000 1.0
C      1  0.4311140000000  0.5196750000000  0.4930540000000 1.0
C      1  0.4930540000000  0.5196750000000  0.5688860000000 1.0
C      1  0.5688860000000  0.5196750000000  0.5069460000000 1.0
C      1  0.5022640000000  0.4826660000000  0.4774820000000 1.0
C      1  0.4774820000000  0.4826660000000  0.4977360000000 1.0
C      1  0.4977360000000  0.4826660000000  0.5225180000000 1.0
C      1  0.5225180000000  0.4826660000000  0.5022640000000 1.0
C      1  0.4517750000000  0.4662900000000  0.4951260000000 1.0
C      1  0.4951260000000  0.4662900000000  0.5482250000000 1.0
C      1  0.5482250000000  0.4662900000000  0.5048740000000 1.0
C      1  0.5048740000000  0.4662900000000  0.4517750000000 1.0
C      1  0.5369900000000  0.5573290000000  0.4927350000000 1.0
C      1  0.4927350000000  0.5573290000000  0.4630100000000 1.0
C      1  0.4630100000000  0.5573290000000  0.5072650000000 1.0
C      1  0.5072650000000  0.5573290000000  0.5369900000000 1.0
C      1  0.5201390000000  0.5325040000000  0.4856600000000 1.0
C      1  0.4856600000000  0.5325040000000  0.4798610000000 1.0
C      1  0.4798610000000  0.5325040000000  0.5143400000000 1.0
C      1  0.5143400000000  0.5325040000000  0.5201390000000 1.0
C      1  0.5407590000000  0.4593460000000  0.5499860000000 1.0
C      1  0.5499860000000  0.4593460000000  0.4592410000000 1.0
C      1  0.4592410000000  0.4593460000000  0.4500140000000 1.0
C      1  0.4500140000000  0.4593460000000  0.5407590000000 1.0
C      1  0.5269020000000  0.4365400000000  0.5329790000000 1.0
C      1  0.5329790000000  0.4365400000000  0.4730980000000 1.0
C      1  0.4730980000000  0.4365400000000  0.4670210000000 1.0
C      1  0.4670210000000  0.4365400000000  0.5269020000000 1.0
C      1  0.5314030000000  0.5157530000000  0.5390980000000 1.0
C      1  0.5390980000000  0.5157530000000  0.4685970000000 1.0
C      1  0.4685970000000  0.5157530000000  0.4609020000000 1.0
C      1  0.4609020000000  0.5157530000000  0.5314030000000 1.0
C      1  0.4693830000000  0.5054430000000  0.5572920000000 1.0
C      1  0.5572920000000  0.5054430000000  0.5306170000000 1.0
C      1  0.5306170000000  0.5054430000000  0.4427080000000 1.0
C      1  0.4427080000000  0.5054430000000  0.4693830000000 1.0
C      1  0.4368870000000  0.5050100000000  0.5187380000000 1.0
C      1  0.5187380000000  0.5050100000000  0.5631130000000 1.0
C      1  0.5631130000000  0.5050100000000  0.4812620000000 1.0
C      1  0.4812620000000  0.5050100000000  0.4368870000000 1.0
C      1  0.4960600000000  0.4367980000000  0.5386290000000 1.0
C      1  0.5386290000000  0.4367980000000  0.5039400000000 1.0
C      1  0.5039400000000  0.4367980000000  0.4613710000000 1.0
C      1  0.4613710000000  0.4367980000000  0.4960600000000 1.0
C      1  0.4966290000000  0.5829850000000  0.4775390000000 1.0
C      1  0.4775390000000  0.5829850000000  0.5033710000000 1.0
C      1  0.5033710000000  0.5829850000000  0.5224610000000 1.0
C      1  0.5224610000000  0.5829850000000  0.4966290000000 1.0
C      1  0.5640350000000  0.4751380000000  0.4810750000000 1.0
C      1  0.4810750000000  0.4751380000000  0.4359650000000 1.0
C      1  0.4359650000000  0.4751380000000  0.5189250000000 1.0
C      1  0.5189250000000  0.4751380000000  0.5640350000000 1.0
C      1  0.4950000000000  0.5490840000000  0.5626610000000 1.0
C      1  0.5626610000000  0.5490840000000  0.5050000000000 1.0
C      1  0.5050000000000  0.5490840000000  0.4373390000000 1.0
C      1  0.4373390000000  0.5490840000000  0.4950000000000 1.0
END
