TITL C-3985254-1270-911 0.00747992393145564 125000 -313.782960091606 0 0 60 (C1) n - 1
REM
REM in /home/nfs/bkarasulu/CARBON/AIRSS/Generating-Clusters/TERSOFF/Higher-Symm/Only-C60
REM
REM
REM
REM
REM
REM ./C.cell (28575a23ae977d3b5fae324c64b13b57)
REM
REM compiler GCC version 9.2.1 20190827 (Red Hat 9.2.1-1)
REM options -cpp -mtune=generic -march=x86-64 -g -O0 -fpre-include=/usr/include/finclude/math-vector-fortran.h
REM seed -361860461 1728697204 -253985308 688392575 -909661050 -1178317577 479788344 730662554 -1022515576 1223462783 479816142 -901126297 1327669700 783322953 -1297184099 1427006413 8412894 289553012 -573307291 2116137393 823069193 1636535041 -949423123 -807146715 1736265626 -368346724 -265952695 939708240 -192196813 179471245 1998182935 -563284277 -1380576126
REM
CELL 1.54180   50.00000   50.00000   50.00000   90.00000   90.00000   90.00000
LATT -1
SFAC C  
C      1  0.4571410000000  0.4378420000000  0.4933220000000 1.0
C      1  0.4672160000000  0.5669490000000  0.4939810000000 1.0
C      1  0.5744660000000  0.4947520000000  0.4940860000000 1.0
C      1  0.4454120000000  0.5648620000000  0.5145190000000 1.0
C      1  0.5875220000000  0.5138390000000  0.5131500000000 1.0
C      1  0.4705450000000  0.4192090000000  0.5127060000000 1.0
C      1  0.4400580000000  0.4715800000000  0.4596380000000 1.0
C      1  0.5053800000000  0.5660360000000  0.4600700000000 1.0
C      1  0.5542250000000  0.4621100000000  0.4614500000000 1.0
C      1  0.4796930000000  0.4287260000000  0.5385980000000 1.0
C      1  0.4502870000000  0.5501970000000  0.5391050000000 1.0
C      1  0.5774430000000  0.5162700000000  0.5403120000000 1.0
C      1  0.5389950000000  0.5527430000000  0.5058820000000 1.0
C      1  0.5233380000000  0.4433690000000  0.5089460000000 1.0
C      1  0.4348150000000  0.5069890000000  0.5065460000000 1.0
C      1  0.4782760000000  0.5076080000000  0.5361270000000 1.0
C      1  0.5276410000000  0.5169750000000  0.5411610000000 1.0
C      1  0.4955110000000  0.4770380000000  0.5418680000000 1.0
C      1  0.5161530000000  0.5682280000000  0.4905040000000 1.0
C      1  0.5495810000000  0.4524630000000  0.4926610000000 1.0
C      1  0.4326520000000  0.4795730000000  0.4903770000000 1.0
C      1  0.5524030000000  0.5027660000000  0.5497970000000 1.0
C      1  0.4736630000000  0.4561030000000  0.5495130000000 1.0
C      1  0.4773930000000  0.5382910000000  0.5467910000000 1.0
C      1  0.5440360000000  0.5027120000000  0.4979770000000 1.0
C      1  0.4775710000000  0.4612300000000  0.4981780000000 1.0
C      1  0.4762130000000  0.5366900000000  0.4982370000000 1.0
C      1  0.5667070000000  0.4698960000000  0.5109540000000 1.0
C      1  0.4374030000000  0.4559060000000  0.5092320000000 1.0
C      1  0.4930080000000  0.5734270000000  0.5096610000000 1.0
C      1  0.5293140000000  0.5004560000000  0.4518580000000 1.0
C      1  0.4856710000000  0.4747110000000  0.4522430000000 1.0
C      1  0.4850490000000  0.5251790000000  0.4526130000000 1.0
C      1  0.5017190000000  0.4358820000000  0.4617430000000 1.0
C      1  0.4431760000000  0.5308270000000  0.4604510000000 1.0
C      1  0.5553370000000  0.5335690000000  0.4598820000000 1.0
C      1  0.4501120000000  0.4973500000000  0.5310180000000 1.0
C      1  0.5259190000000  0.5444830000000  0.5319010000000 1.0
C      1  0.5221280000000  0.4645270000000  0.5314730000000 1.0
C      1  0.5512790000000  0.4984870000000  0.5792170000000 1.0
C      1  0.4719850000000  0.4569220000000  0.5793000000000 1.0
C      1  0.4802240000000  0.5383470000000  0.5764840000000 1.0
C      1  0.4667600000000  0.4879700000000  0.4875490000000 1.0
C      1  0.5057220000000  0.5347150000000  0.4878920000000 1.0
C      1  0.5264560000000  0.4792710000000  0.4877930000000 1.0
C      1  0.5010110000000  0.4455160000000  0.4906960000000 1.0
C      1  0.4492060000000  0.5264040000000  0.4899990000000 1.0
C      1  0.5476200000000  0.5305650000000  0.4891300000000 1.0
C      1  0.5143090000000  0.5250950000000  0.4573450000000 1.0
C      1  0.5145280000000  0.4755990000000  0.4573610000000 1.0
C      1  0.4712530000000  0.4997560000000  0.4575100000000 1.0
C      1  0.5290720000000  0.5493100000000  0.4450990000000 1.0
C      1  0.5279520000000  0.4500000000000  0.4464950000000 1.0
C      1  0.4429630000000  0.5007600000000  0.4452710000000 1.0
C      1  0.4712610000000  0.5539790000000  0.4603410000000 1.0
C      1  0.5614930000000  0.4975670000000  0.4601780000000 1.0
C      1  0.4673060000000  0.4477630000000  0.4597990000000 1.0
C      1  0.5491150000000  0.4767830000000  0.5348470000000 1.0
C      1  0.4483890000000  0.4678730000000  0.5352830000000 1.0
C      1  0.4989240000000  0.5559550000000  0.5338850000000 1.0
END
