TITL C-3985259-1859-317 1.60860710119696e-07 125000 -327.047305762119 0 0 60 (Td) n - 1
REM
REM in /home/nfs/bkarasulu/CARBON/AIRSS/Generating-Clusters/TERSOFF/Higher-Symm/Only-C60
REM
REM
REM
REM
REM
REM ./C.cell (28575a23ae977d3b5fae324c64b13b57)
REM
REM compiler GCC version 9.2.1 20190827 (Red Hat 9.2.1-1)
REM options -cpp -mtune=generic -march=x86-64 -g -O0 -fpre-include=/usr/include/finclude/math-vector-fortran.h
REM seed 2049058426 344310871 -654830320 -7187268 -802291463 176780146 1236237706 -1724360486 36059367 205059477 -1484345147 -1254927842 1428408339 -1457563231 1421554474 -1630543114 -1523704899 445820623 844506874 -1601911445 -1420008648 -1603895206 -583157674 1980703996 2015586871 -128828572 1570583770 403812704 1951201512 -1474334657 1561211557 -696224996 -1426198913
REM
CELL 1.54180   50.00000   50.00000   50.00000   90.00000   90.00000   90.00000
LATT -1
SFAC C  
C      1  0.4865170000000  0.4287830000000  0.5356050000000 1.0
C      1  0.5356050000000  0.4865170000000  0.4287830000000 1.0
C      1  0.4287830000000  0.5356050000000  0.4865170000000 1.0
C      1  0.5134830000000  0.4287830000000  0.4643950000000 1.0
C      1  0.4865170000000  0.5712170000000  0.4643950000000 1.0
C      1  0.5134830000000  0.5712170000000  0.5356050000000 1.0
C      1  0.4643950000000  0.4865170000000  0.5712170000000 1.0
C      1  0.5356050000000  0.5134830000000  0.5712170000000 1.0
C      1  0.4643950000000  0.5134830000000  0.4287830000000 1.0
C      1  0.5712170000000  0.5356050000000  0.5134830000000 1.0
C      1  0.4287830000000  0.4643950000000  0.5134830000000 1.0
C      1  0.5712170000000  0.4643950000000  0.4865170000000 1.0
C      1  0.5356050000000  0.4287830000000  0.4865170000000 1.0
C      1  0.4287830000000  0.4865170000000  0.5356050000000 1.0
C      1  0.4865170000000  0.5356050000000  0.4287830000000 1.0
C      1  0.4643950000000  0.4287830000000  0.5134830000000 1.0
C      1  0.4643950000000  0.5712170000000  0.4865170000000 1.0
C      1  0.5356050000000  0.5712170000000  0.5134830000000 1.0
C      1  0.5712170000000  0.4865170000000  0.4643950000000 1.0
C      1  0.5712170000000  0.5134830000000  0.5356050000000 1.0
C      1  0.4287830000000  0.5134830000000  0.4643950000000 1.0
C      1  0.5134830000000  0.5356050000000  0.5712170000000 1.0
C      1  0.5134830000000  0.4643950000000  0.4287830000000 1.0
C      1  0.4865170000000  0.4643950000000  0.5712170000000 1.0
C      1  0.5233810000000  0.4991890000000  0.5447810000000 1.0
C      1  0.5447810000000  0.5233810000000  0.4991890000000 1.0
C      1  0.4991890000000  0.5447810000000  0.5233810000000 1.0
C      1  0.4766190000000  0.4991890000000  0.4552190000000 1.0
C      1  0.5233810000000  0.5008110000000  0.4552190000000 1.0
C      1  0.4766190000000  0.5008110000000  0.5447810000000 1.0
C      1  0.4552190000000  0.5233810000000  0.5008110000000 1.0
C      1  0.5447810000000  0.4766190000000  0.5008110000000 1.0
C      1  0.4552190000000  0.4766190000000  0.4991890000000 1.0
C      1  0.5008110000000  0.5447810000000  0.4766190000000 1.0
C      1  0.4991890000000  0.4552190000000  0.4766190000000 1.0
C      1  0.5008110000000  0.4552190000000  0.5233810000000 1.0
C      1  0.5447810000000  0.4991890000000  0.5233810000000 1.0
C      1  0.4991890000000  0.5233810000000  0.5447810000000 1.0
C      1  0.5233810000000  0.5447810000000  0.4991890000000 1.0
C      1  0.4552190000000  0.4991890000000  0.4766190000000 1.0
C      1  0.4552190000000  0.5008110000000  0.5233810000000 1.0
C      1  0.5447810000000  0.5008110000000  0.4766190000000 1.0
C      1  0.5008110000000  0.5233810000000  0.4552190000000 1.0
C      1  0.5008110000000  0.4766190000000  0.5447810000000 1.0
C      1  0.4991890000000  0.4766190000000  0.4552190000000 1.0
C      1  0.4766190000000  0.5447810000000  0.5008110000000 1.0
C      1  0.4766190000000  0.4552190000000  0.4991890000000 1.0
C      1  0.5233810000000  0.4552190000000  0.5008110000000 1.0
C      1  0.4361760000000  0.4807600000000  0.5638240000000 1.0
C      1  0.5638240000000  0.4807600000000  0.4361760000000 1.0
C      1  0.4807600000000  0.4361760000000  0.5638240000000 1.0
C      1  0.4807600000000  0.5638240000000  0.4361760000000 1.0
C      1  0.5638240000000  0.4361760000000  0.4807600000000 1.0
C      1  0.4361760000000  0.5638240000000  0.4807600000000 1.0
C      1  0.4361760000000  0.5192400000000  0.4361760000000 1.0
C      1  0.4361760000000  0.4361760000000  0.5192400000000 1.0
C      1  0.5192400000000  0.4361760000000  0.4361760000000 1.0
C      1  0.5638240000000  0.5192400000000  0.5638240000000 1.0
C      1  0.5638240000000  0.5638240000000  0.5192400000000 1.0
C      1  0.5192400000000  0.5638240000000  0.5638240000000 1.0
END
