TITL C-3985259-1859-851 -3.97067785934468e-06 125000 -310.994257436225 0 0 60 (S4) n - 1
REM
REM in /home/nfs/bkarasulu/CARBON/AIRSS/Generating-Clusters/TERSOFF/Higher-Symm/Only-C60
REM
REM
REM
REM
REM
REM ./C.cell (28575a23ae977d3b5fae324c64b13b57)
REM
REM compiler GCC version 9.2.1 20190827 (Red Hat 9.2.1-1)
REM options -cpp -mtune=generic -march=x86-64 -g -O0 -fpre-include=/usr/include/finclude/math-vector-fortran.h
REM seed -529624855 -828948479 854923795 306102546 521732838 956670377 1969611523 -570351491 1605837859 -1017362978 799204218 -456571451 959013603 -1210137821 1302931801 1467952280 -5182424 2138816516 2092576722 -1256149419 -1553919679 1928378317 -570374032 -1247896562 -502235202 -1047843525 1453333629 -1594401374 -547135320 1757633633 96246314 684609975 -529752059
REM
CELL 1.54180   50.00000   50.00000   50.00000   90.00000   90.00000   90.00000
LATT -1
SFAC C  
C      1  0.4820640000000  0.4686280000000  0.4563280000000 1.0
C      1  0.5436720000000  0.5313720000000  0.4820640000000 1.0
C      1  0.5179360000000  0.4686280000000  0.5436720000000 1.0
C      1  0.4563280000000  0.5313720000000  0.5179360000000 1.0
C      1  0.4453450000000  0.4970930000000  0.4804500000000 1.0
C      1  0.5195500000000  0.5029070000000  0.4453450000000 1.0
C      1  0.5546550000000  0.4970930000000  0.5195500000000 1.0
C      1  0.4804500000000  0.5029070000000  0.5546550000000 1.0
C      1  0.5165800000000  0.5281830000000  0.5050110000000 1.0
C      1  0.4949890000000  0.4718170000000  0.5165800000000 1.0
C      1  0.4834200000000  0.5281830000000  0.4949890000000 1.0
C      1  0.5050110000000  0.4718170000000  0.4834200000000 1.0
C      1  0.4537900000000  0.4877870000000  0.5356080000000 1.0
C      1  0.4643920000000  0.5122130000000  0.4537900000000 1.0
C      1  0.5462100000000  0.4877870000000  0.4643920000000 1.0
C      1  0.5356080000000  0.5122130000000  0.5462100000000 1.0
C      1  0.4457110000000  0.5573450000000  0.5051690000000 1.0
C      1  0.4948310000000  0.4426550000000  0.4457110000000 1.0
C      1  0.5542890000000  0.5573450000000  0.4948310000000 1.0
C      1  0.5051690000000  0.4426550000000  0.5542890000000 1.0
C      1  0.5282370000000  0.5411870000000  0.5431040000000 1.0
C      1  0.4568960000000  0.4588130000000  0.5282370000000 1.0
C      1  0.4717630000000  0.5411870000000  0.4568960000000 1.0
C      1  0.5431040000000  0.4588130000000  0.4717630000000 1.0
C      1  0.5494000000000  0.4488150000000  0.5046260000000 1.0
C      1  0.4953740000000  0.5511850000000  0.5494000000000 1.0
C      1  0.4506000000000  0.4488150000000  0.4953740000000 1.0
C      1  0.5046260000000  0.5511850000000  0.4506000000000 1.0
C      1  0.5418190000000  0.4206770000000  0.5119460000000 1.0
C      1  0.4880540000000  0.5793230000000  0.5418190000000 1.0
C      1  0.4581810000000  0.4206770000000  0.4880540000000 1.0
C      1  0.5119460000000  0.5793230000000  0.4581810000000 1.0
C      1  0.4668570000000  0.5781680000000  0.5181960000000 1.0
C      1  0.4818040000000  0.4218320000000  0.4668570000000 1.0
C      1  0.5331430000000  0.5781680000000  0.4818040000000 1.0
C      1  0.5181960000000  0.4218320000000  0.5331430000000 1.0
C      1  0.5145400000000  0.4929890000000  0.5633040000000 1.0
C      1  0.4366960000000  0.5070110000000  0.5145400000000 1.0
C      1  0.4854600000000  0.4929890000000  0.4366960000000 1.0
C      1  0.5633040000000  0.5070110000000  0.4854600000000 1.0
C      1  0.5268200000000  0.4415810000000  0.4507120000000 1.0
C      1  0.5492880000000  0.5584190000000  0.5268200000000 1.0
C      1  0.4731800000000  0.4415810000000  0.5492880000000 1.0
C      1  0.4507120000000  0.5584190000000  0.4731800000000 1.0
C      1  0.4715100000000  0.4178600000000  0.5145380000000 1.0
C      1  0.4854620000000  0.5821400000000  0.4715100000000 1.0
C      1  0.5284900000000  0.4178600000000  0.4854620000000 1.0
C      1  0.5145380000000  0.5821400000000  0.5284900000000 1.0
C      1  0.5142500000000  0.5646060000000  0.5045220000000 1.0
C      1  0.4954780000000  0.4353940000000  0.5142500000000 1.0
C      1  0.4857500000000  0.5646060000000  0.4954780000000 1.0
C      1  0.5045220000000  0.4353940000000  0.4857500000000 1.0
C      1  0.5275310000000  0.4934940000000  0.5015210000000 1.0
C      1  0.4984790000000  0.5065060000000  0.5275310000000 1.0
C      1  0.4724690000000  0.4934940000000  0.4984790000000 1.0
C      1  0.5015210000000  0.5065060000000  0.4724690000000 1.0
C      1  0.5280550000000  0.5324380000000  0.4531270000000 1.0
C      1  0.5468730000000  0.4675620000000  0.5280550000000 1.0
C      1  0.4719450000000  0.5324380000000  0.5468730000000 1.0
C      1  0.4531270000000  0.4675620000000  0.4719450000000 1.0
END
