TITL C-3985247-764-411 -1.10967094801984e-06 125000 -323.842115697574 0 0 60 (C5) n - 1
REM
REM in /home/nfs/bkarasulu/CARBON/AIRSS/Generating-Clusters/TERSOFF/Higher-Symm/Only-C60
REM
REM
REM
REM
REM
REM ./C.cell (28575a23ae977d3b5fae324c64b13b57)
REM
REM compiler GCC version 9.2.1 20190827 (Red Hat 9.2.1-1)
REM options -cpp -mtune=generic -march=x86-64 -g -O0 -fpre-include=/usr/include/finclude/math-vector-fortran.h
REM seed -1856632554 809278613 -362849474 -1863151750 -657466359 506193822 1361420827 896849381 1746238142 -1987055559 -606862629 985134312 57242787 1838948535 70297535 658929757 1567247116 1250693472 1462308602 -67567157 -971958664 -298484229 -1692988231 -1447607927 203521560 997211137 391714808 1129692174 -2132529491 -584025043 -920156501 -906962197 1320251308
REM
CELL 1.54180   50.00000   50.00000   50.00000   90.00000   90.00000   90.00000
LATT -1
SFAC C  
C      1  0.4758790000000  0.4491490000000  0.4388340000000 1.0
C      1  0.4758810000000  0.5424590000000  0.4327350000000 1.0
C      1  0.4758800000000  0.5770930000000  0.5195940000000 1.0
C      1  0.4758780000000  0.5051880000000  0.5793740000000 1.0
C      1  0.4758770000000  0.4261140000000  0.5294610000000 1.0
C      1  0.4755520000000  0.4962860000000  0.4354730000000 1.0
C      1  0.4755530000000  0.5602210000000  0.4765270000000 1.0
C      1  0.4755510000000  0.5409340000000  0.5500190000000 1.0
C      1  0.4755490000000  0.4650780000000  0.5543860000000 1.0
C      1  0.4755500000000  0.4374840000000  0.4835930000000 1.0
C      1  0.5310800000000  0.5160140000000  0.4282640000000 1.0
C      1  0.5310800000000  0.5731730000000  0.4930640000000 1.0
C      1  0.5310770000000  0.5292080000000  0.5674500000000 1.0
C      1  0.5310760000000  0.4448780000000  0.5486230000000 1.0
C      1  0.5310770000000  0.4367230000000  0.4626020000000 1.0
C      1  0.4414410000000  0.5296940000000  0.5089990000000 1.0
C      1  0.4414400000000  0.5006170000000  0.5310190000000 1.0
C      1  0.4414390000000  0.4706890000000  0.5101700000000 1.0
C      1  0.4414400000000  0.4812700000000  0.4752650000000 1.0
C      1  0.4414410000000  0.5177370000000  0.4745410000000 1.0
C      1  0.5556890000000  0.5194390000000  0.5200220000000 1.0
C      1  0.5556880000000  0.4869650000000  0.5246770000000 1.0
C      1  0.5556890000000  0.4725030000000  0.4952300000000 1.0
C      1  0.5556900000000  0.4960400000000  0.4723770000000 1.0
C      1  0.5556900000000  0.5250480000000  0.4876990000000 1.0
C      1  0.4956100000000  0.5181610000000  0.5447050000000 1.0
C      1  0.4956090000000  0.4630950000000  0.5310870000000 1.0
C      1  0.4956100000000  0.4590300000000  0.4745070000000 1.0
C      1  0.4956120000000  0.5115850000000  0.4531580000000 1.0
C      1  0.4956120000000  0.5481300000000  0.4965430000000 1.0
C      1  0.5398700000000  0.5385440000000  0.5409090000000 1.0
C      1  0.5398680000000  0.4730040000000  0.5493010000000 1.0
C      1  0.5398690000000  0.4447700000000  0.4895620000000 1.0
C      1  0.5398710000000  0.4928610000000  0.4442490000000 1.0
C      1  0.5398710000000  0.5508160000000  0.4759830000000 1.0
C      1  0.5076850000000  0.5715580000000  0.5137030000000 1.0
C      1  0.5076820000000  0.5090800000000  0.5722900000000 1.0
C      1  0.5076810000000  0.4340540000000  0.5309750000000 1.0
C      1  0.5076830000000  0.4501620000000  0.4468540000000 1.0
C      1  0.5076850000000  0.5351450000000  0.4361790000000 1.0
C      1  0.5296790000000  0.5655230000000  0.5343370000000 1.0
C      1  0.5296770000000  0.4875910000000  0.5729280000000 1.0
C      1  0.5296760000000  0.4268070000000  0.5107360000000 1.0
C      1  0.5296790000000  0.4671720000000  0.4337080000000 1.0
C      1  0.5296800000000  0.5529030000000  0.4482950000000 1.0
C      1  0.4593210000000  0.4889100000000  0.5600310000000 1.0
C      1  0.4593210000000  0.4394800000000  0.5080020000000 1.0
C      1  0.4593230000000  0.4736880000000  0.4449130000000 1.0
C      1  0.4593240000000  0.5442590000000  0.4579510000000 1.0
C      1  0.4593230000000  0.5536670000000  0.5290980000000 1.0
C      1  0.5150180000000  0.4811160000000  0.5164350000000 1.0
C      1  0.5150180000000  0.4785340000000  0.4871190000000 1.0
C      1  0.5150190000000  0.5056170000000  0.4756050000000 1.0
C      1  0.5150190000000  0.5249370000000  0.4978040000000 1.0
C      1  0.5150180000000  0.5097940000000  0.5230380000000 1.0
C      1  0.4731800000000  0.5259790000000  0.5007270000000 1.0
C      1  0.4731790000000  0.5073370000000  0.5249320000000 1.0
C      1  0.4731790000000  0.4785560000000  0.5146810000000 1.0
C      1  0.4731800000000  0.4794110000000  0.4841410000000 1.0
C      1  0.4731800000000  0.5087200000000  0.4755170000000 1.0
END
