TITL C-3985245-9316-384 -0.00058259490458863 125000 -303.904629602599 0 0 60 (C2) n - 1
REM
REM in /home/nfs/bkarasulu/CARBON/AIRSS/Generating-Clusters/TERSOFF/Higher-Symm/Only-C60
REM
REM
REM
REM
REM
REM ./C.cell (28575a23ae977d3b5fae324c64b13b57)
REM
REM compiler GCC version 9.2.1 20190827 (Red Hat 9.2.1-1)
REM options -cpp -mtune=generic -march=x86-64 -g -O0 -fpre-include=/usr/include/finclude/math-vector-fortran.h
REM seed -799760089 341431967 1819785258 742206638 230876708 -1907858790 1590819873 -536884673 -2138602610 -480318199 -103300536 -662682662 1649119239 936932457 -15451180 718579679 1908736291 1585289331 1578896490 -750538867 -2145827271 2111946950 -134226137 1017517712 -957292399 1499218022 -1381056803 1506544161 1356261957 183608190 586989140 -1668880341 -161070225
REM
CELL 1.54180   50.00000   50.00000   50.00000   90.00000   90.00000   90.00000
LATT -1
SFAC C  
C      1  0.4912150000000  0.4515190000000  0.5445970000000 1.0
C      1  0.4912120000000  0.5484780000000  0.4554010000000 1.0
C      1  0.5092370000000  0.4597180000000  0.4816430000000 1.0
C      1  0.5092370000000  0.5402830000000  0.5183590000000 1.0
C      1  0.4644970000000  0.5547610000000  0.5137420000000 1.0
C      1  0.4644950000000  0.4452330000000  0.4862640000000 1.0
C      1  0.5312060000000  0.4304610000000  0.5154130000000 1.0
C      1  0.5312040000000  0.5695390000000  0.4845850000000 1.0
C      1  0.5325110000000  0.4724230000000  0.5153520000000 1.0
C      1  0.5325020000000  0.5275770000000  0.4846510000000 1.0
C      1  0.5216070000000  0.5170470000000  0.5301540000000 1.0
C      1  0.5216080000000  0.4829530000000  0.4698470000000 1.0
C      1  0.4756300000000  0.4989250000000  0.5320400000000 1.0
C      1  0.4756290000000  0.5010660000000  0.4679700000000 1.0
C      1  0.5027870000000  0.5325830000000  0.5696140000000 1.0
C      1  0.5027840000000  0.4674430000000  0.4303910000000 1.0
C      1  0.5246830000000  0.4362370000000  0.4872140000000 1.0
C      1  0.5246820000000  0.5637640000000  0.5127850000000 1.0
C      1  0.4775240000000  0.4647520000000  0.4469890000000 1.0
C      1  0.4775230000000  0.5352430000000  0.5530040000000 1.0
C      1  0.4390560000000  0.5190350000000  0.4911660000000 1.0
C      1  0.4390460000000  0.4809660000000  0.5088340000000 1.0
C      1  0.5057620000000  0.4903260000000  0.5229260000000 1.0
C      1  0.5057590000000  0.5096720000000  0.4770720000000 1.0
C      1  0.4391470000000  0.5296080000000  0.4505450000000 1.0
C      1  0.4391470000000  0.4703990000000  0.5494430000000 1.0
C      1  0.4926920000000  0.5279090000000  0.4980320000000 1.0
C      1  0.4926850000000  0.4720900000000  0.5019680000000 1.0
C      1  0.5722490000000  0.4913840000000  0.4782120000000 1.0
C      1  0.5722490000000  0.5086160000000  0.5217890000000 1.0
C      1  0.5404030000000  0.4734730000000  0.5491590000000 1.0
C      1  0.5404030000000  0.5265260000000  0.4508410000000 1.0
C      1  0.4340510000000  0.4986300000000  0.4616360000000 1.0
C      1  0.4340480000000  0.5013770000000  0.5383660000000 1.0
C      1  0.4801180000000  0.4254680000000  0.5022870000000 1.0
C      1  0.4801160000000  0.5745260000000  0.4977160000000 1.0
C      1  0.5772560000000  0.5242710000000  0.4892460000000 1.0
C      1  0.5772570000000  0.4757280000000  0.5107540000000 1.0
C      1  0.4195610000000  0.5177060000000  0.5142810000000 1.0
C      1  0.4195580000000  0.4823030000000  0.4857160000000 1.0
C      1  0.5425790000000  0.4871890000000  0.4902500000000 1.0
C      1  0.5425780000000  0.5128080000000  0.5097500000000 1.0
C      1  0.5115040000000  0.4690290000000  0.5604620000000 1.0
C      1  0.5115060000000  0.5309720000000  0.4395330000000 1.0
C      1  0.4914810000000  0.4927980000000  0.5622520000000 1.0
C      1  0.4914780000000  0.5071980000000  0.4377540000000 1.0
C      1  0.5004010000000  0.5673350000000  0.4763940000000 1.0
C      1  0.5004050000000  0.4326600000000  0.5236050000000 1.0
C      1  0.4646790000000  0.4764970000000  0.4919980000000 1.0
C      1  0.4646780000000  0.5234990000000  0.5080060000000 1.0
C      1  0.4670150000000  0.5310020000000  0.4622180000000 1.0
C      1  0.4670160000000  0.4689860000000  0.5377820000000 1.0
C      1  0.5303220000000  0.5219310000000  0.5586950000000 1.0
C      1  0.5303240000000  0.4780710000000  0.4413030000000 1.0
C      1  0.4510250000000  0.5209120000000  0.5580040000000 1.0
C      1  0.4510280000000  0.4790950000000  0.4419970000000 1.0
C      1  0.5560220000000  0.4507840000000  0.5258420000000 1.0
C      1  0.5560220000000  0.5492160000000  0.4741560000000 1.0
C      1  0.5538020000000  0.5010060000000  0.5517800000000 1.0
C      1  0.5538030000000  0.4989930000000  0.4482200000000 1.0
END
