TITL C-3985250-725-753 6.29538178776765e-08 125000 -301.946079214198 0 0 60 (Td) n - 1
REM
REM in /home/nfs/bkarasulu/CARBON/AIRSS/Generating-Clusters/TERSOFF/Higher-Symm/Only-C60
REM
REM
REM
REM
REM
REM ./C.cell (28575a23ae977d3b5fae324c64b13b57)
REM
REM compiler GCC version 9.2.1 20190827 (Red Hat 9.2.1-1)
REM options -cpp -mtune=generic -march=x86-64 -g -O0 -fpre-include=/usr/include/finclude/math-vector-fortran.h
REM seed -730389297 959590821 1307215679 -702683494 541991614 -1527164946 -1532858222 641400200 -993346806 260364148 1785044643 -160646581 1115558760 932925892 -571624854 1136171646 -847305819 1063286122 -1570403759 471699810 412055528 -1275541197 1625804640 -453455995 436849012 -1115699062 49923634 785925337 -2138446711 -940987020 1848738410 -2004325762 -2025737232
REM
CELL 1.54180   50.00000   50.00000   50.00000   90.00000   90.00000   90.00000
LATT -1
SFAC C  
C      1  0.4689300000000  0.4938430000000  0.5524270000000 1.0
C      1  0.5524270000000  0.4689300000000  0.4938430000000 1.0
C      1  0.4938430000000  0.5524270000000  0.4689300000000 1.0
C      1  0.5310700000000  0.5061570000000  0.5524270000000 1.0
C      1  0.5310700000000  0.4938430000000  0.4475730000000 1.0
C      1  0.4689300000000  0.5061570000000  0.4475730000000 1.0
C      1  0.4475730000000  0.5310700000000  0.4938430000000 1.0
C      1  0.4475730000000  0.4689300000000  0.5061570000000 1.0
C      1  0.5524270000000  0.5310700000000  0.5061570000000 1.0
C      1  0.5061570000000  0.4475730000000  0.4689300000000 1.0
C      1  0.5061570000000  0.5524270000000  0.5310700000000 1.0
C      1  0.4938430000000  0.4475730000000  0.5310700000000 1.0
C      1  0.4938430000000  0.4689300000000  0.5524270000000 1.0
C      1  0.4689300000000  0.5524270000000  0.4938430000000 1.0
C      1  0.5524270000000  0.4938430000000  0.4689300000000 1.0
C      1  0.5061570000000  0.5310700000000  0.5524270000000 1.0
C      1  0.4938430000000  0.5310700000000  0.4475730000000 1.0
C      1  0.5061570000000  0.4689300000000  0.4475730000000 1.0
C      1  0.5310700000000  0.4475730000000  0.4938430000000 1.0
C      1  0.4689300000000  0.4475730000000  0.5061570000000 1.0
C      1  0.5310700000000  0.5524270000000  0.5061570000000 1.0
C      1  0.4475730000000  0.5061570000000  0.4689300000000 1.0
C      1  0.5524270000000  0.5061570000000  0.5310700000000 1.0
C      1  0.4475730000000  0.4938430000000  0.5310700000000 1.0
C      1  0.4581160000000  0.4211560000000  0.5205770000000 1.0
C      1  0.5205770000000  0.4581160000000  0.4211560000000 1.0
C      1  0.4211560000000  0.5205770000000  0.4581160000000 1.0
C      1  0.5418840000000  0.5788440000000  0.5205770000000 1.0
C      1  0.5418840000000  0.4211560000000  0.4794230000000 1.0
C      1  0.4581160000000  0.5788440000000  0.4794230000000 1.0
C      1  0.4794230000000  0.5418840000000  0.4211560000000 1.0
C      1  0.4794230000000  0.4581160000000  0.5788440000000 1.0
C      1  0.5205770000000  0.5418840000000  0.5788440000000 1.0
C      1  0.5788440000000  0.4794230000000  0.4581160000000 1.0
C      1  0.5788440000000  0.5205770000000  0.5418840000000 1.0
C      1  0.4211560000000  0.4794230000000  0.5418840000000 1.0
C      1  0.4211560000000  0.4581160000000  0.5205770000000 1.0
C      1  0.4581160000000  0.5205770000000  0.4211560000000 1.0
C      1  0.5205770000000  0.4211560000000  0.4581160000000 1.0
C      1  0.5788440000000  0.5418840000000  0.5205770000000 1.0
C      1  0.4211560000000  0.5418840000000  0.4794230000000 1.0
C      1  0.5788440000000  0.4581160000000  0.4794230000000 1.0
C      1  0.5418840000000  0.4794230000000  0.4211560000000 1.0
C      1  0.4581160000000  0.4794230000000  0.5788440000000 1.0
C      1  0.5418840000000  0.5205770000000  0.5788440000000 1.0
C      1  0.4794230000000  0.5788440000000  0.4581160000000 1.0
C      1  0.5205770000000  0.5788440000000  0.5418840000000 1.0
C      1  0.4794230000000  0.4211560000000  0.5418840000000 1.0
C      1  0.5210290000000  0.5210290000000  0.4413630000000 1.0
C      1  0.5210290000000  0.4789710000000  0.5586370000000 1.0
C      1  0.4789710000000  0.5210290000000  0.5586370000000 1.0
C      1  0.4413630000000  0.5210290000000  0.5210290000000 1.0
C      1  0.5210290000000  0.4413630000000  0.5210290000000 1.0
C      1  0.4789710000000  0.4789710000000  0.4413630000000 1.0
C      1  0.5586370000000  0.4789710000000  0.5210290000000 1.0
C      1  0.5586370000000  0.5210290000000  0.4789710000000 1.0
C      1  0.4413630000000  0.4789710000000  0.4789710000000 1.0
C      1  0.4789710000000  0.5586370000000  0.5210290000000 1.0
C      1  0.4789710000000  0.4413630000000  0.4789710000000 1.0
C      1  0.5210290000000  0.5586370000000  0.4789710000000 1.0
END
