TITL C-3985257-5396-266 -0.000166522930455007 125000 -311.978480436054 0 0 60 (C1) n - 1
REM
REM in /home/nfs/bkarasulu/CARBON/AIRSS/Generating-Clusters/TERSOFF/Higher-Symm/Only-C60
REM
REM
REM
REM
REM
REM ./C.cell (28575a23ae977d3b5fae324c64b13b57)
REM
REM compiler GCC version 9.2.1 20190827 (Red Hat 9.2.1-1)
REM options -cpp -mtune=generic -march=x86-64 -g -O0 -fpre-include=/usr/include/finclude/math-vector-fortran.h
REM seed 90138298 -1365949487 -1588970532 1239418491 -400312560 524615033 -805897093 -883615041 1201120563 678996118 -689223745 1092085480 844209435 -814261221 -4722791 -1572413068 74498959 -264296462 1949446119 121966775 1509890335 1207643031 1072491415 1781520410 -579632314 -245709311 -326743014 -1055091716 -2084911630 -736563466 -1509357207 -1080821894 1458790083
REM
CELL 1.54180   50.00000   50.00000   50.00000   90.00000   90.00000   90.00000
LATT -1
SFAC C  
C      1  0.4924320000000  0.5380520000000  0.5483910000000 1.0
C      1  0.4979850000000  0.5198130000000  0.4400830000000 1.0
C      1  0.4979980000000  0.4362240000000  0.5134120000000 1.0
C      1  0.5026550000000  0.5582660000000  0.5131250000000 1.0
C      1  0.5009260000000  0.4779810000000  0.4419020000000 1.0
C      1  0.5090500000000  0.4511710000000  0.5509900000000 1.0
C      1  0.5408680000000  0.5362350000000  0.4701500000000 1.0
C      1  0.5382870000000  0.4593980000000  0.4853360000000 1.0
C      1  0.5398940000000  0.5055540000000  0.5406800000000 1.0
C      1  0.4323890000000  0.5280610000000  0.5330040000000 1.0
C      1  0.4363830000000  0.5172610000000  0.4487490000000 1.0
C      1  0.4530390000000  0.4661360000000  0.5049370000000 1.0
C      1  0.4520030000000  0.4940770000000  0.4408610000000 1.0
C      1  0.4655650000000  0.4655700000000  0.5305650000000 1.0
C      1  0.4488030000000  0.5463880000000  0.5180900000000 1.0
C      1  0.5137450000000  0.5055220000000  0.5735330000000 1.0
C      1  0.5109730000000  0.5628910000000  0.4576980000000 1.0
C      1  0.5091640000000  0.4324270000000  0.4718810000000 1.0
C      1  0.4693580000000  0.4549800000000  0.4675360000000 1.0
C      1  0.4664440000000  0.4939920000000  0.5690080000000 1.0
C      1  0.4683650000000  0.5561900000000  0.4732940000000 1.0
C      1  0.4822600000000  0.5806420000000  0.4826840000000 1.0
C      1  0.4798580000000  0.4417090000000  0.4433210000000 1.0
C      1  0.4861570000000  0.4755930000000  0.5842560000000 1.0
C      1  0.4796000000000  0.4394470000000  0.5385470000000 1.0
C      1  0.4738950000000  0.5555670000000  0.5297450000000 1.0
C      1  0.4794970000000  0.4968110000000  0.4304430000000 1.0
C      1  0.4942080000000  0.4584480000000  0.4892200000000 1.0
C      1  0.4900250000000  0.5081200000000  0.5546330000000 1.0
C      1  0.4920050000000  0.5378880000000  0.4648610000000 1.0
C      1  0.4472590000000  0.5439680000000  0.4891720000000 1.0
C      1  0.4493660000000  0.4762860000000  0.4643770000000 1.0
C      1  0.4485090000000  0.4821810000000  0.5481420000000 1.0
C      1  0.5288760000000  0.4345940000000  0.5253470000000 1.0
C      1  0.5233130000000  0.5495440000000  0.5415990000000 1.0
C      1  0.5282480000000  0.5176930000000  0.4346630000000 1.0
C      1  0.5244270000000  0.5097430000000  0.5083210000000 1.0
C      1  0.5279070000000  0.5069650000000  0.4762930000000 1.0
C      1  0.5179110000000  0.4780870000000  0.5086850000000 1.0
C      1  0.5359910000000  0.5475180000000  0.4423220000000 1.0
C      1  0.5341860000000  0.4299820000000  0.4930320000000 1.0
C      1  0.5341160000000  0.5264370000000  0.5608560000000 1.0
C      1  0.5380340000000  0.4646100000000  0.4562640000000 1.0
C      1  0.5406950000000  0.4787190000000  0.5525890000000 1.0
C      1  0.5385730000000  0.5560770000000  0.4914720000000 1.0
C      1  0.5416820000000  0.5389400000000  0.5153670000000 1.0
C      1  0.5463710000000  0.4940610000000  0.4529860000000 1.0
C      1  0.5423800000000  0.4644590000000  0.5267220000000 1.0
C      1  0.5654200000000  0.4798280000000  0.5100360000000 1.0
C      1  0.5659200000000  0.5161240000000  0.5088850000000 1.0
C      1  0.5686190000000  0.4969290000000  0.4780640000000 1.0
C      1  0.4951410000000  0.4795900000000  0.5340480000000 1.0
C      1  0.5017400000000  0.5325180000000  0.4967970000000 1.0
C      1  0.5044030000000  0.4858010000000  0.4697340000000 1.0
C      1  0.4343530000000  0.5202390000000  0.4777830000000 1.0
C      1  0.4355950000000  0.4911550000000  0.4941550000000 1.0
C      1  0.4333850000000  0.4996320000000  0.5279920000000 1.0
C      1  0.5181620000000  0.4723230000000  0.5756020000000 1.0
C      1  0.5139250000000  0.5784530000000  0.4886940000000 1.0
C      1  0.5116600000000  0.4471330000000  0.4390690000000 1.0
END
