TITL C-3985247-764-712 -2.67196111035122e-07 125000 -349.01263432939 0 0 60 (D5) n - 1
REM
REM in /home/nfs/bkarasulu/CARBON/AIRSS/Generating-Clusters/TERSOFF/Higher-Symm/Only-C60
REM
REM
REM
REM
REM
REM ./C.cell (28575a23ae977d3b5fae324c64b13b57)
REM
REM compiler GCC version 9.2.1 20190827 (Red Hat 9.2.1-1)
REM options -cpp -mtune=generic -march=x86-64 -g -O0 -fpre-include=/usr/include/finclude/math-vector-fortran.h
REM seed -1857285657 1313241991 759799819 -554881857 -1472938702 50919414 193313572 -1924767472 -628775759 233497473 1624688412 -440278745 346967728 1245681753 -581815695 482284310 -1610305055 -1149683347 1429577609 -1209619122 958385715 581070127 1830243310 -620162139 -1073287651 -293026296 -329275808 -763100919 716158920 -795227317 -2103662516 747653721 -565402470
REM
CELL 1.54180   50.00000   50.00000   50.00000   90.00000   90.00000   90.00000
LATT -1
SFAC C  
C      1  0.5615050000000  0.5237000000000  0.4669000000000 1.0
C      1  0.5415550000000  0.4488230000000  0.4669210000000 1.0
C      1  0.4641770000000  0.4446580000000  0.4669220000000 1.0
C      1  0.4363050000000  0.5169610000000  0.4669020000000 1.0
C      1  0.4964570000000  0.5658120000000  0.4668890000000 1.0
C      1  0.5615050000000  0.4763000000000  0.5331000000000 1.0
C      1  0.5415550000000  0.5511770000000  0.5330790000000 1.0
C      1  0.4641780000000  0.5553420000000  0.5330780000000 1.0
C      1  0.4363050000000  0.4830390000000  0.5330980000000 1.0
C      1  0.4964570000000  0.4341880000000  0.5331110000000 1.0
C      1  0.5091940000000  0.4752270000000  0.5624780000000 1.0
C      1  0.4792640000000  0.4836130000000  0.5624760000000 1.0
C      1  0.4779910000000  0.5146690000000  0.5624670000000 1.0
C      1  0.5071330000000  0.5254770000000  0.5624650000000 1.0
C      1  0.5264180000000  0.5011000000000  0.5624710000000 1.0
C      1  0.5091940000000  0.5247730000000  0.4375220000000 1.0
C      1  0.4792640000000  0.5163880000000  0.4375240000000 1.0
C      1  0.4779910000000  0.4853310000000  0.4375330000000 1.0
C      1  0.5071330000000  0.4745230000000  0.4375350000000 1.0
C      1  0.5264180000000  0.4989000000000  0.4375290000000 1.0
C      1  0.5315750000000  0.4513590000000  0.4981010000000 1.0
C      1  0.4634970000000  0.4549390000000  0.4981000000000 1.0
C      1  0.4458650000000  0.5207910000000  0.4980820000000 1.0
C      1  0.5030460000000  0.5579100000000  0.4980720000000 1.0
C      1  0.5560170000000  0.5149980000000  0.4980840000000 1.0
C      1  0.5315750000000  0.5486410000000  0.5018990000000 1.0
C      1  0.4634970000000  0.5450610000000  0.5019000000000 1.0
C      1  0.4458650000000  0.4792090000000  0.5019180000000 1.0
C      1  0.5030460000000  0.4420900000000  0.5019280000000 1.0
C      1  0.5560170000000  0.4850020000000  0.5019160000000 1.0
C      1  0.4555470000000  0.5296230000000  0.5484450000000 1.0
C      1  0.5144240000000  0.5514410000000  0.5484390000000 1.0
C      1  0.5533680000000  0.5021870000000  0.5484530000000 1.0
C      1  0.5185590000000  0.4499290000000  0.5484670000000 1.0
C      1  0.4581020000000  0.4668860000000  0.5484620000000 1.0
C      1  0.4555470000000  0.4703770000000  0.4515550000000 1.0
C      1  0.5144240000000  0.4485590000000  0.4515610000000 1.0
C      1  0.5533680000000  0.4978130000000  0.4515470000000 1.0
C      1  0.5185590000000  0.5500710000000  0.4515330000000 1.0
C      1  0.4581020000000  0.5331140000000  0.4515380000000 1.0
C      1  0.4397380000000  0.4871390000000  0.4717380000000 1.0
C      1  0.4691530000000  0.5533330000000  0.4717200000000 1.0
C      1  0.5411980000000  0.5458130000000  0.4717220000000 1.0
C      1  0.5563090000000  0.4749700000000  0.4717410000000 1.0
C      1  0.4936030000000  0.4387070000000  0.4717510000000 1.0
C      1  0.4397380000000  0.5128620000000  0.5282620000000 1.0
C      1  0.4691530000000  0.4466670000000  0.5282800000000 1.0
C      1  0.5411980000000  0.4541870000000  0.5282780000000 1.0
C      1  0.5563090000000  0.5250300000000  0.5282590000000 1.0
C      1  0.4936030000000  0.5612930000000  0.5282490000000 1.0
C      1  0.5000280000000  0.5263150000000  0.4806730000000 1.0
C      1  0.5250410000000  0.5081010000000  0.4806770000000 1.0
C      1  0.5154480000000  0.4786840000000  0.4806860000000 1.0
C      1  0.4845060000000  0.4787180000000  0.4806860000000 1.0
C      1  0.4749760000000  0.5081550000000  0.4806770000000 1.0
C      1  0.5000280000000  0.4736850000000  0.5193270000000 1.0
C      1  0.5250410000000  0.4918980000000  0.5193230000000 1.0
C      1  0.5154480000000  0.5213150000000  0.5193140000000 1.0
C      1  0.4845070000000  0.5212830000000  0.5193140000000 1.0
C      1  0.4749760000000  0.4918450000000  0.5193230000000 1.0
END
