TITL C-3985245-9316-804 -0.00216879521462062 125000 -340.456854700161 0 0 60 (C6) n - 1
REM
REM in /home/nfs/bkarasulu/CARBON/AIRSS/Generating-Clusters/TERSOFF/Higher-Symm/Only-C60
REM
REM
REM
REM
REM
REM ./C.cell (28575a23ae977d3b5fae324c64b13b57)
REM
REM compiler GCC version 9.2.1 20190827 (Red Hat 9.2.1-1)
REM options -cpp -mtune=generic -march=x86-64 -g -O0 -fpre-include=/usr/include/finclude/math-vector-fortran.h
REM seed -1921971242 -2101084311 -43647107 -221346686 361444793 -302000476 386455213 -56979509 581459733 -1498438889 -1633833794 -1756898370 -1294409349 -845371615 191848587 -1397830948 393073943 -633581571 763131118 1706306929 650805972 329663390 1949055334 -247008731 1056505382 -1076769366 905565315 -822961703 -70630853 -114423595 -1390631273 4612872 -2087747346
REM
CELL 1.54180   50.00000   50.00000   50.00000   90.00000   90.00000   90.00000
LATT -1
SFAC C  
C      1  0.5273760000000  0.5654430000000  0.4886120000000 1.0
C      1  0.5235500000000  0.5654450000000  0.5180150000000 1.0
C      1  0.4961730000000  0.5654450000000  0.5294030000000 1.0
C      1  0.4726240000000  0.5654430000000  0.5113880000000 1.0
C      1  0.4764500000000  0.5654450000000  0.4819850000000 1.0
C      1  0.5038270000000  0.5654450000000  0.4705970000000 1.0
C      1  0.4399970000000  0.5335740000000  0.4917220000000 1.0
C      1  0.4771680000000  0.5335750000000  0.4438970000000 1.0
C      1  0.5371720000000  0.5335720000000  0.4521810000000 1.0
C      1  0.5600030000000  0.5335740000000  0.5082780000000 1.0
C      1  0.5228320000000  0.5335750000000  0.5561030000000 1.0
C      1  0.4628280000000  0.5335720000000  0.5478190000000 1.0
C      1  0.5524710000000  0.4532870000000  0.5239460000000 1.0
C      1  0.5055100000000  0.4532950000000  0.5574270000000 1.0
C      1  0.4530230000000  0.4532910000000  0.5334860000000 1.0
C      1  0.4475290000000  0.4532870000000  0.4760540000000 1.0
C      1  0.4944900000000  0.4532950000000  0.4425730000000 1.0
C      1  0.5469770000000  0.4532910000000  0.4665140000000 1.0
C      1  0.5273180000000  0.4738120000000  0.4974030000000 1.0
C      1  0.5159220000000  0.4738520000000  0.5223990000000 1.0
C      1  0.4885630000000  0.4738480000000  0.5249950000000 1.0
C      1  0.4726820000000  0.4738120000000  0.5025970000000 1.0
C      1  0.4840780000000  0.4738520000000  0.4776010000000 1.0
C      1  0.5114370000000  0.4738480000000  0.4750050000000 1.0
C      1  0.4718280000000  0.4347400000000  0.4871760000000 1.0
C      1  0.4970590000000  0.4348160000000  0.4692360000000 1.0
C      1  0.5252230000000  0.4348010000000  0.4820690000000 1.0
C      1  0.5281720000000  0.4347400000000  0.5128240000000 1.0
C      1  0.5029410000000  0.4348160000000  0.5307640000000 1.0
C      1  0.4747770000000  0.4348010000000  0.5179310000000 1.0
C      1  0.4534570000000  0.5018860000000  0.5540480000000 1.0
C      1  0.4299210000000  0.5018870000000  0.4867320000000 1.0
C      1  0.4764620000000  0.5019040000000  0.4326650000000 1.0
C      1  0.5465430000000  0.5018860000000  0.4459520000000 1.0
C      1  0.5700790000000  0.5018870000000  0.5132680000000 1.0
C      1  0.5235380000000  0.5019040000000  0.5673350000000 1.0
C      1  0.5046630000000  0.5018630000000  0.4445370000000 1.0
C      1  0.5503520000000  0.5018400000000  0.4763240000000 1.0
C      1  0.5456950000000  0.5018660000000  0.5317780000000 1.0
C      1  0.4953370000000  0.5018630000000  0.5554630000000 1.0
C      1  0.4496480000000  0.5018400000000  0.5236760000000 1.0
C      1  0.4543050000000  0.5018660000000  0.4682220000000 1.0
C      1  0.5434730000000  0.5475970000000  0.5332350000000 1.0
C      1  0.4929580000000  0.5475640000000  0.5542380000000 1.0
C      1  0.4495140000000  0.5475590000000  0.5210170000000 1.0
C      1  0.4565270000000  0.5475970000000  0.4667650000000 1.0
C      1  0.5070420000000  0.5475640000000  0.4457620000000 1.0
C      1  0.5504860000000  0.5475590000000  0.4789830000000 1.0
C      1  0.5350000000000  0.4729920000000  0.5489960000000 1.0
C      1  0.4750830000000  0.4729940000000  0.5548160000000 1.0
C      1  0.4400800000000  0.4729830000000  0.5058190000000 1.0
C      1  0.4650000000000  0.4729920000000  0.4510040000000 1.0
C      1  0.5249170000000  0.4729940000000  0.4451840000000 1.0
C      1  0.5599200000000  0.4729830000000  0.4941810000000 1.0
C      1  0.5261480000000  0.5147210000000  0.4881690000000 1.0
C      1  0.5233100000000  0.5147710000000  0.5167290000000 1.0
C      1  0.4971720000000  0.5147740000000  0.5285570000000 1.0
C      1  0.4738520000000  0.5147210000000  0.5118310000000 1.0
C      1  0.4766900000000  0.5147710000000  0.4832710000000 1.0
C      1  0.5028280000000  0.5147740000000  0.4714430000000 1.0
END
