TITL C-3985245-9316-321 -2.13430737276557e-05 125000 -322.373301939074 0 0 60 (Cs) n - 1
REM
REM in /home/nfs/bkarasulu/CARBON/AIRSS/Generating-Clusters/TERSOFF/Higher-Symm/Only-C60
REM
REM
REM
REM
REM
REM ./C.cell (28575a23ae977d3b5fae324c64b13b57)
REM
REM compiler GCC version 9.2.1 20190827 (Red Hat 9.2.1-1)
REM options -cpp -mtune=generic -march=x86-64 -g -O0 -fpre-include=/usr/include/finclude/math-vector-fortran.h
REM seed -1331343247 -518067365 -1399028478 1772420560 -1805046219 -152077512 -1408703120 -534736916 -1885066690 -1554297222 219660001 1883969822 832937728 1887719828 -1186514223 1561068814 -1836388012 853234571 769433537 -411099190 -793229543 670112635 -139625050 -1607349119 1010963679 803786575 -473033757 164014335 -1830374637 -384347393 1449219188 -569369656 -612980073
REM
CELL 1.54180   50.00000   50.00000   50.00000   90.00000   90.00000   90.00000
LATT -1
SFAC C  
C      1  0.4112280000000  0.5103660000000  0.5143240000000 1.0
C      1  0.4112280000000  0.5103660000000  0.4856760000000 1.0
C      1  0.4578270000000  0.5499200000000  0.4684890000000 1.0
C      1  0.4578270000000  0.5499200000000  0.5315110000000 1.0
C      1  0.4907180000000  0.4677630000000  0.4391880000000 1.0
C      1  0.4907180000000  0.4677630000000  0.5608120000000 1.0
C      1  0.4825550000000  0.5489170000000  0.5144850000000 1.0
C      1  0.4825550000000  0.5489180000000  0.4855150000000 1.0
C      1  0.5613250000000  0.5336750000000  0.5178090000000 1.0
C      1  0.5613250000000  0.5336760000000  0.4821910000000 1.0
C      1  0.5171130000000  0.4777180000000  0.4283470000000 1.0
C      1  0.5171130000000  0.4777180000000  0.5716540000000 1.0
C      1  0.4860880000000  0.5020740000000  0.4704240000000 1.0
C      1  0.4860880000000  0.5020750000000  0.5295760000000 1.0
C      1  0.5067250000000  0.5468330000000  0.5557590000000 1.0
C      1  0.5067250000000  0.5468330000000  0.4442410000000 1.0
C      1  0.5431680000000  0.4766840000000  0.5559090000000 1.0
C      1  0.5431670000000  0.4766840000000  0.4440910000000 1.0
C      1  0.4355600000000  0.5063450000000  0.4706680000000 1.0
C      1  0.4355600000000  0.5063460000000  0.5293320000000 1.0
C      1  0.4604650000000  0.4597140000000  0.4819850000000 1.0
C      1  0.4604650000000  0.4597140000000  0.5180150000000 1.0
C      1  0.5092820000000  0.4840050000000  0.4835030000000 1.0
C      1  0.5092810000000  0.4840060000000  0.5164980000000 1.0
C      1  0.4645070000000  0.5139430000000  0.5678780000000 1.0
C      1  0.4645070000000  0.5139420000000  0.4321220000000 1.0
C      1  0.5360620000000  0.5544470000000  0.5151030000000 1.0
C      1  0.5360620000000  0.5544470000000  0.4848970000000 1.0
C      1  0.5423010000000  0.5193840000000  0.5670970000000 1.0
C      1  0.5423010000000  0.5193840000000  0.4329020000000 1.0
C      1  0.4907640000000  0.4604170000000  0.5314060000000 1.0
C      1  0.4907640000000  0.4604170000000  0.4685950000000 1.0
C      1  0.4932880000000  0.5193790000000  0.5600510000000 1.0
C      1  0.4932880000000  0.5193790000000  0.4399490000000 1.0
C      1  0.5513560000000  0.4821350000000  0.4849160000000 1.0
C      1  0.5513420000000  0.4821330000000  0.5150810000000 1.0
C      1  0.5242160000000  0.5142020000000  0.5170390000000 1.0
C      1  0.5242170000000  0.5142020000000  0.4829610000000 1.0
C      1  0.4703570000000  0.4273780000000  0.4844550000000 1.0
C      1  0.4703570000000  0.4273800000000  0.5155420000000 1.0
C      1  0.5089060000000  0.5437180000000  0.4731870000000 1.0
C      1  0.5089060000000  0.5437180000000  0.5268130000000 1.0
C      1  0.5514990000000  0.5065920000000  0.5369910000000 1.0
C      1  0.5514980000000  0.5065940000000  0.4630080000000 1.0
C      1  0.5338780000000  0.5479740000000  0.4321410000000 1.0
C      1  0.5338790000000  0.5479730000000  0.5678580000000 1.0
C      1  0.5307820000000  0.4543730000000  0.4823000000000 1.0
C      1  0.5307790000000  0.4543720000000  0.5177050000000 1.0
C      1  0.4665180000000  0.4834330000000  0.4295050000000 1.0
C      1  0.4665190000000  0.4834330000000  0.5704960000000 1.0
C      1  0.4586190000000  0.4928340000000  0.5168120000000 1.0
C      1  0.4586190000000  0.4928340000000  0.4831880000000 1.0
C      1  0.5161690000000  0.5060980000000  0.5750400000000 1.0
C      1  0.5161690000000  0.5060980000000  0.4249600000000 1.0
C      1  0.4466580000000  0.5265630000000  0.4529590000000 1.0
C      1  0.4466580000000  0.5265630000000  0.5470410000000 1.0
C      1  0.5039350000000  0.4321620000000  0.5180780000000 1.0
C      1  0.5039370000000  0.4321620000000  0.4819230000000 1.0
C      1  0.5481390000000  0.4509520000000  0.4570360000000 1.0
C      1  0.5481400000000  0.4509510000000  0.5429650000000 1.0
END
