TITL C-3985254-1270-759 -0.00775686210656434 125000 -326.011305647612 0 0 60 (C1) n - 1
REM
REM in /home/nfs/bkarasulu/CARBON/AIRSS/Generating-Clusters/TERSOFF/Higher-Symm/Only-C60
REM
REM
REM
REM
REM
REM ./C.cell (28575a23ae977d3b5fae324c64b13b57)
REM
REM compiler GCC version 9.2.1 20190827 (Red Hat 9.2.1-1)
REM options -cpp -mtune=generic -march=x86-64 -g -O0 -fpre-include=/usr/include/finclude/math-vector-fortran.h
REM seed 514995737 272902103 -596727177 -211111918 -1325653894 -1214468276 -1388690303 -150787226 1873948770 977167916 181287421 -1651949661 -1160892776 2018232096 1642490702 1836318006 -110542085 2135043182 2018999975 -58947374 -162139942 1614524468 -1203753146 973025088 -1682641711 422877993 914203163 1988814298 -1981689087 1939709028 1374444894 -339944497 791913191
REM
CELL 1.54180   50.00000   50.00000   50.00000   90.00000   90.00000   90.00000
LATT -1
SFAC C  
C      1  0.5365790000000  0.5071490000000  0.4344050000000 1.0
C      1  0.5065760000000  0.5365280000000  0.4344980000000 1.0
C      1  0.4693340000000  0.5171030000000  0.4349660000000 1.0
C      1  0.4763260000000  0.4756690000000  0.4347970000000 1.0
C      1  0.5178720000000  0.4695580000000  0.4345880000000 1.0
C      1  0.4654940000000  0.4999960000000  0.4833320000000 1.0
C      1  0.4914750000000  0.4671260000000  0.4825750000000 1.0
C      1  0.5309060000000  0.4813200000000  0.4824430000000 1.0
C      1  0.5294140000000  0.5232050000000  0.4822620000000 1.0
C      1  0.4890820000000  0.5346110000000  0.4823560000000 1.0
C      1  0.4629190000000  0.5485360000000  0.5220250000000 1.0
C      1  0.4439120000000  0.4789840000000  0.5224320000000 1.0
C      1  0.5043280000000  0.4400360000000  0.5221120000000 1.0
C      1  0.5603740000000  0.4850870000000  0.5220900000000 1.0
C      1  0.5347420000000  0.5522650000000  0.5220850000000 1.0
C      1  0.5059040000000  0.4447810000000  0.4932180000000 1.0
C      1  0.5565590000000  0.4880890000000  0.4931590000000 1.0
C      1  0.5308290000000  0.5496830000000  0.4930980000000 1.0
C      1  0.4642650000000  0.5441040000000  0.4931330000000 1.0
C      1  0.4489740000000  0.4791220000000  0.4935870000000 1.0
C      1  0.5477190000000  0.5151670000000  0.4609870000000 1.0
C      1  0.5023170000000  0.5495890000000  0.4610520000000 1.0
C      1  0.4556550000000  0.5171400000000  0.4616510000000 1.0
C      1  0.4720170000000  0.4629530000000  0.4613640000000 1.0
C      1  0.5288260000000  0.4614660000000  0.4611670000000 1.0
C      1  0.4715300000000  0.5208890000000  0.5631680000000 1.0
C      1  0.4732520000000  0.4789360000000  0.5636410000000 1.0
C      1  0.5136680000000  0.4675290000000  0.5635670000000 1.0
C      1  0.5370620000000  0.5024040000000  0.5635300000000 1.0
C      1  0.5109630000000  0.5352960000000  0.5635210000000 1.0
C      1  0.4765830000000  0.4401490000000  0.5319600000000 1.0
C      1  0.5515400000000  0.4587220000000  0.5318510000000 1.0
C      1  0.5570770000000  0.5357310000000  0.5318390000000 1.0
C      1  0.4855110000000  0.5646890000000  0.5318560000000 1.0
C      1  0.4357250000000  0.5056160000000  0.5319890000000 1.0
C      1  0.5256980000000  0.4334360000000  0.4734130000000 1.0
C      1  0.5733740000000  0.5035260000000  0.4733720000000 1.0
C      1  0.5212440000000  0.5704830000000  0.4733720000000 1.0
C      1  0.4413240000000  0.5416080000000  0.4736150000000 1.0
C      1  0.4444250000000  0.4570050000000  0.4734990000000 1.0
C      1  0.5241320000000  0.4529120000000  0.5404670000000 1.0
C      1  0.5541640000000  0.5078770000000  0.5404320000000 1.0
C      1  0.5110600000000  0.5532080000000  0.5402630000000 1.0
C      1  0.4546830000000  0.5262880000000  0.5401420000000 1.0
C      1  0.4624950000000  0.4643060000000  0.5406640000000 1.0
C      1  0.4965790000000  0.5107380000000  0.5954100000000 1.0
C      1  0.4998550000000  0.5011940000000  0.4591450000000 1.0
C      1  0.5000340000000  0.5008320000000  0.2946860000000 1.0
C      1  0.5057870000000  0.4932760000000  0.6717400000000 1.0
C      1  0.5105460000000  0.5041050000000  0.3215550000000 1.0
C      1  0.5013780000000  0.5012050000000  0.4277510000000 1.0
C      1  0.4979330000000  0.5065930000000  0.6470760000000 1.0
C      1  0.5005960000000  0.5024360000000  0.5264730000000 1.0
C      1  0.4956110000000  0.4989780000000  0.3459240000000 1.0
C      1  0.5013970000000  0.5013420000000  0.4910790000000 1.0
C      1  0.5013580000000  0.5005620000000  0.5626040000000 1.0
C      1  0.5036520000000  0.4967250000000  0.6200690000000 1.0
C      1  0.5000050000000  0.5031330000000  0.6984890000000 1.0
C      1  0.4903690000000  0.4991760000000  0.3973410000000 1.0
C      1  0.5060950000000  0.5022830000000  0.3729820000000 1.0
END
