TITL C-3985250-725-1085 -0.00815564358976879 125000 -322.895408342627 0 0 60 (C1) n - 1
REM
REM in /home/nfs/bkarasulu/CARBON/AIRSS/Generating-Clusters/TERSOFF/Higher-Symm/Only-C60
REM
REM
REM
REM
REM
REM ./C.cell (28575a23ae977d3b5fae324c64b13b57)
REM
REM compiler GCC version 9.2.1 20190827 (Red Hat 9.2.1-1)
REM options -cpp -mtune=generic -march=x86-64 -g -O0 -fpre-include=/usr/include/finclude/math-vector-fortran.h
REM seed -1637857279 958736761 1113132264 782136215 -1060757237 292388213 154850794 -258573415 -566856810 1968615720 -1496907782 -662339545 -568763610 83359463 1300113854 -599940316 1016097879 103881206 -901605062 155273755 215273442 -757446509 -478702990 393240536 -828834456 1712364040 2131637942 1741239852 -1294284394 -287032549 1533599710 720860029 -1822443014
REM
CELL 1.54180   50.00000   50.00000   50.00000   90.00000   90.00000   90.00000
LATT -1
SFAC C  
C      1  0.4685580000000  0.4616400000000  0.4996810000000 1.0
C      1  0.4836750000000  0.5456560000000  0.4992990000000 1.0
C      1  0.5490590000000  0.4905410000000  0.4993260000000 1.0
C      1  0.4976750000000  0.5673100000000  0.5434040000000 1.0
C      1  0.5607830000000  0.4680600000000  0.5435890000000 1.0
C      1  0.4429190000000  0.4628580000000  0.5437110000000 1.0
C      1  0.5510870000000  0.4700060000000  0.4426300000000 1.0
C      1  0.4494030000000  0.4694930000000  0.4427470000000 1.0
C      1  0.5003100000000  0.5585630000000  0.4423200000000 1.0
C      1  0.5337430000000  0.5400380000000  0.5139650000000 1.0
C      1  0.5191360000000  0.4500100000000  0.5146440000000 1.0
C      1  0.4483520000000  0.5078180000000  0.5143730000000 1.0
C      1  0.4645340000000  0.4779390000000  0.5637180000000 1.0
C      1  0.4998740000000  0.5411490000000  0.5635390000000 1.0
C      1  0.5368780000000  0.4792590000000  0.5634530000000 1.0
C      1  0.5325460000000  0.4625060000000  0.4638150000000 1.0
C      1  0.4524670000000  0.4896420000000  0.4636030000000 1.0
C      1  0.5157970000000  0.5451390000000  0.4630780000000 1.0
C      1  0.4971490000000  0.4684230000000  0.4923460000000 1.0
C      1  0.4751630000000  0.5174670000000  0.4917700000000 1.0
C      1  0.5289060000000  0.5119410000000  0.4913570000000 1.0
C      1  0.5215140000000  0.4768500000000  0.5313330000000 1.0
C      1  0.4701330000000  0.4921530000000  0.5313200000000 1.0
C      1  0.5095830000000  0.5289580000000  0.5310330000000 1.0
C      1  0.4685750000000  0.5028240000000  0.5857310000000 1.0
C      1  0.5197750000000  0.5257260000000  0.5845660000000 1.0
C      1  0.5136830000000  0.4695780000000  0.5848220000000 1.0
C      1  0.5404200000000  0.4638120000000  0.4917050000000 1.0
C      1  0.4497990000000  0.4825320000000  0.4917560000000 1.0
C      1  0.5112140000000  0.5511780000000  0.4912680000000 1.0
C      1  0.5488280000000  0.4448500000000  0.5285630000000 1.0
C      1  0.4288940000000  0.4847560000000  0.5285010000000 1.0
C      1  0.5236400000000  0.5684180000000  0.5282130000000 1.0
C      1  0.5618790000000  0.4938930000000  0.5254730000000 1.0
C      1  0.4649070000000  0.4488610000000  0.5257390000000 1.0
C      1  0.4745890000000  0.5551310000000  0.5255210000000 1.0
C      1  0.5250780000000  0.5168140000000  0.4594110000000 1.0
C      1  0.5033760000000  0.4682160000000  0.4616240000000 1.0
C      1  0.4722700000000  0.5118480000000  0.4605520000000 1.0
C      1  0.5493720000000  0.5135910000000  0.4432180000000 1.0
C      1  0.4882750000000  0.4483430000000  0.4460040000000 1.0
C      1  0.4630240000000  0.5346880000000  0.4445820000000 1.0
C      1  0.4573500000000  0.5331730000000  0.5384370000000 1.0
C      1  0.5514090000000  0.5199180000000  0.5381640000000 1.0
C      1  0.4925890000000  0.4449690000000  0.5385660000000 1.0
C      1  0.4898450000000  0.4590670000000  0.5664440000000 1.0
C      1  0.4709450000000  0.5287150000000  0.5665920000000 1.0
C      1  0.5404160000000  0.5104260000000  0.5661250000000 1.0
C      1  0.4974880000000  0.4954650000000  0.3696040000000 1.0
C      1  0.4998770000000  0.4983080000000  0.3184140000000 1.0
C      1  0.5002890000000  0.4995200000000  0.5594190000000 1.0
C      1  0.5004990000000  0.4992290000000  0.5285090000000 1.0
C      1  0.5012090000000  0.4994580000000  0.6011070000000 1.0
C      1  0.5030900000000  0.5052280000000  0.3965560000000 1.0
C      1  0.4971820000000  0.4902040000000  0.4207700000000 1.0
C      1  0.5004290000000  0.4993560000000  0.4985140000000 1.0
C      1  0.5080740000000  0.4998820000000  0.6315450000000 1.0
C      1  0.5056730000000  0.5083370000000  0.3449990000000 1.0
C      1  0.4999830000000  0.4989090000000  0.4502160000000 1.0
C      1  0.4934480000000  0.4987760000000  0.6575950000000 1.0
END
