TITL C-3985247-764-704 9.13373248877776e-07 125000 -355.746387365957 0 0 60 (C4h) n - 1
REM
REM in /home/nfs/bkarasulu/CARBON/AIRSS/Generating-Clusters/TERSOFF/Higher-Symm/Only-C60
REM
REM
REM
REM
REM
REM ./C.cell (28575a23ae977d3b5fae324c64b13b57)
REM
REM compiler GCC version 9.2.1 20190827 (Red Hat 9.2.1-1)
REM options -cpp -mtune=generic -march=x86-64 -g -O0 -fpre-include=/usr/include/finclude/math-vector-fortran.h
REM seed -1127505274 -1496405295 253890314 1280918763 -879349859 -830617171 1522005810 -1957254235 -1967900244 1457196030 -1291319118 -800797853 -134564311 873217917 -199323338 -500443288 -481653804 -270703487 -1154535876 1185754066 -810576121 742740673 1647484009 1690680091 1087857318 -925331686 -2128330313 -1286866849 -1175521072 -1790826782 760568616 -1146271868 -1670674572
REM
CELL 1.54180   50.00000   50.00000   50.00000   90.00000   90.00000   90.00000
LATT -1
SFAC C  
C      1  0.4659980000000  0.5071220000000  0.4396480000000 1.0
C      1  0.4659980000000  0.4396480000000  0.4928780000000 1.0
C      1  0.4659980000000  0.4928780000000  0.5603520000000 1.0
C      1  0.4659980000000  0.5603520000000  0.5071220000000 1.0
C      1  0.5364140000000  0.5071220000000  0.4396480000000 1.0
C      1  0.5364140000000  0.4396480000000  0.4928780000000 1.0
C      1  0.5364140000000  0.4928780000000  0.5603520000000 1.0
C      1  0.5364140000000  0.5603520000000  0.5071220000000 1.0
C      1  0.5655500000000  0.4711430000000  0.5221820000000 1.0
C      1  0.5655500000000  0.5221820000000  0.5288570000000 1.0
C      1  0.5655500000000  0.5288570000000  0.4778180000000 1.0
C      1  0.5655500000000  0.4778180000000  0.4711430000000 1.0
C      1  0.4368620000000  0.4711430000000  0.5221820000000 1.0
C      1  0.4368620000000  0.5221820000000  0.5288570000000 1.0
C      1  0.4368620000000  0.5288570000000  0.4778180000000 1.0
C      1  0.4368620000000  0.4778180000000  0.4711430000000 1.0
C      1  0.4853050000000  0.4393760000000  0.4678730000000 1.0
C      1  0.4853050000000  0.4678730000000  0.5606240000000 1.0
C      1  0.4853050000000  0.5606240000000  0.5321270000000 1.0
C      1  0.4853050000000  0.5321270000000  0.4393760000000 1.0
C      1  0.5171080000000  0.4393760000000  0.4678730000000 1.0
C      1  0.5171080000000  0.4678730000000  0.5606240000000 1.0
C      1  0.5171080000000  0.5606240000000  0.5321270000000 1.0
C      1  0.5171080000000  0.5321270000000  0.4393760000000 1.0
C      1  0.4847730000000  0.5181800000000  0.4857280000000 1.0
C      1  0.4847730000000  0.4857280000000  0.4818200000000 1.0
C      1  0.4847730000000  0.4818200000000  0.5142720000000 1.0
C      1  0.4847730000000  0.5142720000000  0.5181800000000 1.0
C      1  0.5176400000000  0.5181800000000  0.4857280000000 1.0
C      1  0.5176400000000  0.4857280000000  0.4818200000000 1.0
C      1  0.5176400000000  0.4818200000000  0.5142720000000 1.0
C      1  0.5176400000000  0.5142720000000  0.5181800000000 1.0
C      1  0.5561950000000  0.5370060000000  0.5049120000000 1.0
C      1  0.5561950000000  0.5049120000000  0.4629940000000 1.0
C      1  0.5561950000000  0.4629940000000  0.4950880000000 1.0
C      1  0.5561950000000  0.4950880000000  0.5370060000000 1.0
C      1  0.4462170000000  0.5370060000000  0.5049120000000 1.0
C      1  0.4462170000000  0.5049120000000  0.4629940000000 1.0
C      1  0.4462170000000  0.4629940000000  0.4950880000000 1.0
C      1  0.4462170000000  0.4950880000000  0.5370060000000 1.0
C      1  0.4764940000000  0.4331720000000  0.5201830000000 1.0
C      1  0.4764940000000  0.5201830000000  0.5668280000000 1.0
C      1  0.4764940000000  0.5668280000000  0.4798170000000 1.0
C      1  0.4764940000000  0.4798170000000  0.4331720000000 1.0
C      1  0.5259180000000  0.4331720000000  0.5201830000000 1.0
C      1  0.5259180000000  0.5201830000000  0.5668280000000 1.0
C      1  0.5259180000000  0.5668280000000  0.4798170000000 1.0
C      1  0.5259180000000  0.4798170000000  0.4331720000000 1.0
C      1  0.4760950000000  0.5396610000000  0.4674350000000 1.0
C      1  0.4760950000000  0.4674350000000  0.4603390000000 1.0
C      1  0.4760950000000  0.4603390000000  0.5325650000000 1.0
C      1  0.4760950000000  0.5325650000000  0.5396610000000 1.0
C      1  0.5263170000000  0.5396610000000  0.4674350000000 1.0
C      1  0.5263170000000  0.4674350000000  0.4603390000000 1.0
C      1  0.5263170000000  0.4603390000000  0.5325650000000 1.0
C      1  0.5263170000000  0.5325650000000  0.5396610000000 1.0
C      1  0.5012060000000  0.5225380000000  0.5813160000000 1.0
C      1  0.5012060000000  0.5813160000000  0.4774620000000 1.0
C      1  0.5012060000000  0.4774620000000  0.4186840000000 1.0
C      1  0.5012060000000  0.4186840000000  0.5225380000000 1.0
END
