TITL C-3985244-725-571 -2.65105686694096e-07 125000 -363.117525965097 0 0 60 (S10) n - 1
REM
REM in /home/nfs/bkarasulu/CARBON/AIRSS/Generating-Clusters/TERSOFF/Higher-Symm/Only-C60
REM
REM
REM
REM
REM
REM ./C.cell (28575a23ae977d3b5fae324c64b13b57)
REM
REM compiler GCC version 9.2.1 20190827 (Red Hat 9.2.1-1)
REM options -cpp -mtune=generic -march=x86-64 -g -O0 -fpre-include=/usr/include/finclude/math-vector-fortran.h
REM seed 1793513577 906881281 295221125 1299067237 -2074325759 578558989 -2115608100 1781163628 926110707 -30245692 428784999 339497053 2106938266 959434766 1342272766 -1269444540 639225912 -1895410818 902094833 6749556 2078551605 1331441770 -2082848435 1039577969 660579711 -1398573341 115884764 385605408 -862420187 -1219734291 1554350295 -1589107255 -465244035
REM
CELL 1.54180   50.00000   50.00000   50.00000   90.00000   90.00000   90.00000
LATT -1
SFAC C  
C      1  0.5626720000000  0.4570870000000  0.5187170000000 1.0
C      1  0.5396990000000  0.5429140000000  0.5519810000000 1.0
C      1  0.5015660000000  0.4570840000000  0.5653870000000 1.0
C      1  0.4628310000000  0.5429120000000  0.5538210000000 1.0
C      1  0.4382970000000  0.4570830000000  0.5216930000000 1.0
C      1  0.4373280000000  0.5429130000000  0.4812830000000 1.0
C      1  0.4603010000000  0.4570860000000  0.4480190000000 1.0
C      1  0.4984340000000  0.5429160000000  0.4346130000000 1.0
C      1  0.5371690000000  0.4570880000000  0.4461790000000 1.0
C      1  0.5617030000000  0.5429170000000  0.4783070000000 1.0
C      1  0.5731190000000  0.5158520000000  0.4836310000000 1.0
C      1  0.5687780000000  0.4841520000000  0.5297350000000 1.0
C      1  0.5381630000000  0.5158490000000  0.5644830000000 1.0
C      1  0.4929740000000  0.4841480000000  0.5745990000000 1.0
C      1  0.4504660000000  0.5158460000000  0.5562230000000 1.0
C      1  0.4268810000000  0.4841480000000  0.5163690000000 1.0
C      1  0.4312220000000  0.5158480000000  0.4702650000000 1.0
C      1  0.4618370000000  0.4841510000000  0.4355170000000 1.0
C      1  0.5070260000000  0.5158520000000  0.4254010000000 1.0
C      1  0.5495340000000  0.4841540000000  0.4437770000000 1.0
C      1  0.5477430000000  0.5057440000000  0.5210880000000 1.0
C      1  0.5262300000000  0.4942570000000  0.5451230000000 1.0
C      1  0.4946970000000  0.5057410000000  0.5519230000000 1.0
C      1  0.4651910000000  0.4942550000000  0.5388900000000 1.0
C      1  0.4489790000000  0.5057410000000  0.5110020000000 1.0
C      1  0.4522570000000  0.4942560000000  0.4789120000000 1.0
C      1  0.4737700000000  0.5057430000000  0.4548770000000 1.0
C      1  0.5053030000000  0.4942590000000  0.4480770000000 1.0
C      1  0.5348090000000  0.5057450000000  0.4611100000000 1.0
C      1  0.5510210000000  0.4942590000000  0.4889980000000 1.0
C      1  0.4906440000000  0.4293900000000  0.5240280000000 1.0
C      1  0.4783030000000  0.5706080000000  0.5139420000000 1.0
C      1  0.4742570000000  0.4293910000000  0.4985230000000 1.0
C      1  0.4800360000000  0.5706080000000  0.4836760000000 1.0
C      1  0.4934490000000  0.4293920000000  0.4750570000000 1.0
C      1  0.5093560000000  0.5706100000000  0.4759720000000 1.0
C      1  0.5216970000000  0.4293920000000  0.4860580000000 1.0
C      1  0.5257430000000  0.5706090000000  0.5014770000000 1.0
C      1  0.5199640000000  0.4293920000000  0.5163240000000 1.0
C      1  0.5065510000000  0.5706080000000  0.5249430000000 1.0
C      1  0.5125390000000  0.5541160000000  0.5487620000000 1.0
C      1  0.4814870000000  0.4458810000000  0.5468170000000 1.0
C      1  0.4575000000000  0.5541150000000  0.5269960000000 1.0
C      1  0.4497530000000  0.4458810000000  0.4968570000000 1.0
C      1  0.4611920000000  0.5541170000000  0.4679250000000 1.0
C      1  0.4874610000000  0.4458840000000  0.4512380000000 1.0
C      1  0.5185130000000  0.5541190000000  0.4531830000000 1.0
C      1  0.5425000000000  0.4458850000000  0.4730040000000 1.0
C      1  0.5502470000000  0.5541190000000  0.5031430000000 1.0
C      1  0.5388080000000  0.4458830000000  0.5320750000000 1.0
C      1  0.5085410000000  0.4643690000000  0.4427280000000 1.0
C      1  0.5405710000000  0.5356350000000  0.4586880000000 1.0
C      1  0.5571080000000  0.4643690000000  0.4904230000000 1.0
C      1  0.5518280000000  0.5356340000000  0.5258210000000 1.0
C      1  0.5267550000000  0.4643670000000  0.5513520000000 1.0
C      1  0.4914590000000  0.5356310000000  0.5572720000000 1.0
C      1  0.4594290000000  0.4643650000000  0.5413120000000 1.0
C      1  0.4428920000000  0.5356310000000  0.5095770000000 1.0
C      1  0.4481720000000  0.4643660000000  0.4741790000000 1.0
C      1  0.4732450000000  0.5356330000000  0.4486480000000 1.0
END
