TITL C-3985244-725-257 0.000545429813602259 125000 -352.472885892169 0 0 60 (C1) n - 1
REM
REM in /home/nfs/bkarasulu/CARBON/AIRSS/Generating-Clusters/TERSOFF/Higher-Symm/Only-C60
REM
REM
REM
REM
REM
REM ./C.cell (28575a23ae977d3b5fae324c64b13b57)
REM
REM compiler GCC version 9.2.1 20190827 (Red Hat 9.2.1-1)
REM options -cpp -mtune=generic -march=x86-64 -g -O0 -fpre-include=/usr/include/finclude/math-vector-fortran.h
REM seed 1027930375 -923089535 -1981674904 1699863956 348733434 -1700971466 -312400791 -1676481908 518563798 -291502327 38659042 1898060608 -1929743490 -1363793669 1492364077 1306166152 -171395968 757194673 -648115684 44867858 -1171601817 -1242968054 -1342344302 -1355897444 -154007651 1747589790 -1196494136 27707354 604656342 1654468334 938210961 -2080049955 2060293721
REM
CELL 1.54180   50.00000   50.00000   50.00000   90.00000   90.00000   90.00000
LATT -1
SFAC C  
C      1  0.4441340000000  0.5153210000000  0.5115680000000 1.0
C      1  0.5151650000000  0.5549090000000  0.5116700000000 1.0
C      1  0.5574360000000  0.4853700000000  0.5103810000000 1.0
C      1  0.4851570000000  0.4459110000000  0.5125300000000 1.0
C      1  0.5575220000000  0.5152040000000  0.5105020000000 1.0
C      1  0.4854040000000  0.5556930000000  0.5111300000000 1.0
C      1  0.4437230000000  0.4855080000000  0.5111080000000 1.0
C      1  0.5149620000000  0.4461520000000  0.5126130000000 1.0
C      1  0.5141660000000  0.4653420000000  0.5629350000000 1.0
C      1  0.4646870000000  0.4835280000000  0.5556460000000 1.0
C      1  0.4837290000000  0.5328850000000  0.5539790000000 1.0
C      1  0.5341600000000  0.5146380000000  0.5538280000000 1.0
C      1  0.4853260000000  0.4636920000000  0.5633610000000 1.0
C      1  0.5334820000000  0.4857470000000  0.5523090000000 1.0
C      1  0.5118950000000  0.5335850000000  0.5599740000000 1.0
C      1  0.4640540000000  0.5117310000000  0.5612030000000 1.0
C      1  0.4558120000000  0.5235510000000  0.4358520000000 1.0
C      1  0.5234480000000  0.5446670000000  0.4357190000000 1.0
C      1  0.5428300000000  0.4770400000000  0.4357440000000 1.0
C      1  0.4770310000000  0.4555350000000  0.4365910000000 1.0
C      1  0.5434840000000  0.5230900000000  0.4354130000000 1.0
C      1  0.4775150000000  0.5434540000000  0.4359190000000 1.0
C      1  0.4575360000000  0.4775830000000  0.4362260000000 1.0
C      1  0.5228150000000  0.4554700000000  0.4364410000000 1.0
C      1  0.4715010000000  0.5498840000000  0.4861680000000 1.0
C      1  0.5507210000000  0.5291980000000  0.4857170000000 1.0
C      1  0.5289980000000  0.4509640000000  0.4869850000000 1.0
C      1  0.4503090000000  0.4717470000000  0.4863050000000 1.0
C      1  0.5294680000000  0.5498070000000  0.4863630000000 1.0
C      1  0.4501490000000  0.5294180000000  0.4863440000000 1.0
C      1  0.4712200000000  0.4509560000000  0.4870620000000 1.0
C      1  0.5502860000000  0.4714820000000  0.4858580000000 1.0
C      1  0.5295700000000  0.5536830000000  0.5391150000000 1.0
C      1  0.5560040000000  0.4711610000000  0.5368490000000 1.0
C      1  0.4697380000000  0.4452320000000  0.5391890000000 1.0
C      1  0.4446530000000  0.5300630000000  0.5388700000000 1.0
C      1  0.4706620000000  0.5552520000000  0.5373170000000 1.0
C      1  0.4437370000000  0.4705490000000  0.5371550000000 1.0
C      1  0.5301870000000  0.4459010000000  0.5395210000000 1.0
C      1  0.5563190000000  0.5294480000000  0.5374360000000 1.0
C      1  0.4857780000000  0.5558780000000  0.4611940000000 1.0
C      1  0.5562260000000  0.5148350000000  0.4605490000000 1.0
C      1  0.5146910000000  0.4438240000000  0.4622130000000 1.0
C      1  0.4446100000000  0.4858630000000  0.4611950000000 1.0
C      1  0.5151580000000  0.5564780000000  0.4613780000000 1.0
C      1  0.4437410000000  0.5151760000000  0.4613140000000 1.0
C      1  0.4853620000000  0.4438600000000  0.4622560000000 1.0
C      1  0.5557870000000  0.4854860000000  0.4606200000000 1.0
C      1  0.5772690000000  0.5144940000000  0.5549210000000 1.0
C      1  0.5148500000000  0.4229490000000  0.5546250000000 1.0
C      1  0.4222300000000  0.4850190000000  0.5541440000000 1.0
C      1  0.4850880000000  0.5765910000000  0.5544190000000 1.0
C      1  0.4225550000000  0.5143310000000  0.5551430000000 1.0
C      1  0.4855410000000  0.4226040000000  0.5544960000000 1.0
C      1  0.5770500000000  0.4851220000000  0.5545970000000 1.0
C      1  0.5144620000000  0.5761410000000  0.5552380000000 1.0
C      1  0.5004560000000  0.5261510000000  0.4191080000000 1.0
C      1  0.5258050000000  0.4999820000000  0.4190190000000 1.0
C      1  0.4998680000000  0.4743140000000  0.4195130000000 1.0
C      1  0.4744740000000  0.5005550000000  0.4193180000000 1.0
END
