TITL C-3985259-1859-221 -0.00405004714177771 125000 -324.696610994016 0 0 60 (C2) n - 1
REM
REM in /home/nfs/bkarasulu/CARBON/AIRSS/Generating-Clusters/TERSOFF/Higher-Symm/Only-C60
REM
REM
REM
REM
REM
REM ./C.cell (28575a23ae977d3b5fae324c64b13b57)
REM
REM compiler GCC version 9.2.1 20190827 (Red Hat 9.2.1-1)
REM options -cpp -mtune=generic -march=x86-64 -g -O0 -fpre-include=/usr/include/finclude/math-vector-fortran.h
REM seed 193826485 1785457372 1312685905 1759572882 -1894604284 -1456055906 1921128182 714415787 587692845 -820783382 -1735964196 -966556609 1518483924 -2025332086 -921847645 1524887871 -1940948579 -2101500303 -2097945033 322851096 -747553717 -574345237 -851171246 -1539561246 333406575 -1690103847 1133758708 -549097020 1359752942 -868412352 801055834 -1146046125 -4311194
REM
CELL 1.54180   50.00000   50.00000   50.00000   90.00000   90.00000   90.00000
LATT -1
SFAC C  
C      1  0.5419810000000  0.4462490000000  0.4780010000000 1.0
C      1  0.4580120000000  0.5537560000000  0.4779860000000 1.0
C      1  0.5346260000000  0.4998310000000  0.5636610000000 1.0
C      1  0.4653720000000  0.5001640000000  0.5636580000000 1.0
C      1  0.4778740000000  0.5587150000000  0.5071660000000 1.0
C      1  0.5221400000000  0.4412840000000  0.5071640000000 1.0
C      1  0.4892230000000  0.5292870000000  0.4929360000000 1.0
C      1  0.5108030000000  0.4707360000000  0.4930120000000 1.0
C      1  0.4819300000000  0.4772850000000  0.4329860000000 1.0
C      1  0.5180370000000  0.5226860000000  0.4330020000000 1.0
C      1  0.4725330000000  0.4445680000000  0.5010860000000 1.0
C      1  0.5274390000000  0.5554080000000  0.5011240000000 1.0
C      1  0.5309210000000  0.5301190000000  0.5615150000000 1.0
C      1  0.4690860000000  0.4698880000000  0.5614590000000 1.0
C      1  0.4461250000000  0.5069280000000  0.4606780000000 1.0
C      1  0.5538720000000  0.4930720000000  0.4606790000000 1.0
C      1  0.5728600000000  0.5358830000000  0.5161170000000 1.0
C      1  0.4271580000000  0.4641260000000  0.5161300000000 1.0
C      1  0.5306460000000  0.4956330000000  0.4384710000000 1.0
C      1  0.4693520000000  0.5043680000000  0.4384640000000 1.0
C      1  0.4471940000000  0.4606840000000  0.5405520000000 1.0
C      1  0.5528110000000  0.5392990000000  0.5405630000000 1.0
C      1  0.4898030000000  0.5595880000000  0.5412130000000 1.0
C      1  0.5101930000000  0.4404080000000  0.5412050000000 1.0
C      1  0.4934680000000  0.4247960000000  0.5060670000000 1.0
C      1  0.5065400000000  0.5752550000000  0.5061040000000 1.0
C      1  0.5443390000000  0.5556850000000  0.4767810000000 1.0
C      1  0.4556190000000  0.4442780000000  0.4767240000000 1.0
C      1  0.4248050000000  0.4842190000000  0.4645960000000 1.0
C      1  0.5752160000000  0.5157610000000  0.4645750000000 1.0
C      1  0.4446890000000  0.5138590000000  0.5224120000000 1.0
C      1  0.5553180000000  0.4861480000000  0.5224170000000 1.0
C      1  0.5593370000000  0.4882470000000  0.5512880000000 1.0
C      1  0.4406650000000  0.5117530000000  0.5512870000000 1.0
C      1  0.5124010000000  0.4728540000000  0.4384090000000 1.0
C      1  0.4875950000000  0.5271420000000  0.4384070000000 1.0
C      1  0.5623000000000  0.4676320000000  0.4769720000000 1.0
C      1  0.4376960000000  0.5323670000000  0.4769670000000 1.0
C      1  0.5634290000000  0.5332590000000  0.4877480000000 1.0
C      1  0.4365890000000  0.4666950000000  0.4877630000000 1.0
C      1  0.5389110000000  0.5096590000000  0.4847790000000 1.0
C      1  0.4611410000000  0.4904040000000  0.4847360000000 1.0
C      1  0.5259570000000  0.5465120000000  0.4528130000000 1.0
C      1  0.4740090000000  0.4535140000000  0.4529740000000 1.0
C      1  0.4839160000000  0.4752530000000  0.4748340000000 1.0
C      1  0.5160570000000  0.5247130000000  0.4748620000000 1.0
C      1  0.4921970000000  0.4146370000000  0.5360190000000 1.0
C      1  0.5077700000000  0.5853880000000  0.5360430000000 1.0
C      1  0.4990230000000  0.4651170000000  0.5524630000000 1.0
C      1  0.5009790000000  0.5348830000000  0.5524770000000 1.0
C      1  0.4266360000000  0.5257850000000  0.5032980000000 1.0
C      1  0.5733630000000  0.4742130000000  0.5033000000000 1.0
C      1  0.4691420000000  0.4683340000000  0.5195160000000 1.0
C      1  0.5308360000000  0.5317010000000  0.5195670000000 1.0
C      1  0.4725120000000  0.5037950000000  0.5122060000000 1.0
C      1  0.5275300000000  0.4962510000000  0.5122290000000 1.0
C      1  0.5173340000000  0.4539060000000  0.4608990000000 1.0
C      1  0.4826850000000  0.5460160000000  0.4609760000000 1.0
C      1  0.4880370000000  0.5094340000000  0.5443320000000 1.0
C      1  0.5119690000000  0.4905710000000  0.5443310000000 1.0
END
