TITL C-3985250-725-1176 0.00720640036982325 125000 -340.362358984389 0 0 60 (C2) n - 1
REM
REM in /home/nfs/bkarasulu/CARBON/AIRSS/Generating-Clusters/TERSOFF/Higher-Symm/Only-C60
REM
REM
REM
REM
REM
REM ./C.cell (28575a23ae977d3b5fae324c64b13b57)
REM
REM compiler GCC version 9.2.1 20190827 (Red Hat 9.2.1-1)
REM options -cpp -mtune=generic -march=x86-64 -g -O0 -fpre-include=/usr/include/finclude/math-vector-fortran.h
REM seed -1841135741 912691064 -220980019 1625804395 -2077359884 -914823212 -868307645 1532458711 -92495820 -1867661698 -1999510384 -887021126 1421122775 719912242 795244134 -1433949117 2068989931 -318273739 1779547245 -1872995862 -1623510490 690625652 -706850440 1989977674 815458867 2130649413 701842545 495162572 -475920338 -911094701 -887193420 1326978182 -897609470
REM
CELL 1.54180   50.00000   50.00000   50.00000   90.00000   90.00000   90.00000
LATT -1
SFAC C  
C      1  0.4438720000000  0.5030830000000  0.4794320000000 1.0
C      1  0.5561310000000  0.4968970000000  0.4794530000000 1.0
C      1  0.5536140000000  0.4929490000000  0.4496010000000 1.0
C      1  0.4463880000000  0.5070540000000  0.4495940000000 1.0
C      1  0.4864310000000  0.4959070000000  0.4727420000000 1.0
C      1  0.5135670000000  0.5040930000000  0.4727420000000 1.0
C      1  0.5461150000000  0.5415090000000  0.4555570000000 1.0
C      1  0.4538880000000  0.4584900000000  0.4555530000000 1.0
C      1  0.5427930000000  0.4652240000000  0.4522620000000 1.0
C      1  0.4572090000000  0.5347790000000  0.4522610000000 1.0
C      1  0.4938580000000  0.4859100000000  0.4326610000000 1.0
C      1  0.5061420000000  0.5140910000000  0.4326600000000 1.0
C      1  0.5606790000000  0.4870370000000  0.5267260000000 1.0
C      1  0.4392960000000  0.5129580000000  0.5267350000000 1.0
C      1  0.5386190000000  0.5159120000000  0.4361380000000 1.0
C      1  0.4613820000000  0.4840880000000  0.4361370000000 1.0
C      1  0.5254390000000  0.4818100000000  0.5618620000000 1.0
C      1  0.4745590000000  0.5181890000000  0.5618630000000 1.0
C      1  0.4298470000000  0.5332880000000  0.5049880000000 1.0
C      1  0.5701680000000  0.4667200000000  0.5049740000000 1.0
C      1  0.4385390000000  0.4547010000000  0.4829230000000 1.0
C      1  0.5614600000000  0.5452950000000  0.4829300000000 1.0
C      1  0.4949440000000  0.5479730000000  0.5176500000000 1.0
C      1  0.5050540000000  0.4520280000000  0.5176520000000 1.0
C      1  0.4554450000000  0.4414100000000  0.5040130000000 1.0
C      1  0.5445540000000  0.5585920000000  0.5040140000000 1.0
C      1  0.5203760000000  0.5327880000000  0.4699320000000 1.0
C      1  0.4796250000000  0.4672100000000  0.4699310000000 1.0
C      1  0.5260260000000  0.5066930000000  0.5772440000000 1.0
C      1  0.4739750000000  0.4933070000000  0.5772450000000 1.0
C      1  0.5327070000000  0.4860730000000  0.5345320000000 1.0
C      1  0.4673110000000  0.5139260000000  0.5345330000000 1.0
C      1  0.4934650000000  0.5415130000000  0.5646680000000 1.0
C      1  0.5065370000000  0.4584870000000  0.5646690000000 1.0
C      1  0.4872630000000  0.5385950000000  0.4448010000000 1.0
C      1  0.5127380000000  0.4614050000000  0.4448010000000 1.0
C      1  0.4566610000000  0.4601840000000  0.5348440000000 1.0
C      1  0.5433340000000  0.5398140000000  0.5348400000000 1.0
C      1  0.5513100000000  0.4537340000000  0.4834360000000 1.0
C      1  0.4486780000000  0.5462730000000  0.4834300000000 1.0
C      1  0.5144970000000  0.4405540000000  0.5424580000000 1.0
C      1  0.4855030000000  0.5594470000000  0.5424590000000 1.0
C      1  0.5664370000000  0.5173580000000  0.5314680000000 1.0
C      1  0.4335620000000  0.4826450000000  0.5314470000000 1.0
C      1  0.4819700000000  0.4694990000000  0.5204120000000 1.0
C      1  0.5180300000000  0.5305020000000  0.5204110000000 1.0
C      1  0.5291210000000  0.4884400000000  0.4920410000000 1.0
C      1  0.4708770000000  0.5115610000000  0.4920390000000 1.0
C      1  0.5147710000000  0.5023480000000  0.5166780000000 1.0
C      1  0.4852280000000  0.4976550000000  0.5166790000000 1.0
C      1  0.5229060000000  0.5333720000000  0.5640300000000 1.0
C      1  0.4770960000000  0.4666290000000  0.5640320000000 1.0
C      1  0.5192570000000  0.5700940000000  0.4915380000000 1.0
C      1  0.4807420000000  0.4299070000000  0.4915390000000 1.0
C      1  0.4987370000000  0.5532060000000  0.4725320000000 1.0
C      1  0.5012630000000  0.4467940000000  0.4725320000000 1.0
C      1  0.4289180000000  0.4810310000000  0.4898140000000 1.0
C      1  0.5710820000000  0.5189710000000  0.4897820000000 1.0
C      1  0.5217880000000  0.4565350000000  0.4930380000000 1.0
C      1  0.4782170000000  0.5434640000000  0.4930420000000 1.0
END
