TITL C-3985250-725-146 4.67919107769557e-05 125000 -329.936553409682 0 0 60 (C5) n - 1
REM
REM in /home/nfs/bkarasulu/CARBON/AIRSS/Generating-Clusters/TERSOFF/Higher-Symm/Only-C60
REM
REM
REM
REM
REM
REM ./C.cell (28575a23ae977d3b5fae324c64b13b57)
REM
REM compiler GCC version 9.2.1 20190827 (Red Hat 9.2.1-1)
REM options -cpp -mtune=generic -march=x86-64 -g -O0 -fpre-include=/usr/include/finclude/math-vector-fortran.h
REM seed -386462790 1547620947 696824603 1700855001 -951643458 -1396032402 108798062 1707216930 -1006277692 24455562 1235007224 320929509 582137601 509191991 -1887187051 -205071871 1435966770 51214237 -582887944 1304220595 -1627347760 1574536439 -403286655 122219312 747422690 279232954 1214708573 53502187 -1667521104 -1757252205 -466958266 2104925823 -425939587
REM
CELL 1.54180   50.00000   50.00000   50.00000   90.00000   90.00000   90.00000
LATT -1
SFAC C  
C      1  0.5164760000000  0.4384840000000  0.4802410000000 1.0
C      1  0.5164760000000  0.4997820000000  0.4353900000000 1.0
C      1  0.5164760000000  0.5613810000000  0.4798280000000 1.0
C      1  0.5164740000000  0.5381540000000  0.5521430000000 1.0
C      1  0.5164740000000  0.4622000000000  0.5523990000000 1.0
C      1  0.5074330000000  0.4900090000000  0.5689890000000 1.0
C      1  0.5074350000000  0.4313000000000  0.5118160000000 1.0
C      1  0.5074360000000  0.4675330000000  0.4383140000000 1.0
C      1  0.5074350000000  0.5486340000000  0.4500600000000 1.0
C      1  0.5074340000000  0.5625240000000  0.5308220000000 1.0
C      1  0.4687620000000  0.4511130000000  0.4720000000000 1.0
C      1  0.4687620000000  0.5115230000000  0.4448530000000 1.0
C      1  0.4687620000000  0.5560080000000  0.4939170000000 1.0
C      1  0.4687610000000  0.5230920000000  0.5513870000000 1.0
C      1  0.4687610000000  0.4582640000000  0.5378410000000 1.0
C      1  0.5469030000000  0.4670060000000  0.5383090000000 1.0
C      1  0.5469040000000  0.4533700000000  0.4804590000000 1.0
C      1  0.5469040000000  0.5041760000000  0.4496150000000 1.0
C      1  0.5469040000000  0.5492100000000  0.4884020000000 1.0
C      1  0.5469030000000  0.5262380000000  0.5432190000000 1.0
C      1  0.4636680000000  0.4622270000000  0.5665020000000 1.0
C      1  0.4636690000000  0.4250800000000  0.4846260000000 1.0
C      1  0.4636700000000  0.4914700000000  0.4239950000000 1.0
C      1  0.4636700000000  0.5696490000000  0.4684010000000 1.0
C      1  0.4636680000000  0.5515750000000  0.5564740000000 1.0
C      1  0.5277240000000  0.5125640000000  0.5208980000000 1.0
C      1  0.5277240000000  0.4840080000000  0.5184060000000 1.0
C      1  0.5277240000000  0.4775520000000  0.4904790000000 1.0
C      1  0.5277250000000  0.5021190000000  0.4757110000000 1.0
C      1  0.5277240000000  0.5237560000000  0.4945100000000 1.0
C      1  0.4833510000000  0.4761860000000  0.5825100000000 1.0
C      1  0.4833520000000  0.4141700000000  0.5028480000000 1.0
C      1  0.4833530000000  0.4707680000000  0.4192510000000 1.0
C      1  0.4833530000000  0.5677640000000  0.4472450000000 1.0
C      1  0.4833510000000  0.5711120000000  0.5481450000000 1.0
C      1  0.4970440000000  0.5172040000000  0.5581770000000 1.0
C      1  0.4970450000000  0.4499870000000  0.5343400000000 1.0
C      1  0.4970460000000  0.4518850000000  0.4630470000000 1.0
C      1  0.4970460000000  0.5202770000000  0.4428210000000 1.0
C      1  0.4970450000000  0.5606460000000  0.5016150000000 1.0
C      1  0.4228340000000  0.5265260000000  0.4977640000000 1.0
C      1  0.4228340000000  0.5103220000000  0.5245350000000 1.0
C      1  0.4228340000000  0.4798530000000  0.5173970000000 1.0
C      1  0.4228340000000  0.4772270000000  0.4862140000000 1.0
C      1  0.4228340000000  0.5060730000000  0.4740800000000 1.0
C      1  0.5400610000000  0.4964570000000  0.5576690000000 1.0
C      1  0.5400620000000  0.4440580000000  0.5144510000000 1.0
C      1  0.5400620000000  0.4689700000000  0.4512630000000 1.0
C      1  0.5400620000000  0.5367640000000  0.4554290000000 1.0
C      1  0.5400610000000  0.5537510000000  0.5211920000000 1.0
C      1  0.5696690000000  0.5253450000000  0.4939130000000 1.0
C      1  0.5696700000000  0.5136220000000  0.5222240000000 1.0
C      1  0.5696690000000  0.4830740000000  0.5198240000000 1.0
C      1  0.5696700000000  0.4759170000000  0.4900290000000 1.0
C      1  0.5696700000000  0.5020420000000  0.4740160000000 1.0
C      1  0.4560690000000  0.5115440000000  0.5271190000000 1.0
C      1  0.4560700000000  0.4777750000000  0.5193590000000 1.0
C      1  0.4560700000000  0.4747200000000  0.4848440000000 1.0
C      1  0.4560700000000  0.5066020000000  0.4712730000000 1.0
C      1  0.4560700000000  0.5293600000000  0.4974010000000 1.0
END
