TITL C-3985247-764-387 5.21545269742549e-07 125000 -309.439048476331 0 0 60 (Th) n - 1
REM
REM in /home/nfs/bkarasulu/CARBON/AIRSS/Generating-Clusters/TERSOFF/Higher-Symm/Only-C60
REM
REM
REM
REM
REM
REM ./C.cell (28575a23ae977d3b5fae324c64b13b57)
REM
REM compiler GCC version 9.2.1 20190827 (Red Hat 9.2.1-1)
REM options -cpp -mtune=generic -march=x86-64 -g -O0 -fpre-include=/usr/include/finclude/math-vector-fortran.h
REM seed -1279417591 -1742096283 1254236231 -1330501710 2145949590 190282216 -1573186028 156749867 1174032288 434600296 1773470099 2059409611 -1596301986 1771561315 916422003 1857996513 981273719 -1543324952 -1369353895 -368357179 1568065050 2069963652 1512882558 2011225699 -187237966 -124520866 1511577916 -910819316 2086664853 -792534896 187084243 -1345228574 1163440050
REM
CELL 1.54180   50.00000   50.00000   50.00000   90.00000   90.00000   90.00000
LATT -1
SFAC C  
C      1  0.4757710000000  0.5247250000000  0.5737520000000 1.0
C      1  0.5247250000000  0.5737520000000  0.4757710000000 1.0
C      1  0.5737520000000  0.4757710000000  0.5247250000000 1.0
C      1  0.5242290000000  0.4752750000000  0.5737520000000 1.0
C      1  0.4757710000000  0.4752750000000  0.4262480000000 1.0
C      1  0.5242290000000  0.5247250000000  0.4262480000000 1.0
C      1  0.4752750000000  0.4262480000000  0.4757710000000 1.0
C      1  0.5247250000000  0.4262480000000  0.5242290000000 1.0
C      1  0.4752750000000  0.5737520000000  0.5242290000000 1.0
C      1  0.4262480000000  0.5242290000000  0.5247250000000 1.0
C      1  0.5737520000000  0.5242290000000  0.4752750000000 1.0
C      1  0.4262480000000  0.4757710000000  0.4752750000000 1.0
C      1  0.4757710000000  0.5247250000000  0.4262480000000 1.0
C      1  0.5247250000000  0.5737520000000  0.5242290000000 1.0
C      1  0.5737520000000  0.4757710000000  0.4752750000000 1.0
C      1  0.5242290000000  0.4752750000000  0.4262480000000 1.0
C      1  0.4757710000000  0.4752750000000  0.5737520000000 1.0
C      1  0.5242290000000  0.5247250000000  0.5737520000000 1.0
C      1  0.4752750000000  0.4262480000000  0.5242290000000 1.0
C      1  0.5247250000000  0.4262480000000  0.4757710000000 1.0
C      1  0.4752750000000  0.5737520000000  0.4757710000000 1.0
C      1  0.4262480000000  0.5242290000000  0.4752750000000 1.0
C      1  0.5737520000000  0.5242290000000  0.5247250000000 1.0
C      1  0.4262480000000  0.4757710000000  0.5247250000000 1.0
C      1  0.5451620000000  0.4699520000000  0.5158150000000 1.0
C      1  0.4699520000000  0.5158150000000  0.5451620000000 1.0
C      1  0.5158150000000  0.5451620000000  0.4699520000000 1.0
C      1  0.4548380000000  0.5300480000000  0.5158150000000 1.0
C      1  0.5451620000000  0.5300480000000  0.4841850000000 1.0
C      1  0.4548380000000  0.4699520000000  0.4841850000000 1.0
C      1  0.5300480000000  0.4841850000000  0.5451620000000 1.0
C      1  0.4699520000000  0.4841850000000  0.4548380000000 1.0
C      1  0.5300480000000  0.5158150000000  0.4548380000000 1.0
C      1  0.4841850000000  0.4548380000000  0.4699520000000 1.0
C      1  0.5158150000000  0.4548380000000  0.5300480000000 1.0
C      1  0.4841850000000  0.5451620000000  0.5300480000000 1.0
C      1  0.5451620000000  0.4699520000000  0.4841850000000 1.0
C      1  0.4699520000000  0.5158150000000  0.4548380000000 1.0
C      1  0.5158150000000  0.5451620000000  0.5300480000000 1.0
C      1  0.4548380000000  0.5300480000000  0.4841850000000 1.0
C      1  0.5451620000000  0.5300480000000  0.5158150000000 1.0
C      1  0.4548380000000  0.4699520000000  0.5158150000000 1.0
C      1  0.5300480000000  0.4841850000000  0.4548380000000 1.0
C      1  0.4699520000000  0.4841850000000  0.5451620000000 1.0
C      1  0.5300480000000  0.5158150000000  0.5451620000000 1.0
C      1  0.4841850000000  0.4548380000000  0.5300480000000 1.0
C      1  0.5158150000000  0.4548380000000  0.4699520000000 1.0
C      1  0.4841850000000  0.5451620000000  0.4699520000000 1.0
C      1  0.4127680000000  0.5000000000000  0.5149870000000 1.0
C      1  0.4127680000000  0.5000000000000  0.4850130000000 1.0
C      1  0.5000000000000  0.4850130000000  0.5872320000000 1.0
C      1  0.5872320000000  0.5000000000000  0.4850130000000 1.0
C      1  0.5000000000000  0.5149870000000  0.4127680000000 1.0
C      1  0.5872320000000  0.5000000000000  0.5149870000000 1.0
C      1  0.5149870000000  0.4127680000000  0.5000000000000 1.0
C      1  0.4850130000000  0.5872320000000  0.5000000000000 1.0
C      1  0.5000000000000  0.4850130000000  0.4127680000000 1.0
C      1  0.5000000000000  0.5149870000000  0.5872320000000 1.0
C      1  0.5149870000000  0.5872320000000  0.5000000000000 1.0
C      1  0.4850130000000  0.4127680000000  0.5000000000000 1.0
END
