TITL C-3985251-913-659 0.00079673256452053 125000 -321.475528429079 0 0 60 (C1) n - 1
REM
REM in /home/nfs/bkarasulu/CARBON/AIRSS/Generating-Clusters/TERSOFF/Higher-Symm/Only-C60
REM
REM
REM
REM
REM
REM ./C.cell (28575a23ae977d3b5fae324c64b13b57)
REM
REM compiler GCC version 9.2.1 20190827 (Red Hat 9.2.1-1)
REM options -cpp -mtune=generic -march=x86-64 -g -O0 -fpre-include=/usr/include/finclude/math-vector-fortran.h
REM seed 281711410 1730915457 1318542065 -1884857590 -1903804588 368172588 -484539651 491717525 -1169274457 -808615658 -375528 -811495558 2121522873 -820390086 1361124422 314419849 481252320 -685990612 1298297709 -1034744531 -652945685 1260942889 325740369 1018899536 -2125680932 -1367037289 593663179 -1744342896 1619253002 1110422079 -1872688364 -2081035550 1669267671
REM
CELL 1.54180   50.00000   50.00000   50.00000   90.00000   90.00000   90.00000
LATT -1
SFAC C  
C      1  0.5692620000000  0.5023030000000  0.4769990000000 1.0
C      1  0.4302470000000  0.5002610000000  0.4999250000000 1.0
C      1  0.4970170000000  0.5194590000000  0.4312060000000 1.0
C      1  0.5698870000000  0.4683520000000  0.5163900000000 1.0
C      1  0.5161760000000  0.4686510000000  0.4315470000000 1.0
C      1  0.5216250000000  0.5136870000000  0.5036770000000 1.0
C      1  0.5172200000000  0.5593960000000  0.5227280000000 1.0
C      1  0.5431600000000  0.5051250000000  0.4564220000000 1.0
C      1  0.5441050000000  0.5430350000000  0.5403250000000 1.0
C      1  0.5530730000000  0.5423170000000  0.5091550000000 1.0
C      1  0.4616460000000  0.5061050000000  0.5721060000000 1.0
C      1  0.5038860000000  0.4808530000000  0.5227800000000 1.0
C      1  0.4753800000000  0.5533740000000  0.5405030000000 1.0
C      1  0.4854490000000  0.4310520000000  0.5196270000000 1.0
C      1  0.4616740000000  0.5006100000000  0.4941640000000 1.0
C      1  0.4906640000000  0.5019930000000  0.5777500000000 1.0
C      1  0.4379750000000  0.4775900000000  0.4562910000000 1.0
C      1  0.4785590000000  0.4518990000000  0.5395780000000 1.0
C      1  0.4803420000000  0.4603580000000  0.4762230000000 1.0
C      1  0.5299210000000  0.4516980000000  0.5076150000000 1.0
C      1  0.5006020000000  0.4553680000000  0.5603430000000 1.0
C      1  0.4597820000000  0.5569940000000  0.4569380000000 1.0
C      1  0.5083950000000  0.4327370000000  0.5009170000000 1.0
C      1  0.5297220000000  0.5540300000000  0.4902140000000 1.0
C      1  0.4579570000000  0.5458270000000  0.5030910000000 1.0
C      1  0.4293280000000  0.5050070000000  0.4677680000000 1.0
C      1  0.4558250000000  0.5043720000000  0.5420930000000 1.0
C      1  0.4935210000000  0.5241010000000  0.5080370000000 1.0
C      1  0.5268380000000  0.5154540000000  0.5383030000000 1.0
C      1  0.4839380000000  0.4813050000000  0.4553000000000 1.0
C      1  0.5002500000000  0.5698820000000  0.4858720000000 1.0
C      1  0.5393190000000  0.4735940000000  0.4709190000000 1.0
C      1  0.5251070000000  0.5269260000000  0.4710750000000 1.0
C      1  0.4728230000000  0.5257820000000  0.4818350000000 1.0
C      1  0.4604910000000  0.4831510000000  0.4360840000000 1.0
C      1  0.4551350000000  0.4728300000000  0.5334590000000 1.0
C      1  0.4882680000000  0.5639010000000  0.4594820000000 1.0
C      1  0.4947700000000  0.5098890000000  0.4638710000000 1.0
C      1  0.4655940000000  0.5129650000000  0.4321650000000 1.0
C      1  0.5011980000000  0.4397250000000  0.4730890000000 1.0
C      1  0.5695760000000  0.4982870000000  0.5285370000000 1.0
C      1  0.5216910000000  0.4978730000000  0.4325000000000 1.0
C      1  0.4397730000000  0.5246670000000  0.5206670000000 1.0
C      1  0.5232210000000  0.4526100000000  0.4558760000000 1.0
C      1  0.4802480000000  0.4788280000000  0.5003880000000 1.0
C      1  0.4482980000000  0.4589930000000  0.4794800000000 1.0
C      1  0.5670750000000  0.5223780000000  0.5480890000000 1.0
C      1  0.5079790000000  0.5456050000000  0.4463910000000 1.0
C      1  0.5255470000000  0.4814500000000  0.4975750000000 1.0
C      1  0.5461710000000  0.4509380000000  0.5329130000000 1.0
C      1  0.4373590000000  0.4692290000000  0.5077820000000 1.0
C      1  0.5689770000000  0.4706070000000  0.4853310000000 1.0
C      1  0.4829340000000  0.5684900000000  0.5144000000000 1.0
C      1  0.5020990000000  0.5175580000000  0.5544690000000 1.0
C      1  0.5682770000000  0.5167000000000  0.5034150000000 1.0
C      1  0.4986400000000  0.4747600000000  0.5816280000000 1.0
C      1  0.5375530000000  0.4846420000000  0.5376180000000 1.0
C      1  0.4809370000000  0.5247060000000  0.5361560000000 1.0
C      1  0.4507910000000  0.5272520000000  0.4555550000000 1.0
C      1  0.5267240000000  0.4424650000000  0.5553650000000 1.0
END
