TITL C-3985254-1270-834 2.90662483768223e-05 125000 -325.224552337105 0 0 60 (C1) n - 1
REM
REM in /home/nfs/bkarasulu/CARBON/AIRSS/Generating-Clusters/TERSOFF/Higher-Symm/Only-C60
REM
REM
REM
REM
REM
REM ./C.cell (28575a23ae977d3b5fae324c64b13b57)
REM
REM compiler GCC version 9.2.1 20190827 (Red Hat 9.2.1-1)
REM options -cpp -mtune=generic -march=x86-64 -g -O0 -fpre-include=/usr/include/finclude/math-vector-fortran.h
REM seed -1589323431 1017022121 -807631935 -172646539 1186551297 1791347203 632904274 -219633083 -541980166 -2114235610 1129121340 -1034426481 868105190 867805247 1213443152 276992844 20522279 -1367766564 -1537292262 1375743646 470184958 -1124348530 740160356 392205441 -868778167 1335396746 -1662116684 -1782236495 -570294520 186863377 981329674 624671247 1025888339
REM
CELL 1.54180   50.00000   50.00000   50.00000   90.00000   90.00000   90.00000
LATT -1
SFAC C  
C      1  0.5702080000000  0.5616640000000  0.4851210000000 1.0
C      1  0.4291020000000  0.5698990000000  0.5142820000000 1.0
C      1  0.4291530000000  0.5704370000000  0.4858890000000 1.0
C      1  0.5705910000000  0.5608100000000  0.5136840000000 1.0
C      1  0.4884020000000  0.4942450000000  0.4114550000000 1.0
C      1  0.5161340000000  0.4921350000000  0.5948000000000 1.0
C      1  0.5163500000000  0.4923230000000  0.4066380000000 1.0
C      1  0.4882440000000  0.4938980000000  0.5890730000000 1.0
C      1  0.5534930000000  0.5134960000000  0.5373530000000 1.0
C      1  0.4395250000000  0.5204370000000  0.4611680000000 1.0
C      1  0.4394700000000  0.5193720000000  0.5381540000000 1.0
C      1  0.5532180000000  0.5135590000000  0.4635350000000 1.0
C      1  0.4587480000000  0.4493140000000  0.4837630000000 1.0
C      1  0.5381690000000  0.4364870000000  0.5136650000000 1.0
C      1  0.5428370000000  0.4475730000000  0.4833010000000 1.0
C      1  0.4597530000000  0.4473090000000  0.5162500000000 1.0
C      1  0.4471700000000  0.5538050000000  0.4710110000000 1.0
C      1  0.5504150000000  0.5465330000000  0.5285190000000 1.0
C      1  0.5502210000000  0.5473370000000  0.4700820000000 1.0
C      1  0.4471700000000  0.5528500000000  0.5286280000000 1.0
C      1  0.4317900000000  0.4996960000000  0.4836860000000 1.0
C      1  0.5593970000000  0.4918490000000  0.5179010000000 1.0
C      1  0.5635560000000  0.4962590000000  0.4865900000000 1.0
C      1  0.4330950000000  0.4981270000000  0.5159140000000 1.0
C      1  0.5118940000000  0.5211480000000  0.4383590000000 1.0
C      1  0.4842070000000  0.5270980000000  0.5636830000000 1.0
C      1  0.4844330000000  0.5282050000000  0.4358160000000 1.0
C      1  0.5118220000000  0.5208980000000  0.5611230000000 1.0
C      1  0.5226250000000  0.4585520000000  0.5591590000000 1.0
C      1  0.4899310000000  0.4562870000000  0.4434190000000 1.0
C      1  0.4927710000000  0.4577680000000  0.5548960000000 1.0
C      1  0.5198640000000  0.4554820000000  0.4398990000000 1.0
C      1  0.5165150000000  0.5445750000000  0.4827400000000 1.0
C      1  0.4802920000000  0.5448210000000  0.5165600000000 1.0
C      1  0.4802570000000  0.5454370000000  0.4829280000000 1.0
C      1  0.5165680000000  0.5440840000000  0.5163150000000 1.0
C      1  0.4808820000000  0.4929860000000  0.4684620000000 1.0
C      1  0.5089640000000  0.4924400000000  0.5179960000000 1.0
C      1  0.5090590000000  0.4934820000000  0.4819760000000 1.0
C      1  0.4811110000000  0.4918480000000  0.5310330000000 1.0
C      1  0.4721480000000  0.5204640000000  0.5375620000000 1.0
C      1  0.5219530000000  0.5166760000000  0.4661110000000 1.0
C      1  0.5219730000000  0.5161520000000  0.5333600000000 1.0
C      1  0.4721000000000  0.5214770000000  0.4617440000000 1.0
C      1  0.5348850000000  0.4377350000000  0.4574490000000 1.0
C      1  0.4807530000000  0.4391520000000  0.5353780000000 1.0
C      1  0.4770110000000  0.4388740000000  0.4633820000000 1.0
C      1  0.5392320000000  0.4395060000000  0.5446170000000 1.0
C      1  0.4467810000000  0.4964670000000  0.5608820000000 1.0
C      1  0.5557310000000  0.4962140000000  0.4379990000000 1.0
C      1  0.5551990000000  0.5000160000000  0.5643940000000 1.0
C      1  0.4466870000000  0.4970880000000  0.4388810000000 1.0
C      1  0.5344300000000  0.4709290000000  0.5171750000000 1.0
C      1  0.4580630000000  0.4806400000000  0.4837330000000 1.0
C      1  0.4587390000000  0.4789900000000  0.5157800000000 1.0
C      1  0.5375770000000  0.4771130000000  0.4852650000000 1.0
C      1  0.4758770000000  0.4832610000000  0.5640080000000 1.0
C      1  0.5334200000000  0.4796890000000  0.4260700000000 1.0
C      1  0.5345180000000  0.4815620000000  0.5753000000000 1.0
C      1  0.4755200000000  0.4834690000000  0.4360850000000 1.0
END
