TITL C-3985259-1859-340 0.000607172213360568 125000 -332.007471832628 0 0 60 (D2) n - 1
REM
REM in /home/nfs/bkarasulu/CARBON/AIRSS/Generating-Clusters/TERSOFF/Higher-Symm/Only-C60
REM
REM
REM
REM
REM
REM ./C.cell (28575a23ae977d3b5fae324c64b13b57)
REM
REM compiler GCC version 9.2.1 20190827 (Red Hat 9.2.1-1)
REM options -cpp -mtune=generic -march=x86-64 -g -O0 -fpre-include=/usr/include/finclude/math-vector-fortran.h
REM seed 287036270 -1471534049 -519271439 511890934 -742971871 -1787415546 -1926020127 -414286913 1745273435 437171697 -1988688088 -1327987522 -2082679066 -7708467 329433645 -1057289492 -1522248205 -671546178 1073349813 1173948680 -38447958 817305207 -1463809788 404289947 1246040707 -2105902861 -1979645687 -1905637448 -892723126 1383304388 -671061181 -1592700785 932095481
REM
CELL 1.54180   50.00000   50.00000   50.00000   90.00000   90.00000   90.00000
LATT -1
SFAC C  
C      1  0.5429620000000  0.5466530000000  0.5222630000000 1.0
C      1  0.4570390000000  0.4533490000000  0.5222640000000 1.0
C      1  0.5429600000000  0.4533510000000  0.4777350000000 1.0
C      1  0.4570390000000  0.5466520000000  0.4777360000000 1.0
C      1  0.5170270000000  0.4288210000000  0.5122100000000 1.0
C      1  0.4829730000000  0.5711780000000  0.5122100000000 1.0
C      1  0.5170270000000  0.5711780000000  0.4877890000000 1.0
C      1  0.4829730000000  0.4288210000000  0.4877900000000 1.0
C      1  0.5077470000000  0.5129860000000  0.5617000000000 1.0
C      1  0.4922530000000  0.4870110000000  0.5617020000000 1.0
C      1  0.5077460000000  0.4870100000000  0.4382960000000 1.0
C      1  0.4922540000000  0.5129870000000  0.4382990000000 1.0
C      1  0.5357490000000  0.4901350000000  0.5270400000000 1.0
C      1  0.4642490000000  0.5098630000000  0.5270330000000 1.0
C      1  0.5357510000000  0.5098670000000  0.4729690000000 1.0
C      1  0.4642800000000  0.4901240000000  0.4729680000000 1.0
C      1  0.4465380000000  0.4711120000000  0.5455790000000 1.0
C      1  0.5534610000000  0.5288880000000  0.5455770000000 1.0
C      1  0.4465390000000  0.5288880000000  0.4544220000000 1.0
C      1  0.5534620000000  0.4711130000000  0.4544200000000 1.0
C      1  0.4379410000000  0.4908880000000  0.4884060000000 1.0
C      1  0.5620580000000  0.5091130000000  0.4884060000000 1.0
C      1  0.4379410000000  0.5091120000000  0.5115930000000 1.0
C      1  0.5620600000000  0.4908890000000  0.5115960000000 1.0
C      1  0.4923220000000  0.4800010000000  0.4855140000000 1.0
C      1  0.5076790000000  0.5200060000000  0.4855170000000 1.0
C      1  0.4923180000000  0.5200040000000  0.5144860000000 1.0
C      1  0.5076800000000  0.4800020000000  0.5144880000000 1.0
C      1  0.4614570000000  0.5569430000000  0.5261730000000 1.0
C      1  0.5385430000000  0.4430570000000  0.5261720000000 1.0
C      1  0.4614570000000  0.4430570000000  0.4738280000000 1.0
C      1  0.5385430000000  0.5569430000000  0.4738260000000 1.0
C      1  0.4272340000000  0.4914910000000  0.5344880000000 1.0
C      1  0.5727700000000  0.5085130000000  0.5344880000000 1.0
C      1  0.4272060000000  0.5085250000000  0.4655060000000 1.0
C      1  0.5727630000000  0.4914930000000  0.4655130000000 1.0
C      1  0.4711230000000  0.4561830000000  0.4492360000000 1.0
C      1  0.5288790000000  0.5438140000000  0.4492370000000 1.0
C      1  0.4711220000000  0.5438170000000  0.5507660000000 1.0
C      1  0.5288770000000  0.4561830000000  0.5507630000000 1.0
C      1  0.4555990000000  0.4819170000000  0.4419630000000 1.0
C      1  0.5443980000000  0.5180770000000  0.4419690000000 1.0
C      1  0.4555990000000  0.5180800000000  0.5580350000000 1.0
C      1  0.5444030000000  0.4819130000000  0.5580410000000 1.0
C      1  0.5169880000000  0.4324850000000  0.4790900000000 1.0
C      1  0.4830120000000  0.5675150000000  0.4790900000000 1.0
C      1  0.5169890000000  0.5675160000000  0.5209090000000 1.0
C      1  0.4830120000000  0.4324840000000  0.5209100000000 1.0
C      1  0.4457010000000  0.4593260000000  0.4946200000000 1.0
C      1  0.5542990000000  0.5406730000000  0.4946180000000 1.0
C      1  0.4457010000000  0.5406740000000  0.5053810000000 1.0
C      1  0.5542970000000  0.4593270000000  0.5053790000000 1.0
C      1  0.4636620000000  0.4889440000000  0.5634820000000 1.0
C      1  0.5363370000000  0.5110510000000  0.5634730000000 1.0
C      1  0.4636630000000  0.5110530000000  0.4365220000000 1.0
C      1  0.5363380000000  0.4889420000000  0.4365130000000 1.0
C      1  0.4978140000000  0.4673040000000  0.4570850000000 1.0
C      1  0.5021870000000  0.5326960000000  0.4570850000000 1.0
C      1  0.4978130000000  0.5326960000000  0.5429140000000 1.0
C      1  0.5021860000000  0.4673040000000  0.5429150000000 1.0
END
