TITL C-3985254-1270-471 0.00193111429432643 125000 -323.687879896473 0 0 60 (S4) n - 1
REM
REM in /home/nfs/bkarasulu/CARBON/AIRSS/Generating-Clusters/TERSOFF/Higher-Symm/Only-C60
REM
REM
REM
REM
REM
REM ./C.cell (28575a23ae977d3b5fae324c64b13b57)
REM
REM compiler GCC version 9.2.1 20190827 (Red Hat 9.2.1-1)
REM options -cpp -mtune=generic -march=x86-64 -g -O0 -fpre-include=/usr/include/finclude/math-vector-fortran.h
REM seed 1316520128 -820644755 1897065299 -730536475 -1242795381 -2034662621 169272648 -261497631 2096573154 -278031891 -1313809062 981367869 151573962 -1722163972 903206008 -1880953569 -1151935091 1010183671 -1804008957 -1708179778 -455901432 -1265244450 -2101074651 1109994621 1687040241 -1093478974 -1492997333 -804852316 441192621 594657313 -234811986 -1411283354 336576039
REM
CELL 1.54180   50.00000   50.00000   50.00000   90.00000   90.00000   90.00000
LATT -1
SFAC C  
C      1  0.5566390000000  0.4901440000000  0.4895880000000 1.0
C      1  0.4433620000000  0.5104130000000  0.4901440000000 1.0
C      1  0.5566380000000  0.5098560000000  0.5104120000000 1.0
C      1  0.4433620000000  0.4895880000000  0.5098560000000 1.0
C      1  0.4878100000000  0.4698750000000  0.5209730000000 1.0
C      1  0.5121910000000  0.4790270000000  0.4698800000000 1.0
C      1  0.4878130000000  0.5301220000000  0.4790280000000 1.0
C      1  0.5121900000000  0.5209730000000  0.5301250000000 1.0
C      1  0.4724310000000  0.4452330000000  0.5050440000000 1.0
C      1  0.5275690000000  0.4949560000000  0.4452330000000 1.0
C      1  0.4724300000000  0.5547670000000  0.4949570000000 1.0
C      1  0.5275690000000  0.5050440000000  0.5547670000000 1.0
C      1  0.4787500000000  0.5503130000000  0.4386330000000 1.0
C      1  0.5212500000000  0.5613670000000  0.5503130000000 1.0
C      1  0.4787500000000  0.4496870000000  0.5613670000000 1.0
C      1  0.5212500000000  0.4386330000000  0.4496870000000 1.0
C      1  0.5232930000000  0.4300630000000  0.5052380000000 1.0
C      1  0.4767050000000  0.4947630000000  0.4300640000000 1.0
C      1  0.5232940000000  0.5699350000000  0.4947630000000 1.0
C      1  0.4767060000000  0.5052370000000  0.5699350000000 1.0
C      1  0.5276150000000  0.5238110000000  0.4346020000000 1.0
C      1  0.4723850000000  0.5653980000000  0.5238110000000 1.0
C      1  0.5276140000000  0.4761890000000  0.5653980000000 1.0
C      1  0.4723860000000  0.4346020000000  0.4761890000000 1.0
C      1  0.5410510000000  0.5326820000000  0.5019670000000 1.0
C      1  0.4589490000000  0.4980330000000  0.5326820000000 1.0
C      1  0.5410520000000  0.4673210000000  0.4980320000000 1.0
C      1  0.4589440000000  0.5019620000000  0.4673170000000 1.0
C      1  0.5537570000000  0.5019810000000  0.4626970000000 1.0
C      1  0.4462430000000  0.5373030000000  0.5019810000000 1.0
C      1  0.5537570000000  0.4980190000000  0.5373030000000 1.0
C      1  0.4462430000000  0.4626970000000  0.4980190000000 1.0
C      1  0.5640810000000  0.4700030000000  0.5394180000000 1.0
C      1  0.4359190000000  0.4605820000000  0.4700030000000 1.0
C      1  0.5640810000000  0.5299980000000  0.4605820000000 1.0
C      1  0.4359190000000  0.5394180000000  0.5299980000000 1.0
C      1  0.5255390000000  0.4491300000000  0.4776620000000 1.0
C      1  0.4744610000000  0.5223380000000  0.4491300000000 1.0
C      1  0.5255390000000  0.5508700000000  0.5223370000000 1.0
C      1  0.4744610000000  0.4776620000000  0.5508700000000 1.0
C      1  0.4739960000000  0.4527440000000  0.4527090000000 1.0
C      1  0.5260040000000  0.5472900000000  0.4527440000000 1.0
C      1  0.4739960000000  0.5472560000000  0.5472910000000 1.0
C      1  0.5260040000000  0.4527090000000  0.5472560000000 1.0
C      1  0.5007270000000  0.5648620000000  0.4512320000000 1.0
C      1  0.4992730000000  0.5487680000000  0.5648620000000 1.0
C      1  0.5007270000000  0.4351380000000  0.5487680000000 1.0
C      1  0.4992730000000  0.4512320000000  0.4351380000000 1.0
C      1  0.4823160000000  0.4781350000000  0.4697460000000 1.0
C      1  0.5176830000000  0.5302540000000  0.4781350000000 1.0
C      1  0.4823180000000  0.5218650000000  0.5302540000000 1.0
C      1  0.5176820000000  0.4697470000000  0.5218650000000 1.0
C      1  0.5031580000000  0.4804400000000  0.4289010000000 1.0
C      1  0.4968420000000  0.5711020000000  0.4804400000000 1.0
C      1  0.5031600000000  0.5195600000000  0.5710950000000 1.0
C      1  0.4968400000000  0.4289060000000  0.5195600000000 1.0
C      1  0.4492280000000  0.5242540000000  0.5558710000000 1.0
C      1  0.5507730000000  0.4441280000000  0.5242540000000 1.0
C      1  0.4492290000000  0.4757460000000  0.4441300000000 1.0
C      1  0.5507720000000  0.5558710000000  0.4757460000000 1.0
END
