TITL C-3985256-5419-54 4.55068049950324e-05 125000 -336.013594525171 0 0 60 (C5) n - 1
REM
REM in /home/nfs/bkarasulu/CARBON/AIRSS/Generating-Clusters/TERSOFF/Higher-Symm/Only-C60
REM
REM
REM
REM
REM
REM ./C.cell (28575a23ae977d3b5fae324c64b13b57)
REM
REM compiler GCC version 9.2.1 20190827 (Red Hat 9.2.1-1)
REM options -cpp -mtune=generic -march=x86-64 -g -O0 -fpre-include=/usr/include/finclude/math-vector-fortran.h
REM seed -1180079092 921903368 1848048509 61696839 -204853058 754522320 -367053564 -976359876 -2076564412 -1307325164 686312336 -1382481937 437192490 -1685643094 1793591628 -1656485306 587792154 -708611942 -996221324 -295968648 1577324048 770080343 574730473 1487257148 -2127714957 -1664042604 -772015465 -313452434 -1727843334 999677938 1601832981 -742693621 1764198362
REM
CELL 1.54180   50.00000   50.00000   50.00000   90.00000   90.00000   90.00000
LATT -1
SFAC C  
C      1  0.5028330000000  0.4686230000000  0.5558170000000 1.0
C      1  0.5028270000000  0.4372280000000  0.4874060000000 1.0
C      1  0.5028280000000  0.4925840000000  0.4364060000000 1.0
C      1  0.5028350000000  0.5581990000000  0.4732910000000 1.0
C      1  0.5028380000000  0.5433930000000  0.5470960000000 1.0
C      1  0.5254100000000  0.4311280000000  0.5280260000000 1.0
C      1  0.5254040000000  0.4520650000000  0.4431570000000 1.0
C      1  0.5254100000000  0.5392500000000  0.4368430000000 1.0
C      1  0.5254180000000  0.5721970000000  0.5178100000000 1.0
C      1  0.5254180000000  0.5053740000000  0.5741640000000 1.0
C      1  0.4965740000000  0.5665690000000  0.5016190000000 1.0
C      1  0.4965760000000  0.5190360000000  0.5638100000000 1.0
C      1  0.4965710000000  0.4452030000000  0.5378170000000 1.0
C      1  0.4965650000000  0.4471090000000  0.4595690000000 1.0
C      1  0.4965670000000  0.5221120000000  0.4371990000000 1.0
C      1  0.5236050000000  0.5252640000000  0.5071860000000 1.0
C      1  0.5236050000000  0.5009770000000  0.5262450000000 1.0
C      1  0.5236020000000  0.4753460000000  0.5090370000000 1.0
C      1  0.5236000000000  0.4837910000000  0.4793430000000 1.0
C      1  0.5236020000000  0.5146420000000  0.4781990000000 1.0
C      1  0.4463000000000  0.4689540000000  0.4546630000000 1.0
C      1  0.4463020000000  0.5335100000000  0.4564780000000 1.0
C      1  0.4463180000000  0.5517250000000  0.5184340000000 1.0
C      1  0.4463270000000  0.4984370000000  0.5549000000000 1.0
C      1  0.4463160000000  0.4472860000000  0.5154960000000 1.0
C      1  0.5540600000000  0.4726840000000  0.5462890000000 1.0
C      1  0.5540540000000  0.4475360000000  0.4883230000000 1.0
C      1  0.5540540000000  0.4948920000000  0.4464930000000 1.0
C      1  0.5540610000000  0.5493090000000  0.4786050000000 1.0
C      1  0.5540640000000  0.5355850000000  0.5402830000000 1.0
C      1  0.5461960000000  0.5061010000000  0.5478090000000 1.0
C      1  0.5461900000000  0.4564170000000  0.5205730000000 1.0
C      1  0.5461860000000  0.4669670000000  0.4649060000000 1.0
C      1  0.5461890000000  0.5231690000000  0.4577360000000 1.0
C      1  0.5461960000000  0.5473560000000  0.5089720000000 1.0
C      1  0.5301390000000  0.5619070000000  0.4601250000000 1.0
C      1  0.5301440000000  0.5570560000000  0.5465520000000 1.0
C      1  0.5301390000000  0.4733600000000  0.5686450000000 1.0
C      1  0.5301300000000  0.4264850000000  0.4958730000000 1.0
C      1  0.5301300000000  0.4812100000000  0.4288050000000 1.0
C      1  0.4658080000000  0.5169490000000  0.5694590000000 1.0
C      1  0.4658110000000  0.4391640000000  0.5375890000000 1.0
C      1  0.4658100000000  0.4454440000000  0.4537510000000 1.0
C      1  0.4658070000000  0.5271210000000  0.4338300000000 1.0
C      1  0.4658050000000  0.5712980000000  0.5053430000000 1.0
C      1  0.4980340000000  0.4958830000000  0.5436150000000 1.0
C      1  0.4980280000000  0.4572570000000  0.5095590000000 1.0
C      1  0.4980250000000  0.4777080000000  0.4623000000000 1.0
C      1  0.4980290000000  0.5289750000000  0.4671440000000 1.0
C      1  0.4980350000000  0.5402100000000  0.5174020000000 1.0
C      1  0.4346050000000  0.4847040000000  0.4782680000000 1.0
C      1  0.4346070000000  0.5159250000000  0.4787520000000 1.0
C      1  0.4346080000000  0.5251120000000  0.5085930000000 1.0
C      1  0.4346080000000  0.4995710000000  0.5265530000000 1.0
C      1  0.4346060000000  0.4745970000000  0.5078120000000 1.0
C      1  0.4764410000000  0.4972540000000  0.5245820000000 1.0
C      1  0.4764370000000  0.4757860000000  0.5049800000000 1.0
C      1  0.4764340000000  0.4877930000000  0.4785050000000 1.0
C      1  0.4764370000000  0.5166840000000  0.4817430000000 1.0
C      1  0.4764410000000  0.5225320000000  0.5102210000000 1.0
END
