TITL C-3985249-2594-3 -2.24784996164441e-08 125000 -202.300291881191 0 0 60 (Th) n - 1
REM
REM in /home/nfs/bkarasulu/CARBON/AIRSS/Generating-Clusters/TERSOFF/Higher-Symm/Only-C60
REM
REM
REM
REM
REM
REM ./C.cell (28575a23ae977d3b5fae324c64b13b57)
REM
REM compiler GCC version 9.2.1 20190827 (Red Hat 9.2.1-1)
REM options -cpp -mtune=generic -march=x86-64 -g -O0 -fpre-include=/usr/include/finclude/math-vector-fortran.h
REM seed 1970680666 -31336539 1339193625 729120367 1214376042 961480968 930459113 1378101975 154331247 -2121545146 2122235745 2103927581 2078208297 -1940525664 520387717 -1852766619 -677828640 -1328161760 1223806406 -1945820500 1972552693 -857728701 516027281 -335193994 -19636434 986172455 111490616 -1395618629 -417416221 14782704 1296628865 1272504202 -971501352
REM
CELL 1.54180   50.00000   50.00000   50.00000   90.00000   90.00000   90.00000
LATT -1
SFAC C  
C      1  0.5440650000000  0.5171680000000  0.4336810000000 1.0
C      1  0.5171680000000  0.4336810000000  0.5440650000000 1.0
C      1  0.4336810000000  0.5440650000000  0.5171680000000 1.0
C      1  0.5440650000000  0.4828320000000  0.5663190000000 1.0
C      1  0.4559350000000  0.5171680000000  0.5663190000000 1.0
C      1  0.4559350000000  0.4828320000000  0.4336810000000 1.0
C      1  0.5171680000000  0.5663190000000  0.4559350000000 1.0
C      1  0.4828320000000  0.4336810000000  0.4559350000000 1.0
C      1  0.4828320000000  0.5663190000000  0.5440650000000 1.0
C      1  0.4336810000000  0.4559350000000  0.4828320000000 1.0
C      1  0.5663190000000  0.5440650000000  0.4828320000000 1.0
C      1  0.5663190000000  0.4559350000000  0.5171680000000 1.0
C      1  0.4559350000000  0.5171680000000  0.4336810000000 1.0
C      1  0.4828320000000  0.4336810000000  0.5440650000000 1.0
C      1  0.5663190000000  0.5440650000000  0.5171680000000 1.0
C      1  0.4559350000000  0.4828320000000  0.5663190000000 1.0
C      1  0.5440650000000  0.5171680000000  0.5663190000000 1.0
C      1  0.5440650000000  0.4828320000000  0.4336810000000 1.0
C      1  0.4828320000000  0.5663190000000  0.4559350000000 1.0
C      1  0.5171680000000  0.4336810000000  0.4559350000000 1.0
C      1  0.5171680000000  0.5663190000000  0.5440650000000 1.0
C      1  0.5663190000000  0.4559350000000  0.4828320000000 1.0
C      1  0.4336810000000  0.5440650000000  0.4828320000000 1.0
C      1  0.4336810000000  0.4559350000000  0.5171680000000 1.0
C      1  0.4556720000000  0.4815680000000  0.4819910000000 1.0
C      1  0.4815680000000  0.4819910000000  0.4556720000000 1.0
C      1  0.4819910000000  0.4556720000000  0.4815680000000 1.0
C      1  0.4556720000000  0.5184320000000  0.5180090000000 1.0
C      1  0.5443280000000  0.4815680000000  0.5180090000000 1.0
C      1  0.5443280000000  0.5184320000000  0.4819910000000 1.0
C      1  0.4815680000000  0.5180090000000  0.5443280000000 1.0
C      1  0.5184320000000  0.4819910000000  0.5443280000000 1.0
C      1  0.5184320000000  0.5180090000000  0.4556720000000 1.0
C      1  0.4819910000000  0.5443280000000  0.5184320000000 1.0
C      1  0.5180090000000  0.4556720000000  0.5184320000000 1.0
C      1  0.5180090000000  0.5443280000000  0.4815680000000 1.0
C      1  0.5443280000000  0.4815680000000  0.4819910000000 1.0
C      1  0.5184320000000  0.4819910000000  0.4556720000000 1.0
C      1  0.5180090000000  0.4556720000000  0.4815680000000 1.0
C      1  0.5443280000000  0.5184320000000  0.5180090000000 1.0
C      1  0.4556720000000  0.4815680000000  0.5180090000000 1.0
C      1  0.4556720000000  0.5184320000000  0.4819910000000 1.0
C      1  0.5184320000000  0.5180090000000  0.5443280000000 1.0
C      1  0.4815680000000  0.4819910000000  0.5443280000000 1.0
C      1  0.4815680000000  0.5180090000000  0.4556720000000 1.0
C      1  0.5180090000000  0.5443280000000  0.5184320000000 1.0
C      1  0.4819910000000  0.4556720000000  0.5184320000000 1.0
C      1  0.4819910000000  0.5443280000000  0.4815680000000 1.0
C      1  0.5000000000000  0.5420880000000  0.4358690000000 1.0
C      1  0.5000000000000  0.4579120000000  0.5641310000000 1.0
C      1  0.5420880000000  0.4358690000000  0.5000000000000 1.0
C      1  0.4579120000000  0.5641310000000  0.5000000000000 1.0
C      1  0.5641310000000  0.5000000000000  0.5420880000000 1.0
C      1  0.5641310000000  0.5000000000000  0.4579120000000 1.0
C      1  0.4358690000000  0.5000000000000  0.4579120000000 1.0
C      1  0.4358690000000  0.5000000000000  0.5420880000000 1.0
C      1  0.5000000000000  0.4579120000000  0.4358690000000 1.0
C      1  0.5000000000000  0.5420880000000  0.5641310000000 1.0
C      1  0.5420880000000  0.5641310000000  0.5000000000000 1.0
C      1  0.4579120000000  0.4358690000000  0.5000000000000 1.0
END
