TITL C-3985259-1859-409 -0.000674228025081716 125000 -320.085115748775 0 0 60 (C1) n - 1
REM
REM in /home/nfs/bkarasulu/CARBON/AIRSS/Generating-Clusters/TERSOFF/Higher-Symm/Only-C60
REM
REM
REM
REM
REM
REM ./C.cell (28575a23ae977d3b5fae324c64b13b57)
REM
REM compiler GCC version 9.2.1 20190827 (Red Hat 9.2.1-1)
REM options -cpp -mtune=generic -march=x86-64 -g -O0 -fpre-include=/usr/include/finclude/math-vector-fortran.h
REM seed -590751471 180794151 -1892106562 -11437336 1446938227 -1084690403 -379481454 -107934635 -1003102382 1918827394 2078902586 530441067 -1754376372 23339222 -1089245783 80790400 -1455762254 -747425587 322926086 -389139960 -1192296264 1097381429 1381178664 -743644389 -255064567 104464812 2053698830 -150322229 1914502305 -1723032829 2125462393 -1848961099 -46396701
REM
CELL 1.54180   50.00000   50.00000   50.00000   90.00000   90.00000   90.00000
LATT -1
SFAC C  
C      1  0.5123450000000  0.5233160000000  0.5030460000000 1.0
C      1  0.4557220000000  0.5307760000000  0.4549650000000 1.0
C      1  0.5069820000000  0.4894820000000  0.4217840000000 1.0
C      1  0.4777590000000  0.4811540000000  0.5083840000000 1.0
C      1  0.4470070000000  0.4827420000000  0.5466440000000 1.0
C      1  0.4712150000000  0.4412400000000  0.4747190000000 1.0
C      1  0.5030220000000  0.5395030000000  0.4330860000000 1.0
C      1  0.4697140000000  0.5220460000000  0.5647150000000 1.0
C      1  0.4538640000000  0.4643890000000  0.5219060000000 1.0
C      1  0.5565630000000  0.5127590000000  0.5323920000000 1.0
C      1  0.5241560000000  0.4936370000000  0.5137700000000 1.0
C      1  0.5208780000000  0.5623520000000  0.5352560000000 1.0
C      1  0.4751530000000  0.4964790000000  0.4806140000000 1.0
C      1  0.5305400000000  0.5512140000000  0.5077980000000 1.0
C      1  0.4383180000000  0.5199650000000  0.4989390000000 1.0
C      1  0.4894230000000  0.5602970000000  0.5319420000000 1.0
C      1  0.5501710000000  0.4775560000000  0.4544640000000 1.0
C      1  0.4361510000000  0.4786120000000  0.4723070000000 1.0
C      1  0.5577420000000  0.5346760000000  0.5129860000000 1.0
C      1  0.5542670000000  0.4954020000000  0.4846030000000 1.0
C      1  0.5237090000000  0.4370640000000  0.4667660000000 1.0
C      1  0.4744340000000  0.5259060000000  0.4320190000000 1.0
C      1  0.5523170000000  0.4717690000000  0.5488240000000 1.0
C      1  0.5228960000000  0.5151960000000  0.4219020000000 1.0
C      1  0.5014570000000  0.4589420000000  0.4682370000000 1.0
C      1  0.4467880000000  0.5069520000000  0.4736590000000 1.0
C      1  0.4276840000000  0.5057520000000  0.5426820000000 1.0
C      1  0.5255070000000  0.5433130000000  0.5612850000000 1.0
C      1  0.4713180000000  0.4914060000000  0.5642930000000 1.0
C      1  0.5429050000000  0.5510950000000  0.4731610000000 1.0
C      1  0.4786950000000  0.4979330000000  0.4228620000000 1.0
C      1  0.4820620000000  0.4170310000000  0.4891400000000 1.0
C      1  0.5006920000000  0.4773310000000  0.5594290000000 1.0
C      1  0.5186800000000  0.4890330000000  0.4796960000000 1.0
C      1  0.5438120000000  0.4556460000000  0.5065900000000 1.0
C      1  0.5652640000000  0.5253260000000  0.4851440000000 1.0
C      1  0.5163350000000  0.4443980000000  0.5193100000000 1.0
C      1  0.4476710000000  0.5293020000000  0.5457770000000 1.0
C      1  0.4490900000000  0.4574670000000  0.4884130000000 1.0
C      1  0.5555580000000  0.4826180000000  0.5185210000000 1.0
C      1  0.5018940000000  0.5166240000000  0.4731770000000 1.0
C      1  0.4981310000000  0.4511770000000  0.5441300000000 1.0
C      1  0.5125590000000  0.5627350000000  0.4563740000000 1.0
C      1  0.5064480000000  0.5052530000000  0.5423990000000 1.0
C      1  0.5373460000000  0.5149820000000  0.5552380000000 1.0
C      1  0.4976900000000  0.4600640000000  0.5011500000000 1.0
C      1  0.5066330000000  0.5645990000000  0.4893730000000 1.0
C      1  0.4606740000000  0.5313780000000  0.5166270000000 1.0
C      1  0.4170190000000  0.5083550000000  0.5153280000000 1.0
C      1  0.4760010000000  0.5570450000000  0.5020020000000 1.0
C      1  0.5053770000000  0.4180220000000  0.5072260000000 1.0
C      1  0.4943330000000  0.5355800000000  0.5537130000000 1.0
C      1  0.4704120000000  0.4442350000000  0.5372080000000 1.0
C      1  0.5303150000000  0.5252230000000  0.4619730000000 1.0
C      1  0.5448300000000  0.5083050000000  0.4426190000000 1.0
C      1  0.4780510000000  0.5378690000000  0.4742590000000 1.0
C      1  0.5189990000000  0.4706580000000  0.4420080000000 1.0
C      1  0.5477440000000  0.4509650000000  0.4766620000000 1.0
C      1  0.4851510000000  0.5112180000000  0.5186190000000 1.0
C      1  0.5325230000000  0.4846330000000  0.5678870000000 1.0
END
