TITL C-3985245-9316-1111 2.56572267882315e-08 125000 -297.485196121715 0 0 60 (Td) n - 1
REM
REM in /home/nfs/bkarasulu/CARBON/AIRSS/Generating-Clusters/TERSOFF/Higher-Symm/Only-C60
REM
REM
REM
REM
REM
REM ./C.cell (28575a23ae977d3b5fae324c64b13b57)
REM
REM compiler GCC version 9.2.1 20190827 (Red Hat 9.2.1-1)
REM options -cpp -mtune=generic -march=x86-64 -g -O0 -fpre-include=/usr/include/finclude/math-vector-fortran.h
REM seed -1692405123 -1866971285 -147061226 1998166099 -985903444 312597654 400753161 -1915413151 -1056927115 1309530894 -984134069 -1764235986 1475238319 -2057671200 -1807642192 1049772265 -253375192 -134571367 -1114463105 1654354699 -1611029229 -1540964966 -1202389836 -741020683 1053117643 482923629 1137936322 -1789042831 -1193257406 -529908569 289235465 1031721838 150230946
REM
CELL 1.54180   50.00000   50.00000   50.00000   90.00000   90.00000   90.00000
LATT -1
SFAC C  
C      1  0.5102780000000  0.5598230000000  0.5358230000000 1.0
C      1  0.5598230000000  0.5358230000000  0.5102780000000 1.0
C      1  0.5358230000000  0.5102780000000  0.5598230000000 1.0
C      1  0.5102780000000  0.4401770000000  0.4641770000000 1.0
C      1  0.4897220000000  0.5598230000000  0.4641770000000 1.0
C      1  0.4897220000000  0.4401770000000  0.5358230000000 1.0
C      1  0.5598230000000  0.4641770000000  0.4897220000000 1.0
C      1  0.4401770000000  0.5358230000000  0.4897220000000 1.0
C      1  0.4401770000000  0.4641770000000  0.5102780000000 1.0
C      1  0.5358230000000  0.4897220000000  0.4401770000000 1.0
C      1  0.4641770000000  0.5102780000000  0.4401770000000 1.0
C      1  0.4641770000000  0.4897220000000  0.5598230000000 1.0
C      1  0.5102780000000  0.5358230000000  0.5598230000000 1.0
C      1  0.5598230000000  0.5102780000000  0.5358230000000 1.0
C      1  0.5358230000000  0.5598230000000  0.5102780000000 1.0
C      1  0.5102780000000  0.4641770000000  0.4401770000000 1.0
C      1  0.4897220000000  0.4641770000000  0.5598230000000 1.0
C      1  0.4897220000000  0.5358230000000  0.4401770000000 1.0
C      1  0.5598230000000  0.4897220000000  0.4641770000000 1.0
C      1  0.4401770000000  0.4897220000000  0.5358230000000 1.0
C      1  0.4401770000000  0.5102780000000  0.4641770000000 1.0
C      1  0.5358230000000  0.4401770000000  0.4897220000000 1.0
C      1  0.4641770000000  0.4401770000000  0.5102780000000 1.0
C      1  0.4641770000000  0.5598230000000  0.4897220000000 1.0
C      1  0.4356890000000  0.5420470000000  0.5213130000000 1.0
C      1  0.5420470000000  0.5213130000000  0.4356890000000 1.0
C      1  0.5213130000000  0.4356890000000  0.5420470000000 1.0
C      1  0.4356890000000  0.4579530000000  0.4786870000000 1.0
C      1  0.5643110000000  0.5420470000000  0.4786870000000 1.0
C      1  0.5643110000000  0.4579530000000  0.5213130000000 1.0
C      1  0.5420470000000  0.4786870000000  0.5643110000000 1.0
C      1  0.4579530000000  0.5213130000000  0.5643110000000 1.0
C      1  0.4579530000000  0.4786870000000  0.4356890000000 1.0
C      1  0.5213130000000  0.5643110000000  0.4579530000000 1.0
C      1  0.4786870000000  0.4356890000000  0.4579530000000 1.0
C      1  0.4786870000000  0.5643110000000  0.5420470000000 1.0
C      1  0.4356890000000  0.5213130000000  0.5420470000000 1.0
C      1  0.5420470000000  0.4356890000000  0.5213130000000 1.0
C      1  0.5213130000000  0.5420470000000  0.4356890000000 1.0
C      1  0.4356890000000  0.4786870000000  0.4579530000000 1.0
C      1  0.5643110000000  0.4786870000000  0.5420470000000 1.0
C      1  0.5643110000000  0.5213130000000  0.4579530000000 1.0
C      1  0.5420470000000  0.5643110000000  0.4786870000000 1.0
C      1  0.4579530000000  0.5643110000000  0.5213130000000 1.0
C      1  0.4579530000000  0.4356890000000  0.4786870000000 1.0
C      1  0.5213130000000  0.4579530000000  0.5643110000000 1.0
C      1  0.4786870000000  0.4579530000000  0.4356890000000 1.0
C      1  0.4786870000000  0.5420470000000  0.5643110000000 1.0
C      1  0.4897720000000  0.5356200000000  0.4897720000000 1.0
C      1  0.5102280000000  0.4643800000000  0.4897720000000 1.0
C      1  0.4897720000000  0.5102280000000  0.4643800000000 1.0
C      1  0.4643800000000  0.4897720000000  0.5102280000000 1.0
C      1  0.4897720000000  0.4897720000000  0.5356200000000 1.0
C      1  0.5102280000000  0.5102280000000  0.5356200000000 1.0
C      1  0.5102280000000  0.4897720000000  0.4643800000000 1.0
C      1  0.5102280000000  0.5356200000000  0.5102280000000 1.0
C      1  0.4897720000000  0.4643800000000  0.5102280000000 1.0
C      1  0.4643800000000  0.5102280000000  0.4897720000000 1.0
C      1  0.5356200000000  0.4897720000000  0.4897720000000 1.0
C      1  0.5356200000000  0.5102280000000  0.5102280000000 1.0
END
