TITL C-3985247-764-565 -0.000158698223853949 125000 -322.145931282383 0 0 60 (C1) n - 1
REM
REM in /home/nfs/bkarasulu/CARBON/AIRSS/Generating-Clusters/TERSOFF/Higher-Symm/Only-C60
REM
REM
REM
REM
REM
REM ./C.cell (28575a23ae977d3b5fae324c64b13b57)
REM
REM compiler GCC version 9.2.1 20190827 (Red Hat 9.2.1-1)
REM options -cpp -mtune=generic -march=x86-64 -g -O0 -fpre-include=/usr/include/finclude/math-vector-fortran.h
REM seed 553909428 1357926791 -1565628308 -423622495 1970899165 359414353 -1213422968 -456937887 -1738361478 1581221173 -1289597353 -1237581440 184526980 33438642 1973816336 1336331087 -687453758 1932221691 1032098853 1516664201 -1485770568 -1835851341 -1849078675 -1482519514 -1858396073 1545579772 -1145853498 -698203853 1435815050 -1272679413 -2006450551 1070538173 -1927324178
REM
CELL 1.54180   50.00000   50.00000   50.00000   90.00000   90.00000   90.00000
LATT -1
SFAC C  
C      1  0.5712420000000  0.5313300000000  0.4850950000000 1.0
C      1  0.4923980000000  0.4247400000000  0.4824210000000 1.0
C      1  0.4369770000000  0.5446830000000  0.4850630000000 1.0
C      1  0.5193870000000  0.5539820000000  0.4740510000000 1.0
C      1  0.5404020000000  0.4546800000000  0.4758200000000 1.0
C      1  0.4411260000000  0.4870200000000  0.4760370000000 1.0
C      1  0.4489180000000  0.5385700000000  0.5408150000000 1.0
C      1  0.5590560000000  0.5252550000000  0.5404610000000 1.0
C      1  0.4923690000000  0.4361450000000  0.5410940000000 1.0
C      1  0.5121800000000  0.4691330000000  0.5702120000000 1.0
C      1  0.4675110000000  0.5051550000000  0.5701190000000 1.0
C      1  0.5209450000000  0.5262800000000  0.5698780000000 1.0
C      1  0.5308200000000  0.4808410000000  0.5502570000000 1.0
C      1  0.4679980000000  0.4828830000000  0.5504270000000 1.0
C      1  0.5013620000000  0.5367030000000  0.5500960000000 1.0
C      1  0.5415850000000  0.5093480000000  0.5587260000000 1.0
C      1  0.4872920000000  0.4594360000000  0.5591100000000 1.0
C      1  0.4715080000000  0.5315070000000  0.5589060000000 1.0
C      1  0.5115450000000  0.4808550000000  0.4391480000000 1.0
C      1  0.4672150000000  0.5087100000000  0.4461030000000 1.0
C      1  0.5176930000000  0.5160140000000  0.4395660000000 1.0
C      1  0.5116500000000  0.5153250000000  0.5228890000000 1.0
C      1  0.5070900000000  0.4818170000000  0.5229560000000 1.0
C      1  0.4803680000000  0.5026370000000  0.5227380000000 1.0
C      1  0.4549310000000  0.5483740000000  0.4602700000000 1.0
C      1  0.5625240000000  0.5154940000000  0.4618630000000 1.0
C      1  0.4862950000000  0.4417510000000  0.4591860000000 1.0
C      1  0.4610810000000  0.4628510000000  0.4571170000000 1.0
C      1  0.4877970000000  0.5518740000000  0.4560570000000 1.0
C      1  0.5582260000000  0.4825940000000  0.4603730000000 1.0
C      1  0.4341310000000  0.5145510000000  0.5269290000000 1.0
C      1  0.5457970000000  0.5497920000000  0.5262570000000 1.0
C      1  0.5200000000000  0.4355060000000  0.5266500000000 1.0
C      1  0.5147580000000  0.5083530000000  0.4728680000000 1.0
C      1  0.4968510000000  0.4813460000000  0.4727020000000 1.0
C      1  0.4819560000000  0.5107440000000  0.4724800000000 1.0
C      1  0.5544830000000  0.4969360000000  0.5023860000000 1.0
C      1  0.4694550000000  0.4530680000000  0.5032620000000 1.0
C      1  0.4749670000000  0.5490660000000  0.5023750000000 1.0
C      1  0.5729990000000  0.5085050000000  0.5213290000000 1.0
C      1  0.4704850000000  0.4316470000000  0.5226040000000 1.0
C      1  0.4563440000000  0.5594570000000  0.5219580000000 1.0
C      1  0.4967790000000  0.5354250000000  0.4330320000000 1.0
C      1  0.5419630000000  0.4794410000000  0.4357040000000 1.0
C      1  0.4679240000000  0.4820030000000  0.4353110000000 1.0
C      1  0.4974810000000  0.4640820000000  0.4974070000000 1.0
C      1  0.4692540000000  0.5195510000000  0.4974700000000 1.0
C      1  0.5309060000000  0.5160210000000  0.4969830000000 1.0
C      1  0.5162910000000  0.5565090000000  0.5293230000000 1.0
C      1  0.5407140000000  0.4577720000000  0.5300730000000 1.0
C      1  0.4428910000000  0.4854760000000  0.5305220000000 1.0
C      1  0.5159760000000  0.4385390000000  0.4963270000000 1.0
C      1  0.4383090000000  0.5166750000000  0.4966900000000 1.0
C      1  0.5459590000000  0.5438940000000  0.4963300000000 1.0
C      1  0.5024860000000  0.5578980000000  0.5024460000000 1.0
C      1  0.5494410000000  0.4686850000000  0.5034440000000 1.0
C      1  0.4474370000000  0.4718130000000  0.5039920000000 1.0
C      1  0.5149490000000  0.4508920000000  0.4504940000000 1.0
C      1  0.4395120000000  0.5163130000000  0.4542600000000 1.0
C      1  0.5400100000000  0.5340530000000  0.4515410000000 1.0
END
