TITL C-3985247-764-656 0.00467331989967459 125000 -313.799679971642 0 0 60 (C1) n - 1
REM
REM in /home/nfs/bkarasulu/CARBON/AIRSS/Generating-Clusters/TERSOFF/Higher-Symm/Only-C60
REM
REM
REM
REM
REM
REM ./C.cell (28575a23ae977d3b5fae324c64b13b57)
REM
REM compiler GCC version 9.2.1 20190827 (Red Hat 9.2.1-1)
REM options -cpp -mtune=generic -march=x86-64 -g -O0 -fpre-include=/usr/include/finclude/math-vector-fortran.h
REM seed 88540118 534930606 -1797605734 903156918 -194238983 -75444384 -183769725 1133529710 -1605036755 298274687 652473263 -361505337 -713021114 1686910018 -1051515427 -1639563767 -1449115776 -1739435841 -2011749274 -1927506029 974574404 -363302450 -1003127452 -544003276 -263232949 -739662696 -1091763523 1859428044 1881434325 1898343295 150412510 297910636 -1714283219
REM
CELL 1.54180   50.00000   50.00000   50.00000   90.00000   90.00000   90.00000
LATT -1
SFAC C  
C      1  0.5420410000000  0.4743020000000  0.5602590000000 1.0
C      1  0.4581080000000  0.5257030000000  0.4398490000000 1.0
C      1  0.5001170000000  0.5235790000000  0.4555800000000 1.0
C      1  0.4998600000000  0.4764900000000  0.5444920000000 1.0
C      1  0.5074490000000  0.5094990000000  0.5315550000000 1.0
C      1  0.4925040000000  0.4906030000000  0.4685000000000 1.0
C      1  0.4692910000000  0.4753810000000  0.5448230000000 1.0
C      1  0.5305100000000  0.5250460000000  0.4552770000000 1.0
C      1  0.5530460000000  0.5398660000000  0.4873400000000 1.0
C      1  0.4469490000000  0.4586630000000  0.5134750000000 1.0
C      1  0.5093370000000  0.4638050000000  0.4544470000000 1.0
C      1  0.4909980000000  0.5367200000000  0.5456870000000 1.0
C      1  0.4805310000000  0.4834840000000  0.4973910000000 1.0
C      1  0.5192530000000  0.5167830000000  0.5026790000000 1.0
C      1  0.4646090000000  0.4349510000000  0.4626330000000 1.0
C      1  0.5354920000000  0.5651550000000  0.5374810000000 1.0
C      1  0.4763950000000  0.4545930000000  0.5066340000000 1.0
C      1  0.5235010000000  0.5461510000000  0.4934760000000 1.0
C      1  0.5395330000000  0.4678600000000  0.4538560000000 1.0
C      1  0.4610290000000  0.5328830000000  0.5471100000000 1.0
C      1  0.5616910000000  0.5040600000000  0.5340680000000 1.0
C      1  0.4386520000000  0.4963230000000  0.4647500000000 1.0
C      1  0.5150860000000  0.4422920000000  0.4810300000000 1.0
C      1  0.4850200000000  0.5577660000000  0.5190440000000 1.0
C      1  0.5234260000000  0.4696450000000  0.5004560000000 1.0
C      1  0.4767580000000  0.5304700000000  0.4996430000000 1.0
C      1  0.4356650000000  0.5391680000000  0.5012530000000 1.0
C      1  0.5643050000000  0.4601440000000  0.4990430000000 1.0
C      1  0.5223590000000  0.4946510000000  0.4831630000000 1.0
C      1  0.4773580000000  0.5056240000000  0.5168880000000 1.0
C      1  0.5499820000000  0.4493100000000  0.4750710000000 1.0
C      1  0.4501730000000  0.5505020000000  0.5252090000000 1.0
C      1  0.5214420000000  0.4312820000000  0.5234430000000 1.0
C      1  0.4783220000000  0.5690620000000  0.4766310000000 1.0
C      1  0.5017270000000  0.5504210000000  0.4722770000000 1.0
C      1  0.4981410000000  0.4501220000000  0.5277280000000 1.0
C      1  0.5167410000000  0.5642530000000  0.5152630000000 1.0
C      1  0.4833000000000  0.4361600000000  0.4849520000000 1.0
C      1  0.4640850000000  0.4847830000000  0.4505770000000 1.0
C      1  0.5360960000000  0.5152360000000  0.5491430000000 1.0
C      1  0.5267990000000  0.4959040000000  0.4253610000000 1.0
C      1  0.4741710000000  0.5042590000000  0.5748690000000 1.0
C      1  0.4610990000000  0.5315590000000  0.4690010000000 1.0
C      1  0.5389230000000  0.4686340000000  0.5312530000000 1.0
C      1  0.5010160000000  0.5119200000000  0.4256140000000 1.0
C      1  0.4994850000000  0.4879310000000  0.5744920000000 1.0
C      1  0.4936030000000  0.4531630000000  0.4315700000000 1.0
C      1  0.5067150000000  0.5471070000000  0.5685410000000 1.0
C      1  0.4653850000000  0.4549840000000  0.4412410000000 1.0
C      1  0.5347760000000  0.5449910000000  0.5587150000000 1.0
C      1  0.5609190000000  0.5113670000000  0.4819290000000 1.0
C      1  0.4337780000000  0.4853270000000  0.5144990000000 1.0
C      1  0.5285750000000  0.4967280000000  0.5735300000000 1.0
C      1  0.4717840000000  0.5033160000000  0.4264580000000 1.0
C      1  0.4479410000000  0.5586130000000  0.4777750000000 1.0
C      1  0.5519070000000  0.4414300000000  0.5225440000000 1.0
C      1  0.5463610000000  0.4981250000000  0.4557260000000 1.0
C      1  0.4554850000000  0.5029320000000  0.5458710000000 1.0
C      1  0.5638040000000  0.4924190000000  0.5051390000000 1.0
C      1  0.4365910000000  0.5065000000000  0.4936930000000 1.0
END
