TITL C-3985245-9316-838 0.00124705223837483 125000 -282.721727488457 0 0 60 (Cs) n - 1
REM
REM in /home/nfs/bkarasulu/CARBON/AIRSS/Generating-Clusters/TERSOFF/Higher-Symm/Only-C60
REM
REM
REM
REM
REM
REM ./C.cell (28575a23ae977d3b5fae324c64b13b57)
REM
REM compiler GCC version 9.2.1 20190827 (Red Hat 9.2.1-1)
REM options -cpp -mtune=generic -march=x86-64 -g -O0 -fpre-include=/usr/include/finclude/math-vector-fortran.h
REM seed -2006695972 2071969429 1904900725 -1612777735 -2079546611 -476430406 1462581748 -37716706 1005420661 1783894516 1734880601 -1430638462 -41812338 1884585741 -710616295 -56711961 16887818 -1724989250 770665893 -1000373335 -1808697448 -421766638 -2075096256 -517773146 -1913819601 791719547 -1086798005 950746857 -1356272144 884324085 1343988640 1162620609 316471242
REM
CELL 1.54180   50.00000   50.00000   50.00000   90.00000   90.00000   90.00000
LATT -1
SFAC C  
C      1  0.5136690000000  0.4676570000000  0.4944240000000 1.0
C      1  0.4832400000000  0.5303610000000  0.4929090000000 1.0
C      1  0.5152490000000  0.5304590000000  0.4929340000000 1.0
C      1  0.4848900000000  0.4677410000000  0.4943140000000 1.0
C      1  0.5266470000000  0.5131830000000  0.5144230000000 1.0
C      1  0.4712110000000  0.4856020000000  0.5134760000000 1.0
C      1  0.5272610000000  0.4856760000000  0.5135830000000 1.0
C      1  0.4718570000000  0.5130800000000  0.5143260000000 1.0
C      1  0.4619440000000  0.5596260000000  0.5653470000000 1.0
C      1  0.5369350000000  0.4401480000000  0.5654500000000 1.0
C      1  0.4617040000000  0.4402480000000  0.5655410000000 1.0
C      1  0.5367830000000  0.5597260000000  0.5653450000000 1.0
C      1  0.4477410000000  0.5268750000000  0.5266080000000 1.0
C      1  0.5518770000000  0.4720850000000  0.5251830000000 1.0
C      1  0.4465990000000  0.4720050000000  0.5251120000000 1.0
C      1  0.5508590000000  0.5269180000000  0.5265440000000 1.0
C      1  0.4516350000000  0.5564360000000  0.4848080000000 1.0
C      1  0.5465660000000  0.4436740000000  0.4847080000000 1.0
C      1  0.4519960000000  0.4436940000000  0.4846950000000 1.0
C      1  0.5469010000000  0.5564630000000  0.4847910000000 1.0
C      1  0.4851720000000  0.4134940000000  0.5110920000000 1.0
C      1  0.5132730000000  0.5850400000000  0.5107290000000 1.0
C      1  0.4852780000000  0.5850240000000  0.5106970000000 1.0
C      1  0.5133310000000  0.4134840000000  0.5111110000000 1.0
C      1  0.5172950000000  0.4390240000000  0.4639850000000 1.0
C      1  0.4811880000000  0.5609540000000  0.4643580000000 1.0
C      1  0.5173270000000  0.5610220000000  0.4643680000000 1.0
C      1  0.4812070000000  0.4390220000000  0.4639580000000 1.0
C      1  0.4710470000000  0.4387570000000  0.5110130000000 1.0
C      1  0.5273350000000  0.5597980000000  0.5109950000000 1.0
C      1  0.4712370000000  0.5597620000000  0.5109690000000 1.0
C      1  0.5274750000000  0.4387270000000  0.5110300000000 1.0
C      1  0.4732980000000  0.4715250000000  0.4608420000000 1.0
C      1  0.5255950000000  0.5291930000000  0.4577320000000 1.0
C      1  0.4729620000000  0.5290970000000  0.4577430000000 1.0
C      1  0.5253100000000  0.4714650000000  0.4608220000000 1.0
C      1  0.4711410000000  0.5449020000000  0.5416850000000 1.0
C      1  0.5277930000000  0.4544440000000  0.5415000000000 1.0
C      1  0.4708210000000  0.4545000000000  0.5415410000000 1.0
C      1  0.5275500000000  0.5449790000000  0.5417120000000 1.0
C      1  0.5605090000000  0.4738110000000  0.4909170000000 1.0
C      1  0.4383490000000  0.5266440000000  0.4930590000000 1.0
C      1  0.5601490000000  0.5266200000000  0.4930430000000 1.0
C      1  0.4379210000000  0.4737890000000  0.4908390000000 1.0
C      1  0.4542580000000  0.5135530000000  0.4367540000000 1.0
C      1  0.5441370000000  0.4844400000000  0.4381800000000 1.0
C      1  0.4545410000000  0.4844100000000  0.4380760000000 1.0
C      1  0.5443730000000  0.5136070000000  0.4368340000000 1.0
C      1  0.4189540000000  0.5005330000000  0.4904100000000 1.0
C      1  0.5794790000000  0.5004950000000  0.4903370000000 1.0
C      1  0.4993030000000  0.4713650000000  0.5449440000000 1.0
C      1  0.4993330000000  0.5283410000000  0.5453690000000 1.0
C      1  0.4992930000000  0.5243560000000  0.4413640000000 1.0
C      1  0.4993220000000  0.4767310000000  0.4451370000000 1.0
C      1  0.4585010000000  0.5008480000000  0.4764830000000 1.0
C      1  0.5398580000000  0.5008820000000  0.4765290000000 1.0
C      1  0.4995110000000  0.5033080000000  0.4776230000000 1.0
C      1  0.4993620000000  0.4996190000000  0.5887790000000 1.0
C      1  0.4993090000000  0.4992770000000  0.4275740000000 1.0
C      1  0.4993370000000  0.4998080000000  0.5594850000000 1.0
END
