TITL C-3985250-725-1203 3.07206796628691e-07 125000 -320.459271879528 0 0 60 (S4) n - 1
REM
REM in /home/nfs/bkarasulu/CARBON/AIRSS/Generating-Clusters/TERSOFF/Higher-Symm/Only-C60
REM
REM
REM
REM
REM
REM ./C.cell (28575a23ae977d3b5fae324c64b13b57)
REM
REM compiler GCC version 9.2.1 20190827 (Red Hat 9.2.1-1)
REM options -cpp -mtune=generic -march=x86-64 -g -O0 -fpre-include=/usr/include/finclude/math-vector-fortran.h
REM seed 705163155 -520840495 358014515 -26085723 399521821 995928174 63911376 292894580 -1074660053 1779389035 2051225319 907782083 699103793 673856999 -42171437 1858334806 3972678 438872466 -1628007680 -1366999124 -697213514 432589737 525686128 1663329364 1264758417 978477649 1803861977 -1049907012 75741865 -592285305 1366158053 1677037306 -1376598206
REM
CELL 1.54180   50.00000   50.00000   50.00000   90.00000   90.00000   90.00000
LATT -1
SFAC C  
C      1  0.5331000000000  0.5368370000000  0.4443800000000 1.0
C      1  0.4631630000000  0.5331000000000  0.5556200000000 1.0
C      1  0.4669000000000  0.4631630000000  0.4443800000000 1.0
C      1  0.5368370000000  0.4669000000000  0.5556200000000 1.0
C      1  0.5127310000000  0.4738880000000  0.4670880000000 1.0
C      1  0.5261120000000  0.5127310000000  0.5329120000000 1.0
C      1  0.4872690000000  0.5261120000000  0.4670880000000 1.0
C      1  0.4738880000000  0.4872690000000  0.5329120000000 1.0
C      1  0.5699100000000  0.5033510000000  0.5049540000000 1.0
C      1  0.4966490000000  0.5699100000000  0.4950460000000 1.0
C      1  0.4300900000000  0.4966490000000  0.5049540000000 1.0
C      1  0.5033510000000  0.4300900000000  0.4950460000000 1.0
C      1  0.4828610000000  0.4347450000000  0.4489640000000 1.0
C      1  0.5652550000000  0.4828610000000  0.5510360000000 1.0
C      1  0.5171390000000  0.5652550000000  0.4489640000000 1.0
C      1  0.4347450000000  0.5171390000000  0.5510360000000 1.0
C      1  0.5644990000000  0.5496210000000  0.4691270000000 1.0
C      1  0.4503790000000  0.5644990000000  0.5308730000000 1.0
C      1  0.4355010000000  0.4503790000000  0.4691270000000 1.0
C      1  0.5496210000000  0.4355010000000  0.5308730000000 1.0
C      1  0.5283670000000  0.4979400000000  0.4768040000000 1.0
C      1  0.5020600000000  0.5283670000000  0.5231960000000 1.0
C      1  0.4716330000000  0.5020600000000  0.4768040000000 1.0
C      1  0.4979400000000  0.4716330000000  0.5231960000000 1.0
C      1  0.4416070000000  0.4993210000000  0.4768920000000 1.0
C      1  0.5006790000000  0.4416070000000  0.5231080000000 1.0
C      1  0.5583930000000  0.5006790000000  0.4768920000000 1.0
C      1  0.4993210000000  0.5583930000000  0.5231080000000 1.0
C      1  0.4601200000000  0.4484150000000  0.4858560000000 1.0
C      1  0.5515850000000  0.4601200000000  0.5141440000000 1.0
C      1  0.5398800000000  0.5515850000000  0.4858560000000 1.0
C      1  0.4484150000000  0.5398800000000  0.5141440000000 1.0
C      1  0.4816290000000  0.5322390000000  0.4356650000000 1.0
C      1  0.4677610000000  0.4816290000000  0.5643350000000 1.0
C      1  0.5183710000000  0.4677610000000  0.4356650000000 1.0
C      1  0.5322390000000  0.5183710000000  0.5643350000000 1.0
C      1  0.5254000000000  0.4817360000000  0.5281630000000 1.0
C      1  0.5182640000000  0.5254000000000  0.4718370000000 1.0
C      1  0.4746000000000  0.5182640000000  0.5281630000000 1.0
C      1  0.4817360000000  0.4746000000000  0.4718370000000 1.0
C      1  0.4769580000000  0.5637190000000  0.5449880000000 1.0
C      1  0.4362810000000  0.4769580000000  0.4550120000000 1.0
C      1  0.5230420000000  0.4362810000000  0.5449880000000 1.0
C      1  0.5637190000000  0.5230420000000  0.4550120000000 1.0
C      1  0.5616470000000  0.5130320000000  0.5552920000000 1.0
C      1  0.4869680000000  0.5616470000000  0.4447080000000 1.0
C      1  0.4383530000000  0.4869680000000  0.5552920000000 1.0
C      1  0.5130320000000  0.4383530000000  0.4447080000000 1.0
C      1  0.5227020000000  0.4439190000000  0.4759300000000 1.0
C      1  0.5560810000000  0.5227020000000  0.5240700000000 1.0
C      1  0.4772980000000  0.5560810000000  0.4759300000000 1.0
C      1  0.4439190000000  0.4772980000000  0.5240700000000 1.0
C      1  0.5215090000000  0.5740580000000  0.4784600000000 1.0
C      1  0.4259420000000  0.5215090000000  0.5215400000000 1.0
C      1  0.4784910000000  0.4259420000000  0.4784600000000 1.0
C      1  0.5740580000000  0.4784910000000  0.5215400000000 1.0
C      1  0.5481750000000  0.5487680000000  0.5134660000000 1.0
C      1  0.4512320000000  0.5481750000000  0.4865340000000 1.0
C      1  0.4518250000000  0.4512320000000  0.5134660000000 1.0
C      1  0.5487680000000  0.4518250000000  0.4865340000000 1.0
END
