TITL C-3985253-1688-957 -0.000192503125866893 125000 -338.606148126926 0 0 60 (D2h) n - 1
REM
REM in /home/nfs/bkarasulu/CARBON/AIRSS/Generating-Clusters/TERSOFF/Higher-Symm/Only-C60
REM
REM
REM
REM
REM
REM ./C.cell (28575a23ae977d3b5fae324c64b13b57)
REM
REM compiler GCC version 9.2.1 20190827 (Red Hat 9.2.1-1)
REM options -cpp -mtune=generic -march=x86-64 -g -O0 -fpre-include=/usr/include/finclude/math-vector-fortran.h
REM seed 999202927 432231605 335287692 -289867949 1168143426 221450420 876740605 1473994503 258404808 -1388277168 906994752 333757817 -1461943998 -630010944 118887842 -1619715402 1878157876 1150286256 -324692309 2073226964 -1904548921 1951543275 -914942902 -1047133102 -169955799 1315213289 -265372968 225794714 -1029283697 483628548 1422238311 -631724909 1183594469
REM
CELL 1.54180   50.00000   50.00000   50.00000   90.00000   90.00000   90.00000
LATT -1
SFAC C  
C      1  0.5283810000000  0.5764220000000  0.5250680000000 1.0
C      1  0.5816950000000  0.5151570000000  0.5249680000000 1.0
C      1  0.5577240000000  0.4336150000000  0.5249150000000 1.0
C      1  0.4716190000000  0.4235780000000  0.5250680000000 1.0
C      1  0.4183050000000  0.4848430000000  0.5249680000000 1.0
C      1  0.4422760000000  0.5663850000000  0.5249150000000 1.0
C      1  0.4716190000000  0.5764220000000  0.5250680000000 1.0
C      1  0.4183050000000  0.5151570000000  0.5249680000000 1.0
C      1  0.4422760000000  0.4336150000000  0.5249150000000 1.0
C      1  0.5283810000000  0.4235780000000  0.5250680000000 1.0
C      1  0.5816950000000  0.4848430000000  0.5249680000000 1.0
C      1  0.5577240000000  0.5663850000000  0.5249150000000 1.0
C      1  0.4415850000000  0.4822340000000  0.5467690000000 1.0
C      1  0.4528910000000  0.5458980000000  0.5470020000000 1.0
C      1  0.5155480000000  0.5572780000000  0.5476440000000 1.0
C      1  0.5584150000000  0.5177660000000  0.5467690000000 1.0
C      1  0.5471090000000  0.4541010000000  0.5470010000000 1.0
C      1  0.4844520000000  0.4427220000000  0.5476440000000 1.0
C      1  0.5584150000000  0.4822340000000  0.5467690000000 1.0
C      1  0.5471090000000  0.5458990000000  0.5470010000000 1.0
C      1  0.4844530000000  0.5572780000000  0.5476440000000 1.0
C      1  0.4415850000000  0.5177660000000  0.5467690000000 1.0
C      1  0.4528910000000  0.4541010000000  0.5470010000000 1.0
C      1  0.5155470000000  0.4427220000000  0.5476440000000 1.0
C      1  0.4716170000000  0.4235890000000  0.4749240000000 1.0
C      1  0.4182900000000  0.4848430000000  0.4750390000000 1.0
C      1  0.4422760000000  0.5663800000000  0.4750830000000 1.0
C      1  0.5283830000000  0.5764110000000  0.4749240000000 1.0
C      1  0.5817100000000  0.5151570000000  0.4750390000000 1.0
C      1  0.5577240000000  0.4336200000000  0.4750830000000 1.0
C      1  0.5283830000000  0.4235890000000  0.4749240000000 1.0
C      1  0.5817100000000  0.4848430000000  0.4750390000000 1.0
C      1  0.5577240000000  0.5663800000000  0.4750830000000 1.0
C      1  0.4716170000000  0.5764110000000  0.4749240000000 1.0
C      1  0.4182900000000  0.5151570000000  0.4750390000000 1.0
C      1  0.4422760000000  0.4336200000000  0.4750830000000 1.0
C      1  0.4185920000000  0.5302700000000  0.5000040000000 1.0
C      1  0.4855400000000  0.5818330000000  0.4999960000000 1.0
C      1  0.5696580000000  0.5569270000000  0.5000000000000 1.0
C      1  0.5814080000000  0.4697300000000  0.5000040000000 1.0
C      1  0.5144600000000  0.4181670000000  0.4999960000000 1.0
C      1  0.4303420000000  0.4430730000000  0.5000000000000 1.0
C      1  0.5814080000000  0.5302700000000  0.5000040000000 1.0
C      1  0.5144600000000  0.5818330000000  0.4999960000000 1.0
C      1  0.4303420000000  0.5569270000000  0.5000000000000 1.0
C      1  0.4185920000000  0.4697300000000  0.5000040000000 1.0
C      1  0.4855400000000  0.4181670000000  0.4999960000000 1.0
C      1  0.5696580000000  0.4430730000000  0.5000000000000 1.0
C      1  0.4844520000000  0.4427390000000  0.4523570000000 1.0
C      1  0.4415620000000  0.4822360000000  0.4532290000000 1.0
C      1  0.4528860000000  0.5458920000000  0.4530010000000 1.0
C      1  0.5155480000000  0.5572610000000  0.4523570000000 1.0
C      1  0.5584380000000  0.5177640000000  0.4532290000000 1.0
C      1  0.5471140000000  0.4541080000000  0.4530010000000 1.0
C      1  0.5155480000000  0.4427390000000  0.4523570000000 1.0
C      1  0.5584380000000  0.4822360000000  0.4532290000000 1.0
C      1  0.5471140000000  0.5458920000000  0.4530010000000 1.0
C      1  0.4844520000000  0.5572610000000  0.4523570000000 1.0
C      1  0.4415620000000  0.5177640000000  0.4532290000000 1.0
C      1  0.4528860000000  0.4541080000000  0.4530010000000 1.0
END
