TITL C-3985253-1688-1062 0.000444763761921701 125000 -332.728479014639 0 0 60 (C2v) n - 1
REM
REM in /home/nfs/bkarasulu/CARBON/AIRSS/Generating-Clusters/TERSOFF/Higher-Symm/Only-C60
REM
REM
REM
REM
REM
REM ./C.cell (28575a23ae977d3b5fae324c64b13b57)
REM
REM compiler GCC version 9.2.1 20190827 (Red Hat 9.2.1-1)
REM options -cpp -mtune=generic -march=x86-64 -g -O0 -fpre-include=/usr/include/finclude/math-vector-fortran.h
REM seed -1392237697 -134086043 1183066822 -862536041 -766497808 -1280535444 -1217093543 -1499521309 1001184229 -690311786 -1756271954 -533288276 987284880 -1509690590 -1144660170 315615728 306007644 1759335446 1810448318 16365612 -441161453 1073440382 -1090956630 -792727620 549441562 -1222451019 -1159790931 240449248 1706966005 388481390 -1054957964 -1389088033 1247811198
REM
CELL 1.54180   50.00000   50.00000   50.00000   90.00000   90.00000   90.00000
LATT -1
SFAC C  
C      1  0.5290950000000  0.5377680000000  0.4297220000000 1.0
C      1  0.5290940000000  0.4622270000000  0.5702770000000 1.0
C      1  0.5290940000000  0.5377680000000  0.5702780000000 1.0
C      1  0.5290990000000  0.4622240000000  0.4297200000000 1.0
C      1  0.4549970000000  0.5153900000000  0.4337380000000 1.0
C      1  0.4549950000000  0.4846160000000  0.5662620000000 1.0
C      1  0.4549970000000  0.5153850000000  0.5662620000000 1.0
C      1  0.4549940000000  0.4846160000000  0.4337370000000 1.0
C      1  0.5521680000000  0.4732810000000  0.4438220000000 1.0
C      1  0.5521640000000  0.5267160000000  0.5561790000000 1.0
C      1  0.5521660000000  0.4732850000000  0.5561790000000 1.0
C      1  0.5521640000000  0.5267180000000  0.4438210000000 1.0
C      1  0.4938850000000  0.5360740000000  0.5475550000000 1.0
C      1  0.4938960000000  0.4639140000000  0.4524520000000 1.0
C      1  0.4938840000000  0.5360750000000  0.4524480000000 1.0
C      1  0.4938950000000  0.4639240000000  0.5475520000000 1.0
C      1  0.5253240000000  0.5267070000000  0.4848950000000 1.0
C      1  0.5253230000000  0.4732940000000  0.5151050000000 1.0
C      1  0.5253240000000  0.5267060000000  0.5151050000000 1.0
C      1  0.5253220000000  0.4732950000000  0.4848940000000 1.0
C      1  0.4672090000000  0.4715770000000  0.5160840000000 1.0
C      1  0.4672030000000  0.5284240000000  0.4839200000000 1.0
C      1  0.4672080000000  0.4715720000000  0.4839160000000 1.0
C      1  0.4672010000000  0.5284210000000  0.5160780000000 1.0
C      1  0.4467310000000  0.4840880000000  0.4655150000000 1.0
C      1  0.4467300000000  0.5159100000000  0.5344850000000 1.0
C      1  0.4467310000000  0.4840900000000  0.5344850000000 1.0
C      1  0.4467300000000  0.5159100000000  0.4655150000000 1.0
C      1  0.5131870000000  0.4392570000000  0.5472190000000 1.0
C      1  0.5131930000000  0.5607460000000  0.4527840000000 1.0
C      1  0.5131810000000  0.4392580000000  0.4527820000000 1.0
C      1  0.5131930000000  0.5607460000000  0.5472160000000 1.0
C      1  0.4691150000000  0.4390460000000  0.5161530000000 1.0
C      1  0.4691180000000  0.5609460000000  0.4838440000000 1.0
C      1  0.4691140000000  0.4390350000000  0.4838500000000 1.0
C      1  0.4691180000000  0.5609450000000  0.5161560000000 1.0
C      1  0.5477070000000  0.5142670000000  0.4696520000000 1.0
C      1  0.5477070000000  0.4857330000000  0.5303470000000 1.0
C      1  0.5477080000000  0.5142670000000  0.5303470000000 1.0
C      1  0.5477060000000  0.4857320000000  0.4696520000000 1.0
C      1  0.4880030000000  0.4247370000000  0.5336440000000 1.0
C      1  0.4880050000000  0.5752580000000  0.4663540000000 1.0
C      1  0.4880130000000  0.4247410000000  0.4663620000000 1.0
C      1  0.4880030000000  0.5752580000000  0.5336480000000 1.0
C      1  0.5073830000000  0.5158780000000  0.5834550000000 1.0
C      1  0.5073870000000  0.4841230000000  0.4165410000000 1.0
C      1  0.5073850000000  0.5158800000000  0.4165430000000 1.0
C      1  0.5073840000000  0.4841220000000  0.5834560000000 1.0
C      1  0.4808000000000  0.4717290000000  0.4275790000000 1.0
C      1  0.4808090000000  0.5282890000000  0.5724150000000 1.0
C      1  0.4808050000000  0.4717210000000  0.5724190000000 1.0
C      1  0.4808070000000  0.5282870000000  0.4275850000000 1.0
C      1  0.5279320000000  0.5583270000000  0.4820060000000 1.0
C      1  0.5279330000000  0.4416730000000  0.5179920000000 1.0
C      1  0.5279330000000  0.5583270000000  0.5179930000000 1.0
C      1  0.5279280000000  0.4416740000000  0.4820060000000 1.0
C      1  0.4964570000000  0.5158870000000  0.5244450000000 1.0
C      1  0.4964540000000  0.4841250000000  0.4755530000000 1.0
C      1  0.4964550000000  0.5158890000000  0.4755550000000 1.0
C      1  0.4964540000000  0.4841220000000  0.5244450000000 1.0
END
