TITL C-3985245-9316-1197 -0.000733347695421313 125000 -342.469786171097 0 0 60 (C1) n - 1
REM
REM in /home/nfs/bkarasulu/CARBON/AIRSS/Generating-Clusters/TERSOFF/Higher-Symm/Only-C60
REM
REM
REM
REM
REM
REM ./C.cell (28575a23ae977d3b5fae324c64b13b57)
REM
REM compiler GCC version 9.2.1 20190827 (Red Hat 9.2.1-1)
REM options -cpp -mtune=generic -march=x86-64 -g -O0 -fpre-include=/usr/include/finclude/math-vector-fortran.h
REM seed 2015696336 371932525 845124692 151230189 1959393742 -41632762 437237152 -2092683301 500744229 -1688365480 215759786 -1755194102 -729838458 1666645060 1371662687 1873691668 -801420874 -1912871474 1496200871 1690416618 588229853 775097729 612525109 -1120679377 924127597 1348019336 1972859586 -641226070 -314787450 -885691198 -704420718 -887190811 899760772
REM
CELL 1.54180   50.00000   50.00000   50.00000   90.00000   90.00000   90.00000
LATT -1
SFAC C  
C      1  0.5429110000000  0.4686830000000  0.4691860000000 1.0
C      1  0.4485130000000  0.4671150000000  0.4794030000000 1.0
C      1  0.5124160000000  0.4653670000000  0.5570360000000 1.0
C      1  0.5423360000000  0.5349770000000  0.5319930000000 1.0
C      1  0.4514830000000  0.5335890000000  0.5191900000000 1.0
C      1  0.5107690000000  0.5345920000000  0.4445760000000 1.0
C      1  0.5142090000000  0.4276020000000  0.4741930000000 1.0
C      1  0.4719070000000  0.4272530000000  0.5027580000000 1.0
C      1  0.5184410000000  0.4260030000000  0.5250800000000 1.0
C      1  0.5140060000000  0.5758220000000  0.5267030000000 1.0
C      1  0.4716580000000  0.5746650000000  0.4971770000000 1.0
C      1  0.5187130000000  0.5733060000000  0.4755560000000 1.0
C      1  0.4537470000000  0.4635130000000  0.5338680000000 1.0
C      1  0.5555290000000  0.4624190000000  0.5228560000000 1.0
C      1  0.4959040000000  0.4637100000000  0.4439180000000 1.0
C      1  0.4534230000000  0.5384000000000  0.4661970000000 1.0
C      1  0.5463910000000  0.5322360000000  0.4818920000000 1.0
C      1  0.4966110000000  0.5387400000000  0.5548830000000 1.0
C      1  0.4702100000000  0.4734820000000  0.4593870000000 1.0
C      1  0.4817790000000  0.4652270000000  0.5501870000000 1.0
C      1  0.5436000000000  0.4753470000000  0.4977120000000 1.0
C      1  0.4763390000000  0.5275150000000  0.5350230000000 1.0
C      1  0.4806480000000  0.5398820000000  0.4501500000000 1.0
C      1  0.5348200000000  0.5236220000000  0.5066470000000 1.0
C      1  0.5196560000000  0.4520460000000  0.4588750000000 1.0
C      1  0.4552940000000  0.4517670000000  0.5054100000000 1.0
C      1  0.5309490000000  0.4497000000000  0.5380250000000 1.0
C      1  0.5204970000000  0.5521160000000  0.5432500000000 1.0
C      1  0.4548120000000  0.5501460000000  0.4943170000000 1.0
C      1  0.5293090000000  0.5481660000000  0.4637490000000 1.0
C      1  0.5177520000000  0.5092520000000  0.4292240000000 1.0
C      1  0.4309230000000  0.5109450000000  0.5226910000000 1.0
C      1  0.5575330000000  0.5122140000000  0.5452530000000 1.0
C      1  0.5190850000000  0.4920640000000  0.5696040000000 1.0
C      1  0.4306670000000  0.4917720000000  0.4767930000000 1.0
C      1  0.5562680000000  0.4909340000000  0.4546700000000 1.0
C      1  0.4384770000000  0.4901020000000  0.5432050000000 1.0
C      1  0.5699720000000  0.4920790000000  0.5257380000000 1.0
C      1  0.4956740000000  0.4886730000000  0.4238590000000 1.0
C      1  0.4395320000000  0.5117660000000  0.4559860000000 1.0
C      1  0.5663850000000  0.5115230000000  0.4742600000000 1.0
C      1  0.4961260000000  0.5119090000000  0.5719410000000 1.0
C      1  0.5825110000000  0.5020300000000  0.4989910000000 1.0
C      1  0.4622410000000  0.5015040000000  0.4295720000000 1.0
C      1  0.4635510000000  0.4991410000000  0.5674500000000 1.0
C      1  0.5032550000000  0.4951070000000  0.4735360000000 1.0
C      1  0.5044550000000  0.4861610000000  0.5215310000000 1.0
C      1  0.4657470000000  0.4934710000000  0.5071010000000 1.0
C      1  0.4157310000000  0.5015740000000  0.4996650000000 1.0
C      1  0.5453470000000  0.4999380000000  0.4293360000000 1.0
C      1  0.5466060000000  0.5016180000000  0.5700620000000 1.0
C      1  0.5627450000000  0.4999190000000  0.5941180000000 1.0
C      1  0.5611840000000  0.4993900000000  0.4050210000000 1.0
C      1  0.3867090000000  0.5007860000000  0.5000540000000 1.0
C      1  0.4791540000000  0.4972970000000  0.5364570000000 1.0
C      1  0.5275890000000  0.4963090000000  0.5078490000000 1.0
C      1  0.4811380000000  0.5079980000000  0.4579180000000 1.0
C      1  0.5014530000000  0.5747350000000  0.4997970000000 1.0
C      1  0.5015230000000  0.4269590000000  0.5006900000000 1.0
C      1  0.4910020000000  0.4800320000000  0.4951910000000 1.0
END
