TITL C-3985247-764-129 -0.00396515506888851 125000 -343.025867385465 0 0 60 (C1) n - 1
REM
REM in /home/nfs/bkarasulu/CARBON/AIRSS/Generating-Clusters/TERSOFF/Higher-Symm/Only-C60
REM
REM
REM
REM
REM
REM ./C.cell (28575a23ae977d3b5fae324c64b13b57)
REM
REM compiler GCC version 9.2.1 20190827 (Red Hat 9.2.1-1)
REM options -cpp -mtune=generic -march=x86-64 -g -O0 -fpre-include=/usr/include/finclude/math-vector-fortran.h
REM seed 1902783549 1874305685 -513179085 -1191078287 -1026891596 13990897 -2084644043 451965439 1895068823 1397159536 569312401 -789029316 -1141769061 918025891 -617951497 -861232801 -1154968142 -677975235 -1127142736 -1607422495 1999628305 -1788724806 -702349957 95966499 1530444726 211094571 -1624079165 -70614162 1358392433 -1622097494 307612035 -1785533454 444106329
REM
CELL 1.54180   50.00000   50.00000   50.00000   90.00000   90.00000   90.00000
LATT -1
SFAC C  
C      1  0.5149990000000  0.4541530000000  0.5559150000000 1.0
C      1  0.4569490000000  0.4525750000000  0.5488150000000 1.0
C      1  0.4416640000000  0.4509810000000  0.4843400000000 1.0
C      1  0.4845820000000  0.4538050000000  0.4443780000000 1.0
C      1  0.5430680000000  0.4527820000000  0.4511390000000 1.0
C      1  0.5576780000000  0.4511840000000  0.5154250000000 1.0
C      1  0.5181110000000  0.4529810000000  0.4352370000000 1.0
C      1  0.4550920000000  0.4531270000000  0.4535550000000 1.0
C      1  0.4510270000000  0.4552190000000  0.5137710000000 1.0
C      1  0.4817110000000  0.4529030000000  0.5649740000000 1.0
C      1  0.5443000000000  0.4532740000000  0.5463910000000 1.0
C      1  0.5491300000000  0.4554290000000  0.4857290000000 1.0
C      1  0.5568190000000  0.5001850000000  0.4292710000000 1.0
C      1  0.5805010000000  0.5000140000000  0.5146360000000 1.0
C      1  0.5285790000000  0.5000910000000  0.5807640000000 1.0
C      1  0.4433380000000  0.5002480000000  0.5701620000000 1.0
C      1  0.4187760000000  0.4998340000000  0.4851200000000 1.0
C      1  0.4712850000000  0.5000360000000  0.4199380000000 1.0
C      1  0.5551890000000  0.5000570000000  0.5694120000000 1.0
C      1  0.5782360000000  0.5000090000000  0.4859320000000 1.0
C      1  0.5317240000000  0.5002970000000  0.4137870000000 1.0
C      1  0.4444610000000  0.4999930000000  0.4306280000000 1.0
C      1  0.4222830000000  0.4998210000000  0.5136670000000 1.0
C      1  0.4680250000000  0.5002340000000  0.5862390000000 1.0
C      1  0.5443840000000  0.5468660000000  0.5463500000000 1.0
C      1  0.4820220000000  0.5474300000000  0.5648160000000 1.0
C      1  0.4526270000000  0.5434220000000  0.5130960000000 1.0
C      1  0.4554120000000  0.5464450000000  0.4542000000000 1.0
C      1  0.5182780000000  0.5473820000000  0.4359320000000 1.0
C      1  0.5495060000000  0.5447250000000  0.4856010000000 1.0
C      1  0.5434850000000  0.5475630000000  0.4512680000000 1.0
C      1  0.4850450000000  0.5449640000000  0.4461330000000 1.0
C      1  0.4419370000000  0.5484210000000  0.4845240000000 1.0
C      1  0.4575980000000  0.5476120000000  0.5482640000000 1.0
C      1  0.5151320000000  0.5460290000000  0.5559330000000 1.0
C      1  0.5577000000000  0.5488920000000  0.5153750000000 1.0
C      1  0.5650390000000  0.5252320000000  0.4425940000000 1.0
C      1  0.5758100000000  0.5253110000000  0.5287040000000 1.0
C      1  0.5136220000000  0.5249830000000  0.5809220000000 1.0
C      1  0.4357190000000  0.5252820000000  0.5564320000000 1.0
C      1  0.4233470000000  0.5252300000000  0.4711010000000 1.0
C      1  0.4864190000000  0.5247240000000  0.4206610000000 1.0
C      1  0.5646610000000  0.5249880000000  0.5576150000000 1.0
C      1  0.5713250000000  0.5246710000000  0.4727640000000 1.0
C      1  0.5161840000000  0.5253180000000  0.4127780000000 1.0
C      1  0.4349550000000  0.5249400000000  0.4422970000000 1.0
C      1  0.4304700000000  0.5242490000000  0.5263710000000 1.0
C      1  0.4834690000000  0.5252830000000  0.5878980000000 1.0
C      1  0.5757830000000  0.4747110000000  0.5287340000000 1.0
C      1  0.5134780000000  0.4752760000000  0.5808670000000 1.0
C      1  0.4353300000000  0.4750000000000  0.5569160000000 1.0
C      1  0.4234220000000  0.4745210000000  0.4709650000000 1.0
C      1  0.4861700000000  0.4751930000000  0.4194630000000 1.0
C      1  0.5647180000000  0.4750130000000  0.4426590000000 1.0
C      1  0.5710020000000  0.4754070000000  0.4727320000000 1.0
C      1  0.5162930000000  0.4751650000000  0.4123040000000 1.0
C      1  0.4348360000000  0.4750110000000  0.4421300000000 1.0
C      1  0.4292950000000  0.4752490000000  0.5268050000000 1.0
C      1  0.4833830000000  0.4751360000000  0.5879150000000 1.0
C      1  0.5646130000000  0.4751270000000  0.5576540000000 1.0
END
