TITL C-3985254-1270-695 0.00864637869502709 125000 -305.091490718966 0 0 60 (D2) n - 1
REM
REM in /home/nfs/bkarasulu/CARBON/AIRSS/Generating-Clusters/TERSOFF/Higher-Symm/Only-C60
REM
REM
REM
REM
REM
REM ./C.cell (28575a23ae977d3b5fae324c64b13b57)
REM
REM compiler GCC version 9.2.1 20190827 (Red Hat 9.2.1-1)
REM options -cpp -mtune=generic -march=x86-64 -g -O0 -fpre-include=/usr/include/finclude/math-vector-fortran.h
REM seed -1617188969 1252857391 -2141472196 66565509 -997832759 220865166 287387465 551829746 1203833764 1801523389 1837698660 -1764748351 1550915784 1612310265 527110111 841301599 1811864023 415671137 360846974 -932402823 1963937023 -533242610 1612157818 -701016953 -809559061 1961014846 -926406734 -40230354 -1600676729 358929733 -52787447 1047037053 2098218007
REM
CELL 1.54180   50.00000   50.00000   50.00000   90.00000   90.00000   90.00000
LATT -1
SFAC C  
C      1  0.4204080000000  0.5078700000000  0.4805830000000 1.0
C      1  0.4204080000000  0.4921300000000  0.5194170000000 1.0
C      1  0.5795920000000  0.4921300000000  0.4805830000000 1.0
C      1  0.5795920000000  0.5078700000000  0.5194170000000 1.0
C      1  0.4461150000000  0.4830580000000  0.5340440000000 1.0
C      1  0.4461150000000  0.5169420000000  0.4659560000000 1.0
C      1  0.5538850000000  0.5169420000000  0.5340440000000 1.0
C      1  0.5538850000000  0.4830580000000  0.4659560000000 1.0
C      1  0.5598350000000  0.5435510000000  0.4857080000000 1.0
C      1  0.5598350000000  0.4564490000000  0.5142920000000 1.0
C      1  0.4401650000000  0.4564490000000  0.4857080000000 1.0
C      1  0.4401650000000  0.5435510000000  0.5142920000000 1.0
C      1  0.4633890000000  0.4602170000000  0.4584580000000 1.0
C      1  0.4633890000000  0.5397830000000  0.5415420000000 1.0
C      1  0.5366110000000  0.5397830000000  0.4584580000000 1.0
C      1  0.5366110000000  0.4602170000000  0.5415420000000 1.0
C      1  0.5242000000000  0.4732570000000  0.5000260000000 1.0
C      1  0.5242000000000  0.5267430000000  0.4999740000000 1.0
C      1  0.4758000000000  0.5267430000000  0.5000260000000 1.0
C      1  0.4758000000000  0.4732570000000  0.4999740000000 1.0
C      1  0.4892020000000  0.4475970000000  0.4905760000000 1.0
C      1  0.4892020000000  0.5524030000000  0.5094240000000 1.0
C      1  0.5107980000000  0.5524030000000  0.4905760000000 1.0
C      1  0.5107980000000  0.4475970000000  0.5094240000000 1.0
C      1  0.4548460000000  0.4572360000000  0.5169330000000 1.0
C      1  0.4548460000000  0.5427640000000  0.4830670000000 1.0
C      1  0.5451540000000  0.5427640000000  0.5169330000000 1.0
C      1  0.5451540000000  0.4572360000000  0.4830670000000 1.0
C      1  0.4642660000000  0.5104260000000  0.5239520000000 1.0
C      1  0.4642660000000  0.4895740000000  0.4760480000000 1.0
C      1  0.5357340000000  0.4895740000000  0.5239520000000 1.0
C      1  0.5357340000000  0.5104260000000  0.4760480000000 1.0
C      1  0.5317330000000  0.4877090000000  0.4409850000000 1.0
C      1  0.5317330000000  0.5122910000000  0.5590150000000 1.0
C      1  0.4682670000000  0.5122910000000  0.4409850000000 1.0
C      1  0.4682670000000  0.4877090000000  0.5590150000000 1.0
C      1  0.4757170000000  0.4834030000000  0.4361370000000 1.0
C      1  0.4757170000000  0.5165970000000  0.5638630000000 1.0
C      1  0.5242830000000  0.5165970000000  0.4361370000000 1.0
C      1  0.5242830000000  0.4834030000000  0.5638630000000 1.0
C      1  0.5268160000000  0.5625460000000  0.5315900000000 1.0
C      1  0.5268160000000  0.4374540000000  0.4684100000000 1.0
C      1  0.4731840000000  0.4374540000000  0.5315900000000 1.0
C      1  0.4731840000000  0.5625460000000  0.4684100000000 1.0
C      1  0.4960650000000  0.5557790000000  0.5390550000000 1.0
C      1  0.4960650000000  0.4442210000000  0.4609450000000 1.0
C      1  0.5039350000000  0.4442210000000  0.5390550000000 1.0
C      1  0.5039350000000  0.5557790000000  0.4609450000000 1.0
C      1  0.4960680000000  0.5264610000000  0.4491380000000 1.0
C      1  0.4960680000000  0.4735390000000  0.5508620000000 1.0
C      1  0.5039320000000  0.4735390000000  0.4491380000000 1.0
C      1  0.5039320000000  0.5264610000000  0.5508620000000 1.0
C      1  0.5816460000000  0.5226780000000  0.4902840000000 1.0
C      1  0.5816460000000  0.4773220000000  0.5097160000000 1.0
C      1  0.4183540000000  0.4773220000000  0.4902840000000 1.0
C      1  0.4183540000000  0.5226780000000  0.5097160000000 1.0
C      1  0.4886480000000  0.4901520000000  0.5224430000000 1.0
C      1  0.4886480000000  0.5098480000000  0.4775570000000 1.0
C      1  0.5113520000000  0.5098480000000  0.5224430000000 1.0
C      1  0.5113520000000  0.4901520000000  0.4775570000000 1.0
END
