TITL C-3985259-1859-193 -0.00216739467678362 125000 -330.63974969824 0 0 60 (C1) n - 1
REM
REM in /home/nfs/bkarasulu/CARBON/AIRSS/Generating-Clusters/TERSOFF/Higher-Symm/Only-C60
REM
REM
REM
REM
REM
REM ./C.cell (28575a23ae977d3b5fae324c64b13b57)
REM
REM compiler GCC version 9.2.1 20190827 (Red Hat 9.2.1-1)
REM options -cpp -mtune=generic -march=x86-64 -g -O0 -fpre-include=/usr/include/finclude/math-vector-fortran.h
REM seed -460687492 1057717933 -980504128 382342282 -922125894 -1891574264 -1431744917 -778063185 1701422041 -716205402 -1826103845 1760273325 -40652810 45687062 1712229803 1377499764 1079057714 -2092013117 -1218041867 1196378374 -344592383 1744931011 1792261870 -1588357326 748943273 1366029794 777845936 522625584 -1860266983 1737528181 1137220165 -1406834752 -301963399
REM
CELL 1.54180   50.00000   50.00000   50.00000   90.00000   90.00000   90.00000
LATT -1
SFAC C  
C      1  0.4788570000000  0.5780150000000  0.5137270000000 1.0
C      1  0.4864560000000  0.4858790000000  0.5111250000000 1.0
C      1  0.5360940000000  0.5639750000000  0.5074770000000 1.0
C      1  0.5475570000000  0.5038420000000  0.4852500000000 1.0
C      1  0.5166490000000  0.4392770000000  0.5489330000000 1.0
C      1  0.4839050000000  0.5337550000000  0.5254470000000 1.0
C      1  0.4512430000000  0.5298040000000  0.5289410000000 1.0
C      1  0.4954070000000  0.5236870000000  0.4511220000000 1.0
C      1  0.4771570000000  0.4678850000000  0.5743750000000 1.0
C      1  0.5317630000000  0.4557890000000  0.4706980000000 1.0
C      1  0.5136620000000  0.4432440000000  0.4919560000000 1.0
C      1  0.5143390000000  0.5633860000000  0.4650810000000 1.0
C      1  0.5060240000000  0.5693510000000  0.5244730000000 1.0
C      1  0.5366410000000  0.4777990000000  0.5276690000000 1.0
C      1  0.5596820000000  0.4382460000000  0.5181210000000 1.0
C      1  0.5026490000000  0.5109250000000  0.5835970000000 1.0
C      1  0.5460180000000  0.4533920000000  0.5438000000000 1.0
C      1  0.5113580000000  0.4676630000000  0.5128850000000 1.0
C      1  0.5303150000000  0.5335610000000  0.5459830000000 1.0
C      1  0.5256390000000  0.4845120000000  0.4748430000000 1.0
C      1  0.4304910000000  0.5147510000000  0.5098670000000 1.0
C      1  0.4342810000000  0.5256120000000  0.4827790000000 1.0
C      1  0.4850090000000  0.5283320000000  0.5683300000000 1.0
C      1  0.4614140000000  0.5146480000000  0.5553230000000 1.0
C      1  0.4922710000000  0.5450250000000  0.4710130000000 1.0
C      1  0.4956670000000  0.4953310000000  0.4131390000000 1.0
C      1  0.5389170000000  0.5561260000000  0.4775970000000 1.0
C      1  0.5678330000000  0.4776530000000  0.4699470000000 1.0
C      1  0.5277380000000  0.4282100000000  0.5157890000000 1.0
C      1  0.4610410000000  0.4838610000000  0.5551160000000 1.0
C      1  0.4467920000000  0.4658140000000  0.5088050000000 1.0
C      1  0.4531680000000  0.5052990000000  0.4716250000000 1.0
C      1  0.4716850000000  0.4697960000000  0.4565090000000 1.0
C      1  0.4866960000000  0.4364710000000  0.4777400000000 1.0
C      1  0.5488700000000  0.5277660000000  0.4664860000000 1.0
C      1  0.4530220000000  0.4916900000000  0.4431600000000 1.0
C      1  0.5003530000000  0.5313900000000  0.5010590000000 1.0
C      1  0.5395440000000  0.5172120000000  0.4378720000000 1.0
C      1  0.4788130000000  0.4988950000000  0.4858130000000 1.0
C      1  0.4913940000000  0.4463350000000  0.4464990000000 1.0
C      1  0.5297410000000  0.5029080000000  0.5427780000000 1.0
C      1  0.4537660000000  0.5601310000000  0.5127040000000 1.0
C      1  0.5169530000000  0.4891650000000  0.4339480000000 1.0
C      1  0.5134320000000  0.5306960000000  0.4290190000000 1.0
C      1  0.4446460000000  0.5533420000000  0.4848620000000 1.0
C      1  0.4665880000000  0.5583770000000  0.4675160000000 1.0
C      1  0.4911560000000  0.4485760000000  0.5302620000000 1.0
C      1  0.4670040000000  0.4705530000000  0.5292800000000 1.0
C      1  0.5255660000000  0.5138660000000  0.5085440000000 1.0
C      1  0.5734670000000  0.4599470000000  0.4986390000000 1.0
C      1  0.5191710000000  0.4580390000000  0.4425780000000 1.0
C      1  0.5020660000000  0.5461960000000  0.5483660000000 1.0
C      1  0.5486820000000  0.5481890000000  0.5288910000000 1.0
C      1  0.5060920000000  0.4636450000000  0.5692450000000 1.0
C      1  0.4985250000000  0.4941160000000  0.4622710000000 1.0
C      1  0.5180820000000  0.4911030000000  0.5690420000000 1.0
C      1  0.4254820000000  0.4857740000000  0.5102220000000 1.0
C      1  0.4675550000000  0.5021180000000  0.4193360000000 1.0
C      1  0.4575210000000  0.4538360000000  0.4825870000000 1.0
C      1  0.5580920000000  0.4852190000000  0.5099350000000 1.0
END
