TITL C-3985245-9316-326 -1.80165022971976e-07 125000 -341.110860689353 0 0 60 (C6) n - 1
REM
REM in /home/nfs/bkarasulu/CARBON/AIRSS/Generating-Clusters/TERSOFF/Higher-Symm/Only-C60
REM
REM
REM
REM
REM
REM ./C.cell (28575a23ae977d3b5fae324c64b13b57)
REM
REM compiler GCC version 9.2.1 20190827 (Red Hat 9.2.1-1)
REM options -cpp -mtune=generic -march=x86-64 -g -O0 -fpre-include=/usr/include/finclude/math-vector-fortran.h
REM seed 1127136065 2102765044 2130963637 1243306954 -1102537821 -370677494 279064387 -737925362 861959057 1213973364 -1744779856 1678689626 -1945070858 -661673724 -410885656 -851923974 960662007 -1150151902 -518888282 67321147 -901446545 -1404180619 666251549 -869512559 482087219 1226932652 -1034796841 1465358735 -1758636846 -318977786 987568063 -1121728742 -1863957183
REM
CELL 1.54180   50.00000   50.00000   50.00000   90.00000   90.00000   90.00000
LATT -1
SFAC C  
C      1  0.4286770000000  0.4848230000000  0.5272060000000 1.0
C      1  0.4774820000000  0.4306440000000  0.5272060000000 1.0
C      1  0.5488050000000  0.4458210000000  0.5272060000000 1.0
C      1  0.5713230000000  0.5151770000000  0.5272060000000 1.0
C      1  0.5225180000000  0.5693560000000  0.5272060000000 1.0
C      1  0.4511950000000  0.5541790000000  0.5272060000000 1.0
C      1  0.5384600000000  0.4362360000000  0.4782950000000 1.0
C      1  0.5744510000000  0.5014250000000  0.4782950000000 1.0
C      1  0.5359910000000  0.5651890000000  0.4782950000000 1.0
C      1  0.4615400000000  0.5637640000000  0.4782950000000 1.0
C      1  0.4255490000000  0.4985750000000  0.4782950000000 1.0
C      1  0.4640090000000  0.4348110000000  0.4782950000000 1.0
C      1  0.4971660000000  0.5365770000000  0.4475450000000 1.0
C      1  0.4669060000000  0.5158340000000  0.4475450000000 1.0
C      1  0.4697400000000  0.4792570000000  0.4475450000000 1.0
C      1  0.5028340000000  0.4634230000000  0.4475450000000 1.0
C      1  0.5330940000000  0.4841660000000  0.4475450000000 1.0
C      1  0.5302600000000  0.5207430000000  0.4475450000000 1.0
C      1  0.4691490000000  0.5115520000000  0.4826140000000 1.0
C      1  0.4745700000000  0.4790580000000  0.4826140000000 1.0
C      1  0.5054210000000  0.4675060000000  0.4826140000000 1.0
C      1  0.5308510000000  0.4884480000000  0.4826140000000 1.0
C      1  0.5254300000000  0.5209420000000  0.4826140000000 1.0
C      1  0.4945790000000  0.5324940000000  0.4826140000000 1.0
C      1  0.4998630000000  0.5300810000000  0.5540760000000 1.0
C      1  0.4738810000000  0.5149220000000  0.5540760000000 1.0
C      1  0.4740180000000  0.4848410000000  0.5540760000000 1.0
C      1  0.5001370000000  0.4699190000000  0.5540760000000 1.0
C      1  0.5261190000000  0.4850780000000  0.5540760000000 1.0
C      1  0.5259820000000  0.5151590000000  0.5540760000000 1.0
C      1  0.5619480000000  0.5040880000000  0.4516710000000 1.0
C      1  0.5274340000000  0.5556930000000  0.4516710000000 1.0
C      1  0.4654850000000  0.5516050000000  0.4516710000000 1.0
C      1  0.4380520000000  0.4959120000000  0.4516710000000 1.0
C      1  0.4725660000000  0.4443070000000  0.4516710000000 1.0
C      1  0.5345150000000  0.4483950000000  0.4516710000000 1.0
C      1  0.5507120000000  0.4716430000000  0.5429720000000 1.0
C      1  0.5499130000000  0.5297390000000  0.5429720000000 1.0
C      1  0.4992020000000  0.5580960000000  0.5429720000000 1.0
C      1  0.4492880000000  0.5283570000000  0.5429720000000 1.0
C      1  0.4500870000000  0.4702610000000  0.5429720000000 1.0
C      1  0.5007980000000  0.4419040000000  0.5429720000000 1.0
C      1  0.5599490000000  0.4793630000000  0.4949900000000 1.0
C      1  0.5478470000000  0.5415990000000  0.4949900000000 1.0
C      1  0.4878980000000  0.5622360000000  0.4949900000000 1.0
C      1  0.4400510000000  0.5206370000000  0.4949900000000 1.0
C      1  0.4521530000000  0.4584010000000  0.4949900000000 1.0
C      1  0.5121020000000  0.4377640000000  0.4949900000000 1.0
C      1  0.5739350000000  0.5253630000000  0.4972850000000 1.0
C      1  0.5150020000000  0.5767120000000  0.4972850000000 1.0
C      1  0.4410670000000  0.5513480000000  0.4972850000000 1.0
C      1  0.4260650000000  0.4746370000000  0.4972850000000 1.0
C      1  0.4849980000000  0.4232880000000  0.4972850000000 1.0
C      1  0.5589330000000  0.4486520000000  0.4972850000000 1.0
C      1  0.5438170000000  0.5504390000000  0.5233440000000 1.0
C      1  0.4782270000000  0.5631660000000  0.5233440000000 1.0
C      1  0.4344100000000  0.5127270000000  0.5233440000000 1.0
C      1  0.4561830000000  0.4495610000000  0.5233440000000 1.0
C      1  0.5217730000000  0.4368340000000  0.5233440000000 1.0
C      1  0.5655900000000  0.4872730000000  0.5233440000000 1.0
END
