TITL C-3985259-1859-597 5.10526765308546e-06 125000 -332.946799788678 0 0 60 (C3) n - 1
REM
REM in /home/nfs/bkarasulu/CARBON/AIRSS/Generating-Clusters/TERSOFF/Higher-Symm/Only-C60
REM
REM
REM
REM
REM
REM ./C.cell (28575a23ae977d3b5fae324c64b13b57)
REM
REM compiler GCC version 9.2.1 20190827 (Red Hat 9.2.1-1)
REM options -cpp -mtune=generic -march=x86-64 -g -O0 -fpre-include=/usr/include/finclude/math-vector-fortran.h
REM seed 1655516904 -1804875776 520584562 1089226558 -1283704992 160315307 -649747949 1865820655 309423993 1395328343 -159110699 1491414878 687923671 2105947342 -1336962457 382824762 1998103943 -2043140469 -375682025 1965837602 -281609593 1506482456 601091081 -1919795881 -357152022 591440303 -978431667 -1470206713 117332867 133762137 874676288 1841105621 -575032154
REM
CELL 1.54180   50.00000   50.00000   50.00000   90.00000   90.00000   90.00000
LATT -1
SFAC C  
C      1  0.5560340000000  0.4624750000000  0.5213610000000 1.0
C      1  0.5560480000000  0.5372570000000  0.5217930000000 1.0
C      1  0.5560280000000  0.5002340000000  0.4568180000000 1.0
C      1  0.4697220000000  0.5337210000000  0.4720060000000 1.0
C      1  0.4697110000000  0.4589020000000  0.4848090000000 1.0
C      1  0.4697280000000  0.5073980000000  0.5432030000000 1.0
C      1  0.5596530000000  0.5417030000000  0.4899420000000 1.0
C      1  0.5596360000000  0.4704240000000  0.4688830000000 1.0
C      1  0.5596530000000  0.4878340000000  0.5411400000000 1.0
C      1  0.5067600000000  0.4491150000000  0.5455460000000 1.0
C      1  0.5067760000000  0.5648870000000  0.5212920000000 1.0
C      1  0.5067450000000  0.4859940000000  0.4331620000000 1.0
C      1  0.5167260000000  0.5064650000000  0.5657870000000 1.0
C      1  0.5167190000000  0.5537380000000  0.4614990000000 1.0
C      1  0.5166960000000  0.4397840000000  0.4727020000000 1.0
C      1  0.5716250000000  0.5196020000000  0.4746120000000 1.0
C      1  0.5716210000000  0.4681920000000  0.4956820000000 1.0
C      1  0.5716350000000  0.5121570000000  0.5296700000000 1.0
C      1  0.4879440000000  0.5138590000000  0.4617000000000 1.0
C      1  0.4879400000000  0.4599050000000  0.5071560000000 1.0
C      1  0.4879560000000  0.5262470000000  0.5311540000000 1.0
C      1  0.4973310000000  0.5157070000000  0.4333080000000 1.0
C      1  0.4973320000000  0.4343890000000  0.5197430000000 1.0
C      1  0.4973550000000  0.5499070000000  0.5469520000000 1.0
C      1  0.4608850000000  0.5206830000000  0.4995450000000 1.0
C      1  0.4608770000000  0.4892720000000  0.4823340000000 1.0
C      1  0.4608810000000  0.4900710000000  0.5181420000000 1.0
C      1  0.5459940000000  0.5456930000000  0.5502280000000 1.0
C      1  0.5459710000000  0.5206420000000  0.4352970000000 1.0
C      1  0.5459690000000  0.4336360000000  0.5144510000000 1.0
C      1  0.5074330000000  0.4822360000000  0.5090880000000 1.0
C      1  0.5074400000000  0.5167520000000  0.5108420000000 1.0
C      1  0.5074320000000  0.5010120000000  0.4800730000000 1.0
C      1  0.4841400000000  0.4640410000000  0.5589860000000 1.0
C      1  0.4841500000000  0.5690680000000  0.5016540000000 1.0
C      1  0.4841180000000  0.4669000000000  0.4393670000000 1.0
C      1  0.5249660000000  0.4679850000000  0.5283320000000 1.0
C      1  0.5249760000000  0.5405420000000  0.5135510000000 1.0
C      1  0.5249560000000  0.4914580000000  0.4581090000000 1.0
C      1  0.4171200000000  0.4837650000000  0.5132090000000 1.0
C      1  0.4171260000000  0.5195700000000  0.5074900000000 1.0
C      1  0.4171170000000  0.4967150000000  0.4793420000000 1.0
C      1  0.4413890000000  0.5376820000000  0.5177010000000 1.0
C      1  0.4413720000000  0.4964980000000  0.4585420000000 1.0
C      1  0.4413770000000  0.4658560000000  0.5237860000000 1.0
C      1  0.5201130000000  0.4289300000000  0.5010980000000 1.0
C      1  0.5201430000000  0.5364840000000  0.5609910000000 1.0
C      1  0.5201240000000  0.5345730000000  0.4379000000000 1.0
C      1  0.4552520000000  0.4569570000000  0.5509770000000 1.0
C      1  0.4552640000000  0.5656780000000  0.5118030000000 1.0
C      1  0.4552340000000  0.4773910000000  0.4372400000000 1.0
C      1  0.4884060000000  0.4491560000000  0.4631490000000 1.0
C      1  0.4884330000000  0.4935090000000  0.5624610000000 1.0
C      1  0.4884320000000  0.5573420000000  0.4743950000000 1.0
C      1  0.4472020000000  0.5273100000000  0.5459190000000 1.0
C      1  0.4471880000000  0.5261210000000  0.4534130000000 1.0
C      1  0.4471800000000  0.4466020000000  0.5006930000000 1.0
C      1  0.5413030000000  0.4491060000000  0.4587430000000 1.0
C      1  0.5413310000000  0.4897130000000  0.5646820000000 1.0
C      1  0.5413310000000  0.5611530000000  0.4765480000000 1.0
END
