TITL C-3985250-725-1012 -0.000141097810419959 125000 -330.573154085304 0 0 60 (C1) n - 1
REM
REM in /home/nfs/bkarasulu/CARBON/AIRSS/Generating-Clusters/TERSOFF/Higher-Symm/Only-C60
REM
REM
REM
REM
REM
REM ./C.cell (28575a23ae977d3b5fae324c64b13b57)
REM
REM compiler GCC version 9.2.1 20190827 (Red Hat 9.2.1-1)
REM options -cpp -mtune=generic -march=x86-64 -g -O0 -fpre-include=/usr/include/finclude/math-vector-fortran.h
REM seed 816875790 -1517387808 -562048254 -1244284467 984227076 -1277067410 -24520852 -591263030 927673483 -698063693 2058107712 -1312706488 -1233915674 326229676 100038465 -467693694 -671321011 1190499797 2055823148 1002728790 -419109870 765867739 -1956655174 106782326 1307906149 -302073568 491545846 -1435552624 1373358255 -772704392 -831688123 -2132971960 287837278
REM
CELL 1.54180   50.00000   50.00000   50.00000   90.00000   90.00000   90.00000
LATT -1
SFAC C  
C      1  0.4298040000000  0.4954820000000  0.4592350000000 1.0
C      1  0.4724400000000  0.5586430000000  0.4602150000000 1.0
C      1  0.5553560000000  0.5427380000000  0.4557130000000 1.0
C      1  0.5654820000000  0.4621550000000  0.4618960000000 1.0
C      1  0.4835400000000  0.4318060000000  0.4565280000000 1.0
C      1  0.4278210000000  0.5045750000000  0.5427340000000 1.0
C      1  0.4744090000000  0.4326360000000  0.5423240000000 1.0
C      1  0.5508560000000  0.4559580000000  0.5430790000000 1.0
C      1  0.5606610000000  0.5379610000000  0.5396730000000 1.0
C      1  0.4847930000000  0.5669390000000  0.5415670000000 1.0
C      1  0.4448650000000  0.4661260000000  0.5160890000000 1.0
C      1  0.4463440000000  0.5444800000000  0.5177370000000 1.0
C      1  0.5257630000000  0.5576420000000  0.5116710000000 1.0
C      1  0.5671690000000  0.4937260000000  0.5148940000000 1.0
C      1  0.5139570000000  0.4392400000000  0.5126050000000 1.0
C      1  0.4412220000000  0.5339540000000  0.4892260000000 1.0
C      1  0.4531620000000  0.4581880000000  0.4865560000000 1.0
C      1  0.5260150000000  0.4409520000000  0.4843750000000 1.0
C      1  0.5670760000000  0.5040810000000  0.4848430000000 1.0
C      1  0.5153300000000  0.5604040000000  0.4830560000000 1.0
C      1  0.5059630000000  0.5351800000000  0.4356990000000 1.0
C      1  0.5236600000000  0.5084310000000  0.4626870000000 1.0
C      1  0.5282710000000  0.4704650000000  0.4443640000000 1.0
C      1  0.4866640000000  0.4730460000000  0.4492790000000 1.0
C      1  0.4689180000000  0.5103770000000  0.4559710000000 1.0
C      1  0.4977900000000  0.4658790000000  0.5528280000000 1.0
C      1  0.5239110000000  0.4906570000000  0.5314130000000 1.0
C      1  0.5231940000000  0.5258050000000  0.5542180000000 1.0
C      1  0.4863730000000  0.5233790000000  0.5343150000000 1.0
C      1  0.4662280000000  0.4932920000000  0.5553620000000 1.0
C      1  0.4645200000000  0.4309840000000  0.4785190000000 1.0
C      1  0.4205930000000  0.5129990000000  0.4806810000000 1.0
C      1  0.4891530000000  0.5748650000000  0.4772900000000 1.0
C      1  0.5726610000000  0.5332420000000  0.4769290000000 1.0
C      1  0.5565820000000  0.4423710000000  0.4807250000000 1.0
C      1  0.4634900000000  0.5699490000000  0.5219140000000 1.0
C      1  0.4220910000000  0.4854080000000  0.5220960000000 1.0
C      1  0.4897430000000  0.4224350000000  0.5198890000000 1.0
C      1  0.5708140000000  0.4641420000000  0.5235270000000 1.0
C      1  0.5552940000000  0.5560480000000  0.5181620000000 1.0
C      1  0.5499790000000  0.4892930000000  0.4610990000000 1.0
C      1  0.5082900000000  0.4501220000000  0.4587050000000 1.0
C      1  0.4556960000000  0.4787980000000  0.4633920000000 1.0
C      1  0.4661640000000  0.5331870000000  0.4733500000000 1.0
C      1  0.5261120000000  0.5421210000000  0.4605620000000 1.0
C      1  0.5506230000000  0.5091680000000  0.5377250000000 1.0
C      1  0.5075830000000  0.5485540000000  0.5347970000000 1.0
C      1  0.4524680000000  0.5230650000000  0.5404250000000 1.0
C      1  0.4637680000000  0.4618470000000  0.5416930000000 1.0
C      1  0.5224740000000  0.4580900000000  0.5342750000000 1.0
C      1  0.4728410000000  0.5858740000000  0.4990740000000 1.0
C      1  0.4728520000000  0.4130120000000  0.4989780000000 1.0
C      1  0.5749060000000  0.5534480000000  0.4973050000000 1.0
C      1  0.5738280000000  0.4434020000000  0.5037290000000 1.0
C      1  0.4072370000000  0.4974450000000  0.5007820000000 1.0
C      1  0.4996050000000  0.5000010000000  0.5537500000000 1.0
C      1  0.4972780000000  0.5037300000000  0.4432650000000 1.0
C      1  0.4886750000000  0.5293080000000  0.4928020000000 1.0
C      1  0.4878130000000  0.4817600000000  0.5118730000000 1.0
C      1  0.5010580000000  0.5039300000000  0.4987710000000 1.0
END
