TITL C-3985251-913-613 -0.000242622045695975 125000 -360.367374606657 0 0 60 (C1) n - 1
REM
REM in /home/nfs/bkarasulu/CARBON/AIRSS/Generating-Clusters/TERSOFF/Higher-Symm/Only-C60
REM
REM
REM
REM
REM
REM ./C.cell (28575a23ae977d3b5fae324c64b13b57)
REM
REM compiler GCC version 9.2.1 20190827 (Red Hat 9.2.1-1)
REM options -cpp -mtune=generic -march=x86-64 -g -O0 -fpre-include=/usr/include/finclude/math-vector-fortran.h
REM seed -1163297647 361138334 895070137 -910842607 -1068410766 -2021304659 -1721732289 775239573 867913909 806238196 -1788190782 1788178815 -198976660 876994352 -1404039959 1946386014 951270180 -1970718966 569003458 -1582074333 1127817682 2052897560 1441382614 1347498737 204154605 831163541 -1538097340 -1345427308 480785416 1779292276 971569615 1888378219 -1533165581
REM
CELL 1.54180   50.00000   50.00000   50.00000   90.00000   90.00000   90.00000
LATT -1
SFAC C  
C      1  0.5105320000000  0.4852280000000  0.5692810000000 1.0
C      1  0.5148210000000  0.5609030000000  0.5331060000000 1.0
C      1  0.5162500000000  0.5569070000000  0.4486390000000 1.0
C      1  0.5126980000000  0.4694240000000  0.4358610000000 1.0
C      1  0.5160480000000  0.4270660000000  0.5065750000000 1.0
C      1  0.5104570000000  0.5148640000000  0.5694130000000 1.0
C      1  0.5145620000000  0.4391340000000  0.5329180000000 1.0
C      1  0.5163380000000  0.4432260000000  0.4491990000000 1.0
C      1  0.5134590000000  0.5296210000000  0.4375050000000 1.0
C      1  0.5166240000000  0.5719630000000  0.5062720000000 1.0
C      1  0.5359950000000  0.5286770000000  0.5672110000000 1.0
C      1  0.5420990000000  0.5698910000000  0.4916670000000 1.0
C      1  0.5378350000000  0.5145040000000  0.4327340000000 1.0
C      1  0.5419790000000  0.4376460000000  0.4626040000000 1.0
C      1  0.5386690000000  0.4502630000000  0.5447820000000 1.0
C      1  0.5361770000000  0.4715780000000  0.5665320000000 1.0
C      1  0.5414000000000  0.4284470000000  0.4921600000000 1.0
C      1  0.5367170000000  0.4840450000000  0.4290170000000 1.0
C      1  0.5416950000000  0.5640330000000  0.4609860000000 1.0
C      1  0.5387700000000  0.5506350000000  0.5460110000000 1.0
C      1  0.5646560000000  0.4602670000000  0.4667850000000 1.0
C      1  0.5626480000000  0.4629770000000  0.5266080000000 1.0
C      1  0.5603320000000  0.5151170000000  0.5521500000000 1.0
C      1  0.5652190000000  0.5491130000000  0.5004460000000 1.0
C      1  0.5634260000000  0.5163860000000  0.4530160000000 1.0
C      1  0.5633840000000  0.5423120000000  0.4682190000000 1.0
C      1  0.5634640000000  0.5388470000000  0.5290530000000 1.0
C      1  0.5602510000000  0.4856410000000  0.5515050000000 1.0
C      1  0.5632180000000  0.4503150000000  0.4988310000000 1.0
C      1  0.5614220000000  0.4835890000000  0.4485560000000 1.0
C      1  0.4872550000000  0.4847770000000  0.4397660000000 1.0
C      1  0.4914940000000  0.4239230000000  0.4906520000000 1.0
C      1  0.4860540000000  0.4707130000000  0.5610470000000 1.0
C      1  0.4884680000000  0.5524190000000  0.5427010000000 1.0
C      1  0.4928740000000  0.5700490000000  0.4597810000000 1.0
C      1  0.4875730000000  0.5146670000000  0.4402550000000 1.0
C      1  0.4919190000000  0.5755920000000  0.4904710000000 1.0
C      1  0.4860660000000  0.5293480000000  0.5610290000000 1.0
C      1  0.4883260000000  0.4476480000000  0.5427080000000 1.0
C      1  0.4929490000000  0.4297100000000  0.4600420000000 1.0
C      1  0.4601080000000  0.4402150000000  0.4981200000000 1.0
C      1  0.4603010000000  0.4840390000000  0.5654290000000 1.0
C      1  0.4652360000000  0.5624870000000  0.5286550000000 1.0
C      1  0.4673930000000  0.5544250000000  0.4638190000000 1.0
C      1  0.4636930000000  0.4708530000000  0.4507710000000 1.0
C      1  0.4603840000000  0.5595540000000  0.4979970000000 1.0
C      1  0.4603130000000  0.5160830000000  0.5653900000000 1.0
C      1  0.4650070000000  0.4375790000000  0.5288110000000 1.0
C      1  0.4672620000000  0.4452380000000  0.4638510000000 1.0
C      1  0.4639250000000  0.5287430000000  0.4508930000000 1.0
C      1  0.4346980000000  0.5158760000000  0.5459700000000 1.0
C      1  0.4345040000000  0.5416350000000  0.5008500000000 1.0
C      1  0.4398770000000  0.5143300000000  0.4581180000000 1.0
C      1  0.4234700000000  0.4717390000000  0.4776560000000 1.0
C      1  0.4236500000000  0.4639580000000  0.5274790000000 1.0
C      1  0.4345240000000  0.4840310000000  0.5460710000000 1.0
C      1  0.4343380000000  0.4582490000000  0.5009560000000 1.0
C      1  0.4397820000000  0.4854150000000  0.4581400000000 1.0
C      1  0.4235970000000  0.5281580000000  0.4775570000000 1.0
C      1  0.4238130000000  0.5359290000000  0.5273760000000 1.0
END
