TITL C-3985248-2097-114 -1.35469249453305e-07 125000 -364.123072527751 0 0 60 (D5h) n - 1
REM
REM in /home/nfs/bkarasulu/CARBON/AIRSS/Generating-Clusters/TERSOFF/Higher-Symm/Only-C60
REM
REM
REM
REM
REM
REM ./C.cell (28575a23ae977d3b5fae324c64b13b57)
REM
REM compiler GCC version 9.2.1 20190827 (Red Hat 9.2.1-1)
REM options -cpp -mtune=generic -march=x86-64 -g -O0 -fpre-include=/usr/include/finclude/math-vector-fortran.h
REM seed -867117311 -455485608 -1334136277 986923511 -705683589 -439772176 -685223537 2066920026 -169451489 -1127830286 -969568509 34850802 -74252637 -1120135561 1235003542 -1284811376 -324017425 -742663205 1670762659 1459117808 -1818344417 52433389 -159182210 -1290471707 1757646722 -1913140210 138226983 1028710278 -944162109 -1243938756 1538763320 -1764165812 1763363792
REM
CELL 1.54180   50.00000   50.00000   50.00000   90.00000   90.00000   90.00000
LATT -1
SFAC C  
C      1  0.4999990000000  0.5264710000000  0.5168380000000 1.0
C      1  0.4748240000000  0.5081800000000  0.5168370000000 1.0
C      1  0.4844400000000  0.4785850000000  0.5168380000000 1.0
C      1  0.5155580000000  0.4785850000000  0.5168390000000 1.0
C      1  0.5251740000000  0.5081800000000  0.5168400000000 1.0
C      1  0.5000010000000  0.5264710000000  0.4831620000000 1.0
C      1  0.5251760000000  0.5081800000000  0.4831630000000 1.0
C      1  0.5155600000000  0.4785850000000  0.4831620000000 1.0
C      1  0.4844420000000  0.4785850000000  0.4831610000000 1.0
C      1  0.4748260000000  0.5081800000000  0.4831600000000 1.0
C      1  0.4751330000000  0.5080790000000  0.5602130000000 1.0
C      1  0.4846300000000  0.4788490000000  0.5602130000000 1.0
C      1  0.5153640000000  0.4788490000000  0.5602140000000 1.0
C      1  0.5248620000000  0.5080790000000  0.5602150000000 1.0
C      1  0.4999970000000  0.5261440000000  0.5602140000000 1.0
C      1  0.5248670000000  0.5080790000000  0.4397870000000 1.0
C      1  0.5153700000000  0.4788490000000  0.4397870000000 1.0
C      1  0.4846360000000  0.4788490000000  0.4397860000000 1.0
C      1  0.4751380000000  0.5080790000000  0.4397850000000 1.0
C      1  0.5000030000000  0.5261440000000  0.4397860000000 1.0
C      1  0.4432510000000  0.4658350000000  0.5258420000000 1.0
C      1  0.5149560000000  0.4354720000000  0.5258450000000 1.0
C      1  0.5659900000000  0.4942850000000  0.5258480000000 1.0
C      1  0.5258270000000  0.5609960000000  0.5258460000000 1.0
C      1  0.4499700000000  0.5434130000000  0.5258420000000 1.0
C      1  0.5567490000000  0.4658350000000  0.4741580000000 1.0
C      1  0.4850440000000  0.4354720000000  0.4741550000000 1.0
C      1  0.4340100000000  0.4942850000000  0.4741520000000 1.0
C      1  0.4741730000000  0.5609960000000  0.4741540000000 1.0
C      1  0.5500300000000  0.5434130000000  0.4741580000000 1.0
C      1  0.5000020000000  0.5488350000000  0.4614470000000 1.0
C      1  0.4535570000000  0.5150910000000  0.4614440000000 1.0
C      1  0.4712970000000  0.4604910000000  0.4614450000000 1.0
C      1  0.5287070000000  0.4604910000000  0.4614480000000 1.0
C      1  0.5464470000000  0.5150910000000  0.4614490000000 1.0
C      1  0.4999980000000  0.5488350000000  0.5385530000000 1.0
C      1  0.5464430000000  0.5150910000000  0.5385560000000 1.0
C      1  0.5287030000000  0.4604910000000  0.5385550000000 1.0
C      1  0.4712930000000  0.4604910000000  0.5385520000000 1.0
C      1  0.4535530000000  0.5150910000000  0.5385510000000 1.0
C      1  0.4741710000000  0.5609950000000  0.5258430000000 1.0
C      1  0.4340070000000  0.4942850000000  0.5258420000000 1.0
C      1  0.4850420000000  0.4354720000000  0.5258440000000 1.0
C      1  0.5567460000000  0.4658350000000  0.5258470000000 1.0
C      1  0.5500280000000  0.5434130000000  0.5258470000000 1.0
C      1  0.5258290000000  0.5609950000000  0.4741570000000 1.0
C      1  0.5659930000000  0.4942850000000  0.4741580000000 1.0
C      1  0.5149580000000  0.4354720000000  0.4741560000000 1.0
C      1  0.4432540000000  0.4658350000000  0.4741530000000 1.0
C      1  0.4499720000000  0.5434130000000  0.4741530000000 1.0
C      1  0.4255150000000  0.5077370000000  0.4999960000000 1.0
C      1  0.4696240000000  0.4315520000000  0.4999990000000 1.0
C      1  0.5557110000000  0.4499590000000  0.5000030000000 1.0
C      1  0.5648070000000  0.5375210000000  0.5000030000000 1.0
C      1  0.4843420000000  0.5732300000000  0.4999990000000 1.0
C      1  0.5744850000000  0.5077370000000  0.5000040000000 1.0
C      1  0.5303760000000  0.4315520000000  0.5000010000000 1.0
C      1  0.4442890000000  0.4499590000000  0.4999970000000 1.0
C      1  0.4351930000000  0.5375210000000  0.4999970000000 1.0
C      1  0.5156580000000  0.5732300000000  0.5000010000000 1.0
END
