TITL C-3985254-1270-819 0.00247865164725175 125000 -318.699614073884 0 0 60 (C5) n - 1
REM
REM in /home/nfs/bkarasulu/CARBON/AIRSS/Generating-Clusters/TERSOFF/Higher-Symm/Only-C60
REM
REM
REM
REM
REM
REM ./C.cell (28575a23ae977d3b5fae324c64b13b57)
REM
REM compiler GCC version 9.2.1 20190827 (Red Hat 9.2.1-1)
REM options -cpp -mtune=generic -march=x86-64 -g -O0 -fpre-include=/usr/include/finclude/math-vector-fortran.h
REM seed -1728108720 546678239 133512685 -1426021601 933935494 1188476976 241590250 832719210 108633751 -800839636 -1800620124 30940954 -1201639655 -663894207 -2087186034 -905223675 1081748012 2080913844 -1883305123 -155910716 -1763990139 -1752130919 1561734294 1860426077 789376826 -253001811 1248772094 -1090367077 1665867452 163374081 -806885523 -522077305 1203989311
REM
CELL 1.54180   50.00000   50.00000   50.00000   90.00000   90.00000   90.00000
LATT -1
SFAC C  
C      1  0.4838230000000  0.5229350000000  0.4862310000000 1.0
C      1  0.4838340000000  0.5201590000000  0.5175520000000 1.0
C      1  0.4838160000000  0.4895140000000  0.5246060000000 1.0
C      1  0.4838230000000  0.4733560000000  0.4976500000000 1.0
C      1  0.4838330000000  0.4940210000000  0.4739310000000 1.0
C      1  0.5161770000000  0.5229350000000  0.4862310000000 1.0
C      1  0.5161660000000  0.5201590000000  0.5175520000000 1.0
C      1  0.5161840000000  0.4895140000000  0.5246060000000 1.0
C      1  0.5161770000000  0.4733560000000  0.4976500000000 1.0
C      1  0.5161670000000  0.4940210000000  0.4739310000000 1.0
C      1  0.4844530000000  0.5477570000000  0.4270270000000 1.0
C      1  0.4844660000000  0.5841590000000  0.5228590000000 1.0
C      1  0.4844600000000  0.5042670000000  0.5871050000000 1.0
C      1  0.4844500000000  0.4184680000000  0.5309650000000 1.0
C      1  0.4844600000000  0.4453480000000  0.4320370000000 1.0
C      1  0.5155470000000  0.5477570000000  0.4270270000000 1.0
C      1  0.5155340000000  0.5841590000000  0.5228590000000 1.0
C      1  0.5155400000000  0.5042670000000  0.5871050000000 1.0
C      1  0.5155500000000  0.4184680000000  0.5309650000000 1.0
C      1  0.5155400000000  0.4453480000000  0.4320370000000 1.0
C      1  0.4605750000000  0.4913650000000  0.4562950000000 1.0
C      1  0.4605980000000  0.5388760000000  0.4782590000000 1.0
C      1  0.4605720000000  0.5327110000000  0.5302660000000 1.0
C      1  0.4605710000000  0.4813310000000  0.5404400000000 1.0
C      1  0.4605700000000  0.4557730000000  0.4947410000000 1.0
C      1  0.5394250000000  0.4913650000000  0.4562950000000 1.0
C      1  0.5394020000000  0.5388760000000  0.4782590000000 1.0
C      1  0.5394280000000  0.5327110000000  0.5302660000000 1.0
C      1  0.5394290000000  0.4813310000000  0.5404400000000 1.0
C      1  0.5394300000000  0.4557730000000  0.4947410000000 1.0
C      1  0.5366870000000  0.4594690000000  0.5593040000000 1.0
C      1  0.5366720000000  0.4310820000000  0.4797760000000 1.0
C      1  0.5366670000000  0.4979270000000  0.4282130000000 1.0
C      1  0.5366830000000  0.5676560000000  0.4758360000000 1.0
C      1  0.5366720000000  0.5438600000000  0.5568660000000 1.0
C      1  0.4633130000000  0.4594690000000  0.5593040000000 1.0
C      1  0.4633280000000  0.4310820000000  0.4797760000000 1.0
C      1  0.4633330000000  0.4979270000000  0.4282130000000 1.0
C      1  0.4633170000000  0.5676560000000  0.4758360000000 1.0
C      1  0.4633280000000  0.5438600000000  0.5568660000000 1.0
C      1  0.4825470000000  0.5344980000000  0.5771450000000 1.0
C      1  0.4825700000000  0.4372990000000  0.5566430000000 1.0
C      1  0.4825540000000  0.4267530000000  0.4578660000000 1.0
C      1  0.4825470000000  0.5174280000000  0.4173150000000 1.0
C      1  0.4825610000000  0.5840140000000  0.4910580000000 1.0
C      1  0.5174530000000  0.5344980000000  0.5771450000000 1.0
C      1  0.5174300000000  0.4372990000000  0.5566430000000 1.0
C      1  0.5174460000000  0.4267530000000  0.4578660000000 1.0
C      1  0.5174530000000  0.5174280000000  0.4173150000000 1.0
C      1  0.5174390000000  0.5840140000000  0.4910580000000 1.0
C      1  0.5645670000000  0.5234780000000  0.4871470000000 1.0
C      1  0.5645510000000  0.5194720000000  0.5183680000000 1.0
C      1  0.5645570000000  0.4885520000000  0.5241900000000 1.0
C      1  0.5645500000000  0.4734490000000  0.4965990000000 1.0
C      1  0.5645490000000  0.4950240000000  0.4737100000000 1.0
C      1  0.4354330000000  0.5234780000000  0.4871470000000 1.0
C      1  0.4354490000000  0.5194720000000  0.5183680000000 1.0
C      1  0.4354430000000  0.4885520000000  0.5241900000000 1.0
C      1  0.4354500000000  0.4734490000000  0.4965990000000 1.0
C      1  0.4354510000000  0.4950240000000  0.4737100000000 1.0
END
