TITL C-3985259-1859-1059 -0.000548749607619599 125000 -325.194935252016 0 0 60 (C2) n - 1
REM
REM in /home/nfs/bkarasulu/CARBON/AIRSS/Generating-Clusters/TERSOFF/Higher-Symm/Only-C60
REM
REM
REM
REM
REM
REM ./C.cell (28575a23ae977d3b5fae324c64b13b57)
REM
REM compiler GCC version 9.2.1 20190827 (Red Hat 9.2.1-1)
REM options -cpp -mtune=generic -march=x86-64 -g -O0 -fpre-include=/usr/include/finclude/math-vector-fortran.h
REM seed 2007194442 -1822244424 -418019134 8918730 2018644108 -288176893 1710985186 1833211146 830617127 -490270460 1098479043 -221765755 1361357378 1367417428 151622486 -981003226 1709134369 222345864 1079411868 842058846 -1163527597 -582113958 -722670140 -777919775 -565581769 2088738655 87801525 -879242992 1969750739 -1005949926 -1285868175 1563669906 1035668033
REM
CELL 1.54180   50.00000   50.00000   50.00000   90.00000   90.00000   90.00000
LATT -1
SFAC C  
C      1  0.5194360000000  0.4885320000000  0.4341770000000 1.0
C      1  0.5537360000000  0.4790780000000  0.4565920000000 1.0
C      1  0.5761120000000  0.4906280000000  0.4930930000000 1.0
C      1  0.5603430000000  0.4921790000000  0.5460570000000 1.0
C      1  0.5239900000000  0.4798430000000  0.5653860000000 1.0
C      1  0.4805640000000  0.4885370000000  0.5658140000000 1.0
C      1  0.4462790000000  0.4790800000000  0.5434090000000 1.0
C      1  0.4238860000000  0.4906180000000  0.5068810000000 1.0
C      1  0.4396970000000  0.4922010000000  0.4539230000000 1.0
C      1  0.4759390000000  0.4798350000000  0.4346360000000 1.0
C      1  0.4487040000000  0.4764940000000  0.5003400000000 1.0
C      1  0.4571300000000  0.4772970000000  0.4722040000000 1.0
C      1  0.4830080000000  0.4643020000000  0.4609090000000 1.0
C      1  0.5117280000000  0.4759650000000  0.4597420000000 1.0
C      1  0.5350870000000  0.4638980000000  0.4766570000000 1.0
C      1  0.5513040000000  0.4764920000000  0.4996430000000 1.0
C      1  0.5428950000000  0.4772800000000  0.5277860000000 1.0
C      1  0.5170120000000  0.4643110000000  0.5390890000000 1.0
C      1  0.4882800000000  0.4759780000000  0.5402460000000 1.0
C      1  0.4649190000000  0.4639080000000  0.5233310000000 1.0
C      1  0.5161340000000  0.4346370000000  0.5370720000000 1.0
C      1  0.4897930000000  0.4222800000000  0.5357200000000 1.0
C      1  0.4670650000000  0.4343460000000  0.5221580000000 1.0
C      1  0.4532240000000  0.4197900000000  0.5011300000000 1.0
C      1  0.4608020000000  0.4203560000000  0.4732680000000 1.0
C      1  0.4838730000000  0.4346300000000  0.4629290000000 1.0
C      1  0.5102110000000  0.4222660000000  0.4642870000000 1.0
C      1  0.5329420000000  0.4343370000000  0.4778390000000 1.0
C      1  0.5467840000000  0.4197880000000  0.4988730000000 1.0
C      1  0.5392000000000  0.4203540000000  0.5267340000000 1.0
C      1  0.4801840000000  0.5290760000000  0.4544680000000 1.0
C      1  0.5122380000000  0.5351430000000  0.4516390000000 1.0
C      1  0.5388340000000  0.5284680000000  0.4701440000000 1.0
C      1  0.5553280000000  0.5367410000000  0.4977800000000 1.0
C      1  0.5470510000000  0.5381320000000  0.5281880000000 1.0
C      1  0.5198060000000  0.5290850000000  0.5455540000000 1.0
C      1  0.4877560000000  0.5351560000000  0.5483650000000 1.0
C      1  0.4611630000000  0.5284760000000  0.5298590000000 1.0
C      1  0.4446600000000  0.5367370000000  0.5022350000000 1.0
C      1  0.4529440000000  0.5381530000000  0.4718360000000 1.0
C      1  0.4477390000000  0.5709240000000  0.5036130000000 1.0
C      1  0.4567970000000  0.5720960000000  0.4716860000000 1.0
C      1  0.4809350000000  0.5630090000000  0.4529290000000 1.0
C      1  0.5123310000000  0.5706930000000  0.4531130000000 1.0
C      1  0.5393860000000  0.5622490000000  0.4685420000000 1.0
C      1  0.5522520000000  0.5709240000000  0.4963830000000 1.0
C      1  0.5432100000000  0.5720820000000  0.5283130000000 1.0
C      1  0.5190670000000  0.5630130000000  0.5470730000000 1.0
C      1  0.4876700000000  0.5707030000000  0.5468820000000 1.0
C      1  0.4606100000000  0.5622600000000  0.5314550000000 1.0
C      1  0.4440970000000  0.5084680000000  0.5454080000000 1.0
C      1  0.4208910000000  0.5191470000000  0.5045780000000 1.0
C      1  0.4343680000000  0.5204100000000  0.4564970000000 1.0
C      1  0.4721920000000  0.5091020000000  0.4328780000000 1.0
C      1  0.5189480000000  0.5166930000000  0.4293530000000 1.0
C      1  0.5559090000000  0.5084670000000  0.4545950000000 1.0
C      1  0.5791020000000  0.5191560000000  0.4954160000000 1.0
C      1  0.5656500000000  0.5203930000000  0.5434990000000 1.0
C      1  0.5277640000000  0.5091060000000  0.5671500000000 1.0
C      1  0.4810410000000  0.5166980000000  0.5706460000000 1.0
END
