TITL C-3985245-9316-732 0.000489576885790821 125000 -324.903174039866 0 0 60 (C1) n - 1
REM
REM in /home/nfs/bkarasulu/CARBON/AIRSS/Generating-Clusters/TERSOFF/Higher-Symm/Only-C60
REM
REM
REM
REM
REM
REM ./C.cell (28575a23ae977d3b5fae324c64b13b57)
REM
REM compiler GCC version 9.2.1 20190827 (Red Hat 9.2.1-1)
REM options -cpp -mtune=generic -march=x86-64 -g -O0 -fpre-include=/usr/include/finclude/math-vector-fortran.h
REM seed 1870158391 1698449799 -1964160675 -1169158640 234713268 1378970198 -667768745 880908640 328205919 -859604 -1420954655 1752728031 -510649520 -1674377666 -1729636175 -1436179978 -1283310056 -408028507 863927648 -1138079883 -1968314995 -1518859364 -1651787916 -1771157228 -1396522926 2000584844 1160214598 2100019998 1040906412 796491865 490840692 166725146 -149935668
REM
CELL 1.54180   50.00000   50.00000   50.00000   90.00000   90.00000   90.00000
LATT -1
SFAC C  
C      1  0.5232640000000  0.5455370000000  0.5569100000000 1.0
C      1  0.4892010000000  0.4335780000000  0.4885780000000 1.0
C      1  0.4618180000000  0.4661680000000  0.4416620000000 1.0
C      1  0.4954900000000  0.4493290000000  0.5480200000000 1.0
C      1  0.5712960000000  0.4868410000000  0.4990550000000 1.0
C      1  0.4786030000000  0.5120880000000  0.4385470000000 1.0
C      1  0.4692920000000  0.4733610000000  0.5548260000000 1.0
C      1  0.4960490000000  0.5456710000000  0.4595170000000 1.0
C      1  0.4512790000000  0.5523060000000  0.5250550000000 1.0
C      1  0.5355820000000  0.5396860000000  0.5295010000000 1.0
C      1  0.5061740000000  0.4340090000000  0.5169520000000 1.0
C      1  0.4463070000000  0.4965070000000  0.5396450000000 1.0
C      1  0.5172610000000  0.4898920000000  0.5740210000000 1.0
C      1  0.5604200000000  0.4662860000000  0.5183750000000 1.0
C      1  0.5049680000000  0.4386590000000  0.4615950000000 1.0
C      1  0.4792690000000  0.5664940000000  0.5300890000000 1.0
C      1  0.5340410000000  0.4215060000000  0.5158690000000 1.0
C      1  0.4663950000000  0.5410550000000  0.4498750000000 1.0
C      1  0.4596820000000  0.4700850000000  0.4710910000000 1.0
C      1  0.5181820000000  0.5132740000000  0.4964330000000 1.0
C      1  0.4561690000000  0.5617780000000  0.4746660000000 1.0
C      1  0.5293540000000  0.5560100000000  0.5051080000000 1.0
C      1  0.4638530000000  0.4482110000000  0.4907950000000 1.0
C      1  0.4929570000000  0.4905360000000  0.4557030000000 1.0
C      1  0.4967810000000  0.5005900000000  0.5385540000000 1.0
C      1  0.5423950000000  0.5329790000000  0.4817430000000 1.0
C      1  0.5300080000000  0.5026530000000  0.4401540000000 1.0
C      1  0.4283790000000  0.5213530000000  0.4909420000000 1.0
C      1  0.5589870000000  0.4372380000000  0.5125840000000 1.0
C      1  0.4904100000000  0.4791570000000  0.5189990000000 1.0
C      1  0.5639120000000  0.5161450000000  0.5023230000000 1.0
C      1  0.4753600000000  0.5834320000000  0.4833880000000 1.0
C      1  0.4409570000000  0.5485180000000  0.4973720000000 1.0
C      1  0.5685560000000  0.4831620000000  0.4697500000000 1.0
C      1  0.5180650000000  0.4936360000000  0.4732150000000 1.0
C      1  0.5330490000000  0.5141490000000  0.5627350000000 1.0
C      1  0.5220280000000  0.4651540000000  0.5569810000000 1.0
C      1  0.4633680000000  0.4690590000000  0.5128890000000 1.0
C      1  0.5238890000000  0.4677530000000  0.4852240000000 1.0
C      1  0.4436950000000  0.5159190000000  0.4613690000000 1.0
C      1  0.4966910000000  0.5712660000000  0.5045860000000 1.0
C      1  0.5346710000000  0.4447780000000  0.4689320000000 1.0
C      1  0.5600290000000  0.4571480000000  0.4592750000000 1.0
C      1  0.5227430000000  0.5333950000000  0.4528610000000 1.0
C      1  0.4869920000000  0.5201430000000  0.5007170000000 1.0
C      1  0.4524180000000  0.4945170000000  0.4337570000000 1.0
C      1  0.5299200000000  0.5065230000000  0.5290300000000 1.0
C      1  0.5139040000000  0.4634930000000  0.5118900000000 1.0
C      1  0.5183370000000  0.4768600000000  0.4252610000000 1.0
C      1  0.5351000000000  0.4749010000000  0.5307830000000 1.0
C      1  0.4632500000000  0.4994330000000  0.4839160000000 1.0
C      1  0.4925930000000  0.5454350000000  0.4878070000000 1.0
C      1  0.5551460000000  0.5074960000000  0.4592240000000 1.0
C      1  0.4399220000000  0.4925410000000  0.5095460000000 1.0
C      1  0.4878740000000  0.4967290000000  0.5695920000000 1.0
C      1  0.4527410000000  0.5258540000000  0.5424530000000 1.0
C      1  0.4809380000000  0.5265540000000  0.5735410000000 1.0
C      1  0.4822160000000  0.5247030000000  0.5316080000000 1.0
C      1  0.4942490000000  0.4603080000000  0.4415350000000 1.0
C      1  0.4935180000000  0.5481600000000  0.5535760000000 1.0
END
