TITL C-3985245-9316-518 -0.00555467209553394 125000 -301.599335331386 0 0 60 (C2) n - 1
REM
REM in /home/nfs/bkarasulu/CARBON/AIRSS/Generating-Clusters/TERSOFF/Higher-Symm/Only-C60
REM
REM
REM
REM
REM
REM ./C.cell (28575a23ae977d3b5fae324c64b13b57)
REM
REM compiler GCC version 9.2.1 20190827 (Red Hat 9.2.1-1)
REM options -cpp -mtune=generic -march=x86-64 -g -O0 -fpre-include=/usr/include/finclude/math-vector-fortran.h
REM seed -810126537 -397583834 -1569551445 932684469 932482742 1509788397 -1141020782 1078382459 -460240608 544172291 -315099577 563495779 454064077 -1238729132 1904663111 1327905713 1658151659 -606676319 751161329 1723978267 584977842 -1169105447 -1276741794 -1203527334 209603269 1660327002 -1436895572 1915135092 -74175767 -582157810 2132548121 903332214 -485764373
REM
CELL 1.54180   50.00000   50.00000   50.00000   90.00000   90.00000   90.00000
LATT -1
SFAC C  
C      1  0.5498690000000  0.4672350000000  0.5555180000000 1.0
C      1  0.5576990000000  0.4522420000000  0.5261100000000 1.0
C      1  0.5500420000000  0.4363080000000  0.4966840000000 1.0
C      1  0.5527250000000  0.4445730000000  0.4665920000000 1.0
C      1  0.5544460000000  0.4747880000000  0.4533840000000 1.0
C      1  0.5533400000000  0.5030490000000  0.4357530000000 1.0
C      1  0.5499220000000  0.5327810000000  0.4444860000000 1.0
C      1  0.5577060000000  0.5477660000000  0.4739270000000 1.0
C      1  0.5500040000000  0.5636970000000  0.5033500000000 1.0
C      1  0.5527700000000  0.5554020000000  0.5333890000000 1.0
C      1  0.5543610000000  0.5251830000000  0.5465770000000 1.0
C      1  0.5534310000000  0.4969640000000  0.5642590000000 1.0
C      1  0.5330240000000  0.4346500000000  0.5350260000000 1.0
C      1  0.5246280000000  0.4197150000000  0.4967510000000 1.0
C      1  0.5284080000000  0.4288250000000  0.4559660000000 1.0
C      1  0.5287450000000  0.4664780000000  0.4374700000000 1.0
C      1  0.5286590000000  0.5033060000000  0.4173690000000 1.0
C      1  0.5249580000000  0.5430290000000  0.4304010000000 1.0
C      1  0.5330460000000  0.5653540000000  0.4649950000000 1.0
C      1  0.5245770000000  0.5803020000000  0.5032520000000 1.0
C      1  0.5284360000000  0.5711710000000  0.5440370000000 1.0
C      1  0.5286630000000  0.5334690000000  0.5624680000000 1.0
C      1  0.5287610000000  0.4966960000000  0.5826980000000 1.0
C      1  0.5249210000000  0.4570030000000  0.5695790000000 1.0
C      1  0.4444340000000  0.5260910000000  0.5497790000000 1.0
C      1  0.4497610000000  0.4969420000000  0.5642390000000 1.0
C      1  0.4429890000000  0.4677810000000  0.5511000000000 1.0
C      1  0.4522270000000  0.4446130000000  0.5299520000000 1.0
C      1  0.4430870000000  0.4415920000000  0.4984400000000 1.0
C      1  0.4494860000000  0.4455460000000  0.4663420000000 1.0
C      1  0.4444750000000  0.4738650000000  0.4501880000000 1.0
C      1  0.4496900000000  0.5030590000000  0.4357800000000 1.0
C      1  0.4430000000000  0.5322590000000  0.4489100000000 1.0
C      1  0.4522410000000  0.5554290000000  0.4700490000000 1.0
C      1  0.4430710000000  0.5584220000000  0.5015540000000 1.0
C      1  0.4495050000000  0.5544260000000  0.5336440000000 1.0
C      1  0.4966890000000  0.4647740000000  0.5582690000000 1.0
C      1  0.5047180000000  0.4436320000000  0.5302250000000 1.0
C      1  0.4967640000000  0.4338260000000  0.4964270000000 1.0
C      1  0.5008670000000  0.4400790000000  0.4630220000000 1.0
C      1  0.4995160000000  0.4715610000000  0.4471580000000 1.0
C      1  0.5012630000000  0.5032070000000  0.4305380000000 1.0
C      1  0.4967260000000  0.5352740000000  0.4417110000000 1.0
C      1  0.5047310000000  0.5563910000000  0.4697800000000 1.0
C      1  0.4967360000000  0.5661810000000  0.5035730000000 1.0
C      1  0.5008940000000  0.5598830000000  0.5369650000000 1.0
C      1  0.4994520000000  0.5283640000000  0.5527760000000 1.0
C      1  0.5013570000000  0.4968030000000  0.5695350000000 1.0
C      1  0.4734160000000  0.5033560000000  0.4171800000000 1.0
C      1  0.4682940000000  0.5420890000000  0.4324550000000 1.0
C      1  0.4775330000000  0.5695960000000  0.4627470000000 1.0
C      1  0.4682950000000  0.5772820000000  0.5029310000000 1.0
C      1  0.4728470000000  0.5709470000000  0.5441500000000 1.0
C      1  0.4711670000000  0.5341370000000  0.5641870000000 1.0
C      1  0.4734890000000  0.4966530000000  0.5828870000000 1.0
C      1  0.4682750000000  0.4579650000000  0.5675360000000 1.0
C      1  0.4775160000000  0.4304380000000  0.5372630000000 1.0
C      1  0.4683120000000  0.4227270000000  0.4970750000000 1.0
C      1  0.4728190000000  0.4290180000000  0.4558460000000 1.0
C      1  0.4712120000000  0.4658040000000  0.4357490000000 1.0
END
