TITL C-3985245-9316-412 1.15977975564714e-05 125000 -323.142527817513 0 0 60 (Ci) n - 1
REM
REM in /home/nfs/bkarasulu/CARBON/AIRSS/Generating-Clusters/TERSOFF/Higher-Symm/Only-C60
REM
REM
REM
REM
REM
REM ./C.cell (28575a23ae977d3b5fae324c64b13b57)
REM
REM compiler GCC version 9.2.1 20190827 (Red Hat 9.2.1-1)
REM options -cpp -mtune=generic -march=x86-64 -g -O0 -fpre-include=/usr/include/finclude/math-vector-fortran.h
REM seed 1075811050 126458499 180617692 -1013333875 -1423859767 -1810135244 -1004056626 926948281 604943169 -176730551 -650809104 -108840591 1110245464 -1045797802 -1294926546 -902608911 -167823575 153671251 900340680 -393732792 1352115067 -2072140785 1076145381 -1166919525 221791319 761378283 1730756836 -918763982 -1114649530 -409345917 307089968 940910072 1229490140
REM
CELL 1.54180   50.00000   50.00000   50.00000   90.00000   90.00000   90.00000
LATT -1
SFAC C  
C      1  0.5302400000000  0.5335140000000  0.4310480000000 1.0
C      1  0.4697600000000  0.4664860000000  0.5689520000000 1.0
C      1  0.4263210000000  0.5230520000000  0.5230200000000 1.0
C      1  0.5736790000000  0.4769480000000  0.4769800000000 1.0
C      1  0.4564310000000  0.4432260000000  0.5102740000000 1.0
C      1  0.5435690000000  0.5567740000000  0.4897260000000 1.0
C      1  0.5056600000000  0.4394930000000  0.4861440000000 1.0
C      1  0.4943400000000  0.5605070000000  0.5138560000000 1.0
C      1  0.4562150000000  0.4999930000000  0.5637280000000 1.0
C      1  0.5437850000000  0.5000070000000  0.4362720000000 1.0
C      1  0.4716520000000  0.5245720000000  0.4629890000000 1.0
C      1  0.5283480000000  0.4754280000000  0.5370110000000 1.0
C      1  0.4807540000000  0.5488710000000  0.5397050000000 1.0
C      1  0.5192460000000  0.4511290000000  0.4602950000000 1.0
C      1  0.4159830000000  0.5073560000000  0.4798020000000 1.0
C      1  0.5840170000000  0.4926440000000  0.5201980000000 1.0
C      1  0.5595160000000  0.5199990000000  0.4576900000000 1.0
C      1  0.4404840000000  0.4800010000000  0.5423100000000 1.0
C      1  0.4972760000000  0.5481150000000  0.4568830000000 1.0
C      1  0.5027240000000  0.4518850000000  0.5431170000000 1.0
C      1  0.5723660000000  0.4683090000000  0.5065330000000 1.0
C      1  0.4276340000000  0.5316910000000  0.4934670000000 1.0
C      1  0.4810920000000  0.4790660000000  0.5195840000000 1.0
C      1  0.5189080000000  0.5209340000000  0.4804160000000 1.0
C      1  0.4872990000000  0.5081280000000  0.5654110000000 1.0
C      1  0.5127010000000  0.4918720000000  0.4345890000000 1.0
C      1  0.5267160000000  0.5291200000000  0.5503710000000 1.0
C      1  0.4732840000000  0.4708800000000  0.4496290000000 1.0
C      1  0.4663280000000  0.4878580000000  0.4946390000000 1.0
C      1  0.5336720000000  0.5121420000000  0.5053610000000 1.0
C      1  0.4919010000000  0.5037200000000  0.5340560000000 1.0
C      1  0.5080990000000  0.4962800000000  0.4659440000000 1.0
C      1  0.4438810000000  0.4657340000000  0.4904150000000 1.0
C      1  0.5561190000000  0.5342660000000  0.5095850000000 1.0
C      1  0.5240480000000  0.5653600000000  0.5143430000000 1.0
C      1  0.4759520000000  0.4346400000000  0.4856570000000 1.0
C      1  0.4576640000000  0.4510230000000  0.4647770000000 1.0
C      1  0.5423360000000  0.5489770000000  0.5352230000000 1.0
C      1  0.4990550000000  0.5364730000000  0.5605720000000 1.0
C      1  0.5009450000000  0.4635270000000  0.4394280000000 1.0
C      1  0.4783520000000  0.4951660000000  0.4679740000000 1.0
C      1  0.5216480000000  0.5048340000000  0.5320260000000 1.0
C      1  0.4804750000000  0.5576370000000  0.4873320000000 1.0
C      1  0.5195250000000  0.4423630000000  0.5126680000000 1.0
C      1  0.4217810000000  0.4929300000000  0.5233980000000 1.0
C      1  0.5782190000000  0.5070700000000  0.4766020000000 1.0
C      1  0.4961280000000  0.5102890000000  0.4188480000000 1.0
C      1  0.5038720000000  0.4897110000000  0.5811520000000 1.0
C      1  0.4188410000000  0.4817110000000  0.4955310000000 1.0
C      1  0.5811590000000  0.5182890000000  0.5044690000000 1.0
C      1  0.4531320000000  0.5271160000000  0.5400740000000 1.0
C      1  0.5468680000000  0.4728840000000  0.4599260000000 1.0
C      1  0.5327290000000  0.4821000000000  0.4881660000000 1.0
C      1  0.4672710000000  0.5179000000000  0.5118340000000 1.0
C      1  0.5423970000000  0.4633500000000  0.5123260000000 1.0
C      1  0.4576030000000  0.5366500000000  0.4876740000000 1.0
C      1  0.5002630000000  0.5391120000000  0.4243520000000 1.0
C      1  0.4997370000000  0.4608880000000  0.5756480000000 1.0
C      1  0.4674420000000  0.4565710000000  0.5361090000000 1.0
C      1  0.5325580000000  0.5434290000000  0.4638910000000 1.0
END
