TITL C-3985259-1859-858 9.79559278197143e-07 125000 -346.085065839078 0 0 60 (T23) n - 1
REM
REM in /home/nfs/bkarasulu/CARBON/AIRSS/Generating-Clusters/TERSOFF/Higher-Symm/Only-C60
REM
REM
REM
REM
REM
REM ./C.cell (28575a23ae977d3b5fae324c64b13b57)
REM
REM compiler GCC version 9.2.1 20190827 (Red Hat 9.2.1-1)
REM options -cpp -mtune=generic -march=x86-64 -g -O0 -fpre-include=/usr/include/finclude/math-vector-fortran.h
REM seed 133085374 1908429416 1930539983 -1065994957 476907817 765575486 1992707406 -682753330 -2036013772 1971502908 -2121673879 714252463 -465906063 1459413579 1417862229 -1250044142 -1949666140 1897176805 1341709123 1067432365 -2103599761 -1513127584 -1248980372 -732106232 427739230 -37202889 -848135996 1039791645 603432887 -112178950 961925481 283783628 -1042849824
REM
CELL 1.54180   50.00000   50.00000   50.00000   90.00000   90.00000   90.00000
LATT -1
SFAC C  
C      1  0.4313570000000  0.4731590000000  0.4519920000000 1.0
C      1  0.4731590000000  0.4519920000000  0.4313570000000 1.0
C      1  0.4519920000000  0.4313570000000  0.4731590000000 1.0
C      1  0.5686430000000  0.4731590000000  0.5480080000000 1.0
C      1  0.5686430000000  0.5268410000000  0.4519920000000 1.0
C      1  0.4313570000000  0.5268410000000  0.5480080000000 1.0
C      1  0.5268410000000  0.4519920000000  0.5686430000000 1.0
C      1  0.5268410000000  0.5480080000000  0.4313570000000 1.0
C      1  0.4731590000000  0.5480080000000  0.5686430000000 1.0
C      1  0.5480080000000  0.4313570000000  0.5268410000000 1.0
C      1  0.5480080000000  0.5686430000000  0.4731590000000 1.0
C      1  0.4519920000000  0.5686430000000  0.5268410000000 1.0
C      1  0.5107970000000  0.4646930000000  0.4899160000000 1.0
C      1  0.4646930000000  0.4899160000000  0.5107970000000 1.0
C      1  0.4899160000000  0.5107970000000  0.4646930000000 1.0
C      1  0.4892030000000  0.4646930000000  0.5100840000000 1.0
C      1  0.4892030000000  0.5353070000000  0.4899160000000 1.0
C      1  0.5107970000000  0.5353070000000  0.5100840000000 1.0
C      1  0.5353070000000  0.4899160000000  0.4892030000000 1.0
C      1  0.5353070000000  0.5100840000000  0.5107970000000 1.0
C      1  0.4646930000000  0.5100840000000  0.4892030000000 1.0
C      1  0.5100840000000  0.5107970000000  0.5353070000000 1.0
C      1  0.5100840000000  0.4892030000000  0.4646930000000 1.0
C      1  0.4899160000000  0.4892030000000  0.5353070000000 1.0
C      1  0.5004740000000  0.5392970000000  0.4228390000000 1.0
C      1  0.5392970000000  0.4228390000000  0.5004740000000 1.0
C      1  0.4228390000000  0.5004740000000  0.5392970000000 1.0
C      1  0.4995260000000  0.5392970000000  0.5771610000000 1.0
C      1  0.4995260000000  0.4607030000000  0.4228390000000 1.0
C      1  0.5004740000000  0.4607030000000  0.5771610000000 1.0
C      1  0.4607030000000  0.4228390000000  0.4995260000000 1.0
C      1  0.4607030000000  0.5771610000000  0.5004740000000 1.0
C      1  0.5392970000000  0.5771610000000  0.4995260000000 1.0
C      1  0.5771610000000  0.5004740000000  0.4607030000000 1.0
C      1  0.5771610000000  0.4995260000000  0.5392970000000 1.0
C      1  0.4228390000000  0.4995260000000  0.4607030000000 1.0
C      1  0.5169100000000  0.4778990000000  0.4383290000000 1.0
C      1  0.4778990000000  0.4383290000000  0.5169100000000 1.0
C      1  0.4383290000000  0.5169100000000  0.4778990000000 1.0
C      1  0.4830900000000  0.4778990000000  0.5616710000000 1.0
C      1  0.4830900000000  0.5221010000000  0.4383290000000 1.0
C      1  0.5169100000000  0.5221010000000  0.5616710000000 1.0
C      1  0.5221010000000  0.4383290000000  0.4830900000000 1.0
C      1  0.5221010000000  0.5616710000000  0.5169100000000 1.0
C      1  0.4778990000000  0.5616710000000  0.4830900000000 1.0
C      1  0.5616710000000  0.5169100000000  0.5221010000000 1.0
C      1  0.5616710000000  0.4830900000000  0.4778990000000 1.0
C      1  0.4383290000000  0.4830900000000  0.5221010000000 1.0
C      1  0.4504500000000  0.4703380000000  0.4300530000000 1.0
C      1  0.4703380000000  0.4300530000000  0.4504500000000 1.0
C      1  0.4300530000000  0.4504500000000  0.4703380000000 1.0
C      1  0.5495500000000  0.4703380000000  0.5699470000000 1.0
C      1  0.5495500000000  0.5296620000000  0.4300530000000 1.0
C      1  0.4504500000000  0.5296620000000  0.5699470000000 1.0
C      1  0.5296620000000  0.4300530000000  0.5495500000000 1.0
C      1  0.5296620000000  0.5699470000000  0.4504500000000 1.0
C      1  0.4703380000000  0.5699470000000  0.5495500000000 1.0
C      1  0.5699470000000  0.4504500000000  0.5296620000000 1.0
C      1  0.5699470000000  0.5495500000000  0.4703380000000 1.0
C      1  0.4300530000000  0.5495500000000  0.5296620000000 1.0
END
