TITL C-3985259-1859-744 0.00248593173261841 125000 -305.914863387812 0 0 60 (C1) n - 1
REM
REM in /home/nfs/bkarasulu/CARBON/AIRSS/Generating-Clusters/TERSOFF/Higher-Symm/Only-C60
REM
REM
REM
REM
REM
REM ./C.cell (28575a23ae977d3b5fae324c64b13b57)
REM
REM compiler GCC version 9.2.1 20190827 (Red Hat 9.2.1-1)
REM options -cpp -mtune=generic -march=x86-64 -g -O0 -fpre-include=/usr/include/finclude/math-vector-fortran.h
REM seed 593476092 611919363 -1817614602 -1811493369 -1985303165 -925249042 1382972135 85002177 -1557916783 1950667886 -1107111074 140564524 1644628242 1479542036 1755443073 -2080706257 1419065020 207139302 1082570755 300232936 192171811 1902008740 43997327 -184833836 -1191998516 -1106668074 -124059663 1758394382 -992714535 -1158479557 -538686929 -1158841212 293062903
REM
CELL 1.54180   50.00000   50.00000   50.00000   90.00000   90.00000   90.00000
LATT -1
SFAC C  
C      1  0.4629260000000  0.5234760000000  0.4385660000000 1.0
C      1  0.4623160000000  0.5419260000000  0.5510950000000 1.0
C      1  0.4623910000000  0.4343280000000  0.5107020000000 1.0
C      1  0.4409620000000  0.5095180000000  0.4562100000000 1.0
C      1  0.4399360000000  0.5327730000000  0.5306140000000 1.0
C      1  0.4406410000000  0.4570050000000  0.5135560000000 1.0
C      1  0.5096030000000  0.5043700000000  0.4327520000000 1.0
C      1  0.5070310000000  0.5651880000000  0.5349630000000 1.0
C      1  0.5083340000000  0.4373310000000  0.5351410000000 1.0
C      1  0.5216030000000  0.4623670000000  0.5301040000000 1.0
C      1  0.5227680000000  0.4928260000000  0.4556180000000 1.0
C      1  0.5205520000000  0.5483460000000  0.5160570000000 1.0
C      1  0.5323380000000  0.5338760000000  0.4721650000000 1.0
C      1  0.5316120000000  0.5084840000000  0.5417270000000 1.0
C      1  0.5326960000000  0.4553930000000  0.4837210000000 1.0
C      1  0.4745200000000  0.4830830000000  0.4555610000000 1.0
C      1  0.4729740000000  0.5461590000000  0.5084390000000 1.0
C      1  0.4737910000000  0.4689450000000  0.5365760000000 1.0
C      1  0.5172190000000  0.5052740000000  0.4859510000000 1.0
C      1  0.5147360000000  0.5191540000000  0.5162590000000 1.0
C      1  0.5175580000000  0.4756630000000  0.5028090000000 1.0
C      1  0.4874550000000  0.5376860000000  0.4822190000000 1.0
C      1  0.4876890000000  0.4959570000000  0.5420600000000 1.0
C      1  0.4875520000000  0.4640250000000  0.4760600000000 1.0
C      1  0.5613830000000  0.4671780000000  0.5457320000000 1.0
C      1  0.5618940000000  0.4762720000000  0.4476270000000 1.0
C      1  0.5626840000000  0.5562210000000  0.5053430000000 1.0
C      1  0.4783730000000  0.5625500000000  0.5345510000000 1.0
C      1  0.4795580000000  0.4382390000000  0.5358450000000 1.0
C      1  0.4811150000000  0.5007230000000  0.4306680000000 1.0
C      1  0.4836720000000  0.4758520000000  0.5054570000000 1.0
C      1  0.4837420000000  0.5067930000000  0.4777520000000 1.0
C      1  0.4825900000000  0.5156350000000  0.5183800000000 1.0
C      1  0.4771140000000  0.4340780000000  0.4822040000000 1.0
C      1  0.4777950000000  0.5476710000000  0.4529650000000 1.0
C      1  0.4778700000000  0.5175050000000  0.5650050000000 1.0
C      1  0.5116290000000  0.4305750000000  0.4840580000000 1.0
C      1  0.5125710000000  0.5444740000000  0.4492620000000 1.0
C      1  0.5123660000000  0.5211090000000  0.5648700000000 1.0
C      1  0.5629700000000  0.5096560000000  0.5264490000000 1.0
C      1  0.5638070000000  0.4702760000000  0.4943560000000 1.0
C      1  0.5639180000000  0.5182590000000  0.4769390000000 1.0
C      1  0.4436180000000  0.4780990000000  0.5409500000000 1.0
C      1  0.4440120000000  0.4753580000000  0.4607530000000 1.0
C      1  0.4429910000000  0.5458010000000  0.4983770000000 1.0
C      1  0.5338630000000  0.4774400000000  0.5523380000000 1.0
C      1  0.5344840000000  0.4650410000000  0.4529640000000 1.0
C      1  0.5355740000000  0.5594970000000  0.4931850000000 1.0
C      1  0.4544800000000  0.4942750000000  0.5676800000000 1.0
C      1  0.4538560000000  0.4439160000000  0.4611790000000 1.0
C      1  0.4543460000000  0.5612630000000  0.4715430000000 1.0
C      1  0.5233480000000  0.4469070000000  0.4328620000000 1.0
C      1  0.5278500000000  0.5859590000000  0.4833970000000 1.0
C      1  0.5239020000000  0.4721690000000  0.5793900000000 1.0
C      1  0.5702410000000  0.4808300000000  0.5218050000000 1.0
C      1  0.5704320000000  0.4894210000000  0.4719370000000 1.0
C      1  0.5705780000000  0.5284360000000  0.5044960000000 1.0
C      1  0.4504460000000  0.5179600000000  0.4842750000000 1.0
C      1  0.4507280000000  0.5046550000000  0.5241240000000 1.0
C      1  0.4509960000000  0.4767530000000  0.4923560000000 1.0
END
