TITL C-3985254-1270-521 0.000309496873368524 125000 -330.825587588201 0 0 60 (S4) n - 1
REM
REM in /home/nfs/bkarasulu/CARBON/AIRSS/Generating-Clusters/TERSOFF/Higher-Symm/Only-C60
REM
REM
REM
REM
REM
REM ./C.cell (28575a23ae977d3b5fae324c64b13b57)
REM
REM compiler GCC version 9.2.1 20190827 (Red Hat 9.2.1-1)
REM options -cpp -mtune=generic -march=x86-64 -g -O0 -fpre-include=/usr/include/finclude/math-vector-fortran.h
REM seed -589978044 2014571412 -713284684 -371088278 -184095902 618940364 -1772401671 -628061884 250081669 1248441327 -1094766207 -1498989828 -810492592 -1633056643 1324960382 72211677 -1510001334 -658423609 -61399057 -1546978756 414921856 1948968520 739325408 1009684873 -1398136068 -822640696 -1494912568 1192382337 -468053873 739952139 -108974267 372644635 1656709899
REM
CELL 1.54180   50.00000   50.00000   50.00000   90.00000   90.00000   90.00000
LATT -1
SFAC C  
C      1  0.5064810000000  0.5212110000000  0.5055680000000 1.0
C      1  0.4935250000000  0.5055670000000  0.4787920000000 1.0
C      1  0.5064800000000  0.4787910000000  0.4944330000000 1.0
C      1  0.4935260000000  0.4944340000000  0.5212080000000 1.0
C      1  0.5362420000000  0.4555840000000  0.4618120000000 1.0
C      1  0.4637570000000  0.4618150000000  0.5444130000000 1.0
C      1  0.5362430000000  0.5444180000000  0.5381920000000 1.0
C      1  0.4637580000000  0.5381880000000  0.4555870000000 1.0
C      1  0.5044790000000  0.4914130000000  0.5500800000000 1.0
C      1  0.4955230000000  0.5500800000000  0.5085900000000 1.0
C      1  0.5044780000000  0.5085870000000  0.4499200000000 1.0
C      1  0.4955220000000  0.4499210000000  0.4914110000000 1.0
C      1  0.5306600000000  0.4779490000000  0.5419400000000 1.0
C      1  0.4693430000000  0.5419360000000  0.5220510000000 1.0
C      1  0.5306570000000  0.5220510000000  0.4580620000000 1.0
C      1  0.4693430000000  0.4580640000000  0.4779490000000 1.0
C      1  0.5811530000000  0.4754480000000  0.4976990000000 1.0
C      1  0.4188450000000  0.4977020000000  0.5245500000000 1.0
C      1  0.5811540000000  0.5245490000000  0.5022940000000 1.0
C      1  0.4188450000000  0.5022960000000  0.4754490000000 1.0
C      1  0.4946570000000  0.4401510000000  0.4496240000000 1.0
C      1  0.5053410000000  0.4496240000000  0.5598460000000 1.0
C      1  0.4946560000000  0.5598490000000  0.5503760000000 1.0
C      1  0.5053400000000  0.5503760000000  0.4401540000000 1.0
C      1  0.5465720000000  0.4975630000000  0.5266820000000 1.0
C      1  0.4534310000000  0.5266750000000  0.5024390000000 1.0
C      1  0.5465700000000  0.5024380000000  0.4733200000000 1.0
C      1  0.4534320000000  0.4733260000000  0.4975600000000 1.0
C      1  0.5749850000000  0.4964050000000  0.5206640000000 1.0
C      1  0.4250150000000  0.5206670000000  0.5035940000000 1.0
C      1  0.5749850000000  0.5035950000000  0.4793280000000 1.0
C      1  0.4250160000000  0.4793310000000  0.4964050000000 1.0
C      1  0.4663400000000  0.4807190000000  0.5217860000000 1.0
C      1  0.5336630000000  0.5217900000000  0.5192900000000 1.0
C      1  0.4663400000000  0.5192820000000  0.4782120000000 1.0
C      1  0.5336630000000  0.4782120000000  0.4807150000000 1.0
C      1  0.5675360000000  0.4486170000000  0.4954140000000 1.0
C      1  0.4324620000000  0.4954150000000  0.5513800000000 1.0
C      1  0.5675370000000  0.5513800000000  0.5045840000000 1.0
C      1  0.4324610000000  0.5045800000000  0.4486180000000 1.0
C      1  0.4831780000000  0.4737910000000  0.5654970000000 1.0
C      1  0.5168210000000  0.5655000000000  0.5262120000000 1.0
C      1  0.4831770000000  0.5262100000000  0.4345030000000 1.0
C      1  0.5168200000000  0.4345010000000  0.4737890000000 1.0
C      1  0.5263180000000  0.5349730000000  0.5636950000000 1.0
C      1  0.4736780000000  0.5636920000000  0.4650320000000 1.0
C      1  0.5263210000000  0.4650290000000  0.4363080000000 1.0
C      1  0.4736770000000  0.4363090000000  0.5349680000000 1.0
C      1  0.5385430000000  0.5579240000000  0.4984900000000 1.0
C      1  0.4614560000000  0.4984880000000  0.4420760000000 1.0
C      1  0.5385420000000  0.4420740000000  0.5015110000000 1.0
C      1  0.4614560000000  0.5015120000000  0.5579260000000 1.0
C      1  0.4974040000000  0.5619220000000  0.4813000000000 1.0
C      1  0.5025960000000  0.4812970000000  0.4380780000000 1.0
C      1  0.4974020000000  0.4380800000000  0.5187010000000 1.0
C      1  0.5025950000000  0.5187030000000  0.5619230000000 1.0
C      1  0.4748600000000  0.4677760000000  0.4475330000000 1.0
C      1  0.5251400000000  0.4475340000000  0.5322230000000 1.0
C      1  0.4748580000000  0.5322230000000  0.5524660000000 1.0
C      1  0.5251400000000  0.5524660000000  0.4677780000000 1.0
END
