TITL C-3985254-1270-704 -2.11788041418582e-05 125000 -323.723758025889 0 0 60 (C2) n - 1
REM
REM in /home/nfs/bkarasulu/CARBON/AIRSS/Generating-Clusters/TERSOFF/Higher-Symm/Only-C60
REM
REM
REM
REM
REM
REM ./C.cell (28575a23ae977d3b5fae324c64b13b57)
REM
REM compiler GCC version 9.2.1 20190827 (Red Hat 9.2.1-1)
REM options -cpp -mtune=generic -march=x86-64 -g -O0 -fpre-include=/usr/include/finclude/math-vector-fortran.h
REM seed 1904102411 473943088 -1197322283 1290000128 631566993 -613092721 -691307911 -1724198916 803923757 -352741737 -6581273 -393181713 1651140132 1369584087 -238912353 2117859126 129024449 -628495782 2142110943 -1430532787 997492659 -953043999 1740292665 370362379 1003224327 -759905849 -1823101236 34517116 343120681 -1467508472 628576259 -116614074 -670219621
REM
CELL 1.54180   50.00000   50.00000   50.00000   90.00000   90.00000   90.00000
LATT -1
SFAC C  
C      1  0.4472630000000  0.5467320000000  0.4923380000000 1.0
C      1  0.4472630000000  0.4532680000000  0.5076620000000 1.0
C      1  0.5113240000000  0.4985010000000  0.5733040000000 1.0
C      1  0.5113240000000  0.5014990000000  0.4266960000000 1.0
C      1  0.4845480000000  0.4454370000000  0.5434980000000 1.0
C      1  0.4845480000000  0.5545630000000  0.4565020000000 1.0
C      1  0.5007890000000  0.5539520000000  0.5392770000000 1.0
C      1  0.5007890000000  0.4460480000000  0.4607230000000 1.0
C      1  0.5135510000000  0.4685250000000  0.4408380000000 1.0
C      1  0.5135510000000  0.5314750000000  0.5591620000000 1.0
C      1  0.4592250000000  0.4701960000000  0.4603340000000 1.0
C      1  0.4592250000000  0.5298040000000  0.5396660000000 1.0
C      1  0.4834390000000  0.5105870000000  0.4888630000000 1.0
C      1  0.4834390000000  0.4894130000000  0.5111370000000 1.0
C      1  0.4692680000000  0.4376570000000  0.4641920000000 1.0
C      1  0.4692680000000  0.5623430000000  0.5358080000000 1.0
C      1  0.5193420000000  0.4888720000000  0.4876430000000 1.0
C      1  0.5193420000000  0.5111280000000  0.5123570000000 1.0
C      1  0.4630540000000  0.4284470000000  0.4937620000000 1.0
C      1  0.4630540000000  0.5715530000000  0.5062380000000 1.0
C      1  0.5259970000000  0.4529320000000  0.5214570000000 1.0
C      1  0.5259970000000  0.5470680000000  0.4785430000000 1.0
C      1  0.4801320000000  0.4918140000000  0.5724320000000 1.0
C      1  0.4801320000000  0.5081860000000  0.4275680000000 1.0
C      1  0.4311770000000  0.5207080000000  0.4967480000000 1.0
C      1  0.4311770000000  0.4792920000000  0.5032520000000 1.0
C      1  0.4876150000000  0.4380430000000  0.5131730000000 1.0
C      1  0.4876150000000  0.5619570000000  0.4868270000000 1.0
C      1  0.4707440000000  0.5304030000000  0.5086850000000 1.0
C      1  0.4707440000000  0.4695970000000  0.4913150000000 1.0
C      1  0.5052260000000  0.4356610000000  0.5615670000000 1.0
C      1  0.5052260000000  0.5643390000000  0.4384330000000 1.0
C      1  0.5016510000000  0.4596960000000  0.4879130000000 1.0
C      1  0.5016510000000  0.5403040000000  0.5120870000000 1.0
C      1  0.4355360000000  0.4940210000000  0.4735700000000 1.0
C      1  0.4355360000000  0.5059790000000  0.5264300000000 1.0
C      1  0.5698980000000  0.5203700000000  0.4688600000000 1.0
C      1  0.5698980000000  0.4796300000000  0.5311400000000 1.0
C      1  0.5405890000000  0.5528820000000  0.5027050000000 1.0
C      1  0.5405890000000  0.4471180000000  0.4972950000000 1.0
C      1  0.4786800000000  0.5216180000000  0.5609110000000 1.0
C      1  0.4786800000000  0.4783820000000  0.4390890000000 1.0
C      1  0.5698060000000  0.5141930000000  0.4972650000000 1.0
C      1  0.5698060000000  0.4858070000000  0.5027350000000 1.0
C      1  0.5274460000000  0.4524790000000  0.5680740000000 1.0
C      1  0.5274460000000  0.5475210000000  0.4319260000000 1.0
C      1  0.5133480000000  0.4805180000000  0.5283330000000 1.0
C      1  0.5133480000000  0.5194820000000  0.4716670000000 1.0
C      1  0.5273160000000  0.4798660000000  0.5578170000000 1.0
C      1  0.5273160000000  0.5201340000000  0.4421830000000 1.0
C      1  0.5551680000000  0.5325740000000  0.5167830000000 1.0
C      1  0.5551680000000  0.4674260000000  0.4832170000000 1.0
C      1  0.4686420000000  0.5288380000000  0.4471490000000 1.0
C      1  0.4686420000000  0.4711620000000  0.5528510000000 1.0
C      1  0.5524770000000  0.5065340000000  0.4500020000000 1.0
C      1  0.5524770000000  0.4934660000000  0.5499980000000 1.0
C      1  0.4619020000000  0.4885020000000  0.5303510000000 1.0
C      1  0.4619020000000  0.5114980000000  0.4696490000000 1.0
C      1  0.5448460000000  0.4780890000000  0.4560840000000 1.0
C      1  0.5448460000000  0.5219110000000  0.5439160000000 1.0
END
