TITL C-3985254-1270-1188 0.00040230011631346 125000 -314.902924896148 0 0 60 (C1) n - 1
REM
REM in /home/nfs/bkarasulu/CARBON/AIRSS/Generating-Clusters/TERSOFF/Higher-Symm/Only-C60
REM
REM
REM
REM
REM
REM ./C.cell (28575a23ae977d3b5fae324c64b13b57)
REM
REM compiler GCC version 9.2.1 20190827 (Red Hat 9.2.1-1)
REM options -cpp -mtune=generic -march=x86-64 -g -O0 -fpre-include=/usr/include/finclude/math-vector-fortran.h
REM seed -1973248863 -467770930 -783570745 -1403306328 561470907 154441811 -2136492664 558091555 1256078583 1321876172 1271055434 -1064644601 1289367619 596818378 -1201456570 1079463162 58312562 1586250635 1568703568 -2068402525 1919241792 1714264055 1395794729 -53432558 -61506375 1768506621 1611880044 -182498327 1535864170 650094516 323615953 395673048 1239570209
REM
CELL 1.54180   50.00000   50.00000   50.00000   90.00000   90.00000   90.00000
LATT -1
SFAC C  
C      1  0.5019620000000  0.5574470000000  0.5350780000000 1.0
C      1  0.5181820000000  0.5229810000000  0.4803770000000 1.0
C      1  0.5360460000000  0.4441980000000  0.5065920000000 1.0
C      1  0.4343950000000  0.4668410000000  0.4910570000000 1.0
C      1  0.4706510000000  0.4657510000000  0.5121520000000 1.0
C      1  0.5076120000000  0.5064620000000  0.5286450000000 1.0
C      1  0.4696320000000  0.5413360000000  0.5430670000000 1.0
C      1  0.4584750000000  0.4371790000000  0.4689030000000 1.0
C      1  0.5053960000000  0.5392280000000  0.5649500000000 1.0
C      1  0.4680380000000  0.5383030000000  0.4510590000000 1.0
C      1  0.4857280000000  0.4268940000000  0.5155100000000 1.0
C      1  0.4813520000000  0.4975110000000  0.5783080000000 1.0
C      1  0.4911850000000  0.5083410000000  0.4789150000000 1.0
C      1  0.5029560000000  0.4441420000000  0.4938060000000 1.0
C      1  0.4548160000000  0.4398120000000  0.5019950000000 1.0
C      1  0.5236590000000  0.5159010000000  0.5717200000000 1.0
C      1  0.5080740000000  0.4362470000000  0.4626950000000 1.0
C      1  0.5513480000000  0.5399810000000  0.5385140000000 1.0
C      1  0.5739830000000  0.5270520000000  0.4987630000000 1.0
C      1  0.5335710000000  0.5144330000000  0.4486380000000 1.0
C      1  0.4287210000000  0.5209490000000  0.5035590000000 1.0
C      1  0.4804280000000  0.4819610000000  0.4360630000000 1.0
C      1  0.5554330000000  0.5369920000000  0.4543160000000 1.0
C      1  0.5381600000000  0.5616490000000  0.4948070000000 1.0
C      1  0.4212000000000  0.4906110000000  0.5078230000000 1.0
C      1  0.4886680000000  0.4766980000000  0.4868010000000 1.0
C      1  0.5581750000000  0.4900670000000  0.4587400000000 1.0
C      1  0.4668450000000  0.4785030000000  0.5629800000000 1.0
C      1  0.4395230000000  0.5375600000000  0.5291320000000 1.0
C      1  0.5203140000000  0.4716520000000  0.4438210000000 1.0
C      1  0.5518530000000  0.4702580000000  0.5068040000000 1.0
C      1  0.5574600000000  0.5167000000000  0.5207320000000 1.0
C      1  0.5388590000000  0.4403680000000  0.4723680000000 1.0
C      1  0.5149650000000  0.4630130000000  0.5576810000000 1.0
C      1  0.5177340000000  0.4766250000000  0.4717750000000 1.0
C      1  0.5273440000000  0.5168930000000  0.5091280000000 1.0
C      1  0.5532900000000  0.4869270000000  0.5305930000000 1.0
C      1  0.4967710000000  0.5529110000000  0.4539170000000 1.0
C      1  0.4813260000000  0.4505670000000  0.4525650000000 1.0
C      1  0.4771260000000  0.5273970000000  0.5714440000000 1.0
C      1  0.4606110000000  0.4832920000000  0.5353420000000 1.0
C      1  0.4551910000000  0.4787980000000  0.4733430000000 1.0
C      1  0.5103560000000  0.5563630000000  0.4828290000000 1.0
C      1  0.5608320000000  0.5465130000000  0.4813610000000 1.0
C      1  0.5100280000000  0.4895720000000  0.5793600000000 1.0
C      1  0.5139680000000  0.4395760000000  0.5340080000000 1.0
C      1  0.4437760000000  0.5277340000000  0.4748860000000 1.0
C      1  0.4680170000000  0.5499840000000  0.5009580000000 1.0
C      1  0.5421300000000  0.4855880000000  0.4844760000000 1.0
C      1  0.5128010000000  0.4947540000000  0.4263920000000 1.0
C      1  0.4919430000000  0.5631680000000  0.5056370000000 1.0
C      1  0.5170780000000  0.5396480000000  0.4372330000000 1.0
C      1  0.4825900000000  0.5101620000000  0.4511590000000 1.0
C      1  0.4782850000000  0.5056090000000  0.5229470000000 1.0
C      1  0.5579030000000  0.4581870000000  0.4568260000000 1.0
C      1  0.4318780000000  0.4860340000000  0.5337290000000 1.0
C      1  0.4700550000000  0.5204640000000  0.4968360000000 1.0
C      1  0.5333090000000  0.5589700000000  0.5257200000000 1.0
C      1  0.4426910000000  0.5015510000000  0.4607000000000 1.0
C      1  0.5253040000000  0.4856880000000  0.5404670000000 1.0
END
