TITL C-3985245-9316-846 -0.00955056975604044 125000 -309.696983054715 0 0 60 (C5) n - 1
REM
REM in /home/nfs/bkarasulu/CARBON/AIRSS/Generating-Clusters/TERSOFF/Higher-Symm/Only-C60
REM
REM
REM
REM
REM
REM ./C.cell (28575a23ae977d3b5fae324c64b13b57)
REM
REM compiler GCC version 9.2.1 20190827 (Red Hat 9.2.1-1)
REM options -cpp -mtune=generic -march=x86-64 -g -O0 -fpre-include=/usr/include/finclude/math-vector-fortran.h
REM seed 429267546 -300277329 1426538635 -1615706582 1744253706 -1220041193 -859164043 1571330899 -499185757 -1197122534 -1291637179 10993047 -1816137499 -1029887556 -1820092525 -582855663 -1619867647 -470252104 -108193438 -468045083 -1724312787 337730047 -1110297125 -1743653610 -505200878 -42683142 2000611130 -1852383598 1564033780 -2106724413 147721990 2115363802 -1616614102
REM
CELL 1.54180   50.00000   50.00000   50.00000   90.00000   90.00000   90.00000
LATT -1
SFAC C  
C      1  0.4535290000000  0.4786030000000  0.5400770000000 1.0
C      1  0.4535330000000  0.5314720000000  0.5327060000000 1.0
C      1  0.4535300000000  0.5409250000000  0.4800440000000 1.0
C      1  0.4536190000000  0.4938220000000  0.4550560000000 1.0
C      1  0.4535180000000  0.4552390000000  0.4920230000000 1.0
C      1  0.5240680000000  0.5543090000000  0.5516960000000 1.0
C      1  0.5234370000000  0.5655200000000  0.4641060000000 1.0
C      1  0.5238210000000  0.4861670000000  0.4262720000000 1.0
C      1  0.5238840000000  0.4258310000000  0.4904100000000 1.0
C      1  0.5237720000000  0.4680840000000  0.5677280000000 1.0
C      1  0.5615410000000  0.5238240000000  0.5123400000000 1.0
C      1  0.5613820000000  0.5191800000000  0.4811020000000 1.0
C      1  0.5612290000000  0.4881160000000  0.4759870000000 1.0
C      1  0.5613280000000  0.4736670000000  0.5038890000000 1.0
C      1  0.5615440000000  0.4956010000000  0.5262400000000 1.0
C      1  0.4808000000000  0.5156200000000  0.5234010000000 1.0
C      1  0.4808530000000  0.5271930000000  0.4923580000000 1.0
C      1  0.4808380000000  0.5012340000000  0.4718730000000 1.0
C      1  0.4808540000000  0.4736840000000  0.4901900000000 1.0
C      1  0.4808650000000  0.4825660000000  0.5220660000000 1.0
C      1  0.5476130000000  0.4739700000000  0.4504800000000 1.0
C      1  0.5476860000000  0.4450550000000  0.5096270000000 1.0
C      1  0.5478070000000  0.4918140000000  0.5551130000000 1.0
C      1  0.5476610000000  0.5499770000000  0.5247440000000 1.0
C      1  0.5476340000000  0.5390500000000  0.4599120000000 1.0
C      1  0.4894090000000  0.4531450000000  0.4621910000000 1.0
C      1  0.4890400000000  0.4492420000000  0.5329740000000 1.0
C      1  0.4892990000000  0.5155900000000  0.5582360000000 1.0
C      1  0.4893070000000  0.5602050000000  0.5032600000000 1.0
C      1  0.4894160000000  0.5217610000000  0.4435630000000 1.0
C      1  0.4942090000000  0.5016980000000  0.4209540000000 1.0
C      1  0.4941110000000  0.4253950000000  0.4740120000000 1.0
C      1  0.4940200000000  0.4521980000000  0.5629550000000 1.0
C      1  0.4941800000000  0.5450380000000  0.5649080000000 1.0
C      1  0.4937760000000  0.5755910000000  0.4771800000000 1.0
C      1  0.5017580000000  0.5693250000000  0.5300770000000 1.0
C      1  0.5015100000000  0.5500110000000  0.4429540000000 1.0
C      1  0.5016510000000  0.4615400000000  0.4350590000000 1.0
C      1  0.5013930000000  0.4260560000000  0.5165370000000 1.0
C      1  0.5014800000000  0.4929550000000  0.5752400000000 1.0
C      1  0.5116430000000  0.5291950000000  0.5208930000000 1.0
C      1  0.5118630000000  0.5283040000000  0.4790800000000 1.0
C      1  0.5116490000000  0.4885250000000  0.4660310000000 1.0
C      1  0.5117860000000  0.4645030000000  0.5003130000000 1.0
C      1  0.5116960000000  0.4894220000000  0.5340000000000 1.0
C      1  0.5290450000000  0.5115330000000  0.4519940000000 1.0
C      1  0.5291730000000  0.4580920000000  0.4743560000000 1.0
C      1  0.5287820000000  0.4623140000000  0.5321540000000 1.0
C      1  0.5291120000000  0.5187490000000  0.5457070000000 1.0
C      1  0.5290370000000  0.5489990000000  0.4961930000000 1.0
C      1  0.4409160000000  0.5433670000000  0.5081020000000 1.0
C      1  0.4408850000000  0.5211020000000  0.4613460000000 1.0
C      1  0.4409520000000  0.4697790000000  0.4679140000000 1.0
C      1  0.4408650000000  0.4601740000000  0.5188670000000 1.0
C      1  0.4408710000000  0.5056310000000  0.5437140000000 1.0
C      1  0.4662230000000  0.4898790000000  0.4272520000000 1.0
C      1  0.4662000000000  0.4275930000000  0.4872090000000 1.0
C      1  0.4661380000000  0.4654760000000  0.5648840000000 1.0
C      1  0.4662040000000  0.5510010000000  0.5528640000000 1.0
C      1  0.4660570000000  0.5660920000000  0.4675850000000 1.0
END
