TITL C-3985250-725-757 0.0195893021291077 125000 -256.224967199606 0 0 60 (C5) n - 1
REM
REM in /home/nfs/bkarasulu/CARBON/AIRSS/Generating-Clusters/TERSOFF/Higher-Symm/Only-C60
REM
REM
REM
REM
REM
REM ./C.cell (28575a23ae977d3b5fae324c64b13b57)
REM
REM compiler GCC version 9.2.1 20190827 (Red Hat 9.2.1-1)
REM options -cpp -mtune=generic -march=x86-64 -g -O0 -fpre-include=/usr/include/finclude/math-vector-fortran.h
REM seed 1616590175 -1873486899 -1439385290 -130625686 -947932369 -831455137 611165048 -1286990312 1159780645 -1917136308 -1317871730 -1835161137 -1337075354 1661061693 -1580863606 392577003 1138986241 -35543494 -1714651134 -2020348752 -1340424732 1674003724 1352639851 -1317235826 -2056567075 -1442287137 9486770 -1016335874 1768529938 16136321 -448865208 401129038 -469572166
REM
CELL 1.54180   50.00000   50.00000   50.00000   90.00000   90.00000   90.00000
LATT -1
SFAC C  
C      1  0.4773800000000  0.4260620000000  0.5245140000000 1.0
C      1  0.4228840000000  0.4989210000000  0.5245000000000 1.0
C      1  0.4752850000000  0.5732610000000  0.5245210000000 1.0
C      1  0.5622180000000  0.5463680000000  0.5245410000000 1.0
C      1  0.5635670000000  0.4554030000000  0.5245190000000 1.0
C      1  0.5360980000000  0.5596200000000  0.4788080000000 1.0
C      1  0.5680440000000  0.4843490000000  0.4788030000000 1.0
C      1  0.5063240000000  0.4306810000000  0.4788140000000 1.0
C      1  0.4361620000000  0.4727770000000  0.4787950000000 1.0
C      1  0.4546510000000  0.5524910000000  0.4788200000000 1.0
C      1  0.5126120000000  0.4434340000000  0.4534600000000 1.0
C      1  0.4502750000000  0.4707750000000  0.4534590000000 1.0
C      1  0.4570170000000  0.5384990000000  0.4534530000000 1.0
C      1  0.5235140000000  0.5530290000000  0.4534520000000 1.0
C      1  0.5578730000000  0.4942730000000  0.4534500000000 1.0
C      1  0.5282770000000  0.4782490000000  0.4908940000000 1.0
C      1  0.4882520000000  0.4665940000000  0.4908800000000 1.0
C      1  0.4647740000000  0.5011030000000  0.4908900000000 1.0
C      1  0.4903930000000  0.5341190000000  0.4909110000000 1.0
C      1  0.5295980000000  0.5199290000000  0.4908460000000 1.0
C      1  0.4727150000000  0.4284740000000  0.4828520000000 1.0
C      1  0.4236860000000  0.5041160000000  0.4828440000000 1.0
C      1  0.4804900000000  0.5741200000000  0.4828390000000 1.0
C      1  0.5646150000000  0.5416850000000  0.4828170000000 1.0
C      1  0.5598030000000  0.4516810000000  0.4828430000000 1.0
C      1  0.4647150000000  0.4961330000000  0.5439650000000 1.0
C      1  0.4854660000000  0.5324910000000  0.5436910000000 1.0
C      1  0.5266330000000  0.5240090000000  0.5435620000000 1.0
C      1  0.5312140000000  0.4823990000000  0.5436940000000 1.0
C      1  0.4929700000000  0.4651840000000  0.5434140000000 1.0
C      1  0.4475220000000  0.4941670000000  0.4368040000000 1.0
C      1  0.4784140000000  0.5483560000000  0.4367990000000 1.0
C      1  0.5394910000000  0.5357210000000  0.4367960000000 1.0
C      1  0.5463520000000  0.4737250000000  0.4367990000000 1.0
C      1  0.4895110000000  0.4480430000000  0.4368030000000 1.0
C      1  0.5702520000000  0.5108030000000  0.4955000000000 1.0
C      1  0.5321850000000  0.4367620000000  0.4955000000000 1.0
C      1  0.4499980000000  0.4501020000000  0.4954960000000 1.0
C      1  0.4372900000000  0.5323590000000  0.4954970000000 1.0
C      1  0.5116450000000  0.5699610000000  0.4955090000000 1.0
C      1  0.4642620000000  0.5101710000000  0.4572080000000 1.0
C      1  0.4988070000000  0.5373920000000  0.4572090000000 1.0
C      1  0.5353740000000  0.5129420000000  0.4571990000000 1.0
C      1  0.5234200000000  0.4705980000000  0.4572120000000 1.0
C      1  0.4794510000000  0.4688890000000  0.4572090000000 1.0
C      1  0.5331660000000  0.4576910000000  0.5200240000000 1.0
C      1  0.4701050000000  0.4557260000000  0.5200380000000 1.0
C      1  0.4487620000000  0.5149300000000  0.5200930000000 1.0
C      1  0.4985180000000  0.5535400000000  0.5200290000000 1.0
C      1  0.5506980000000  0.5181500000000  0.5200480000000 1.0
C      1  0.5137930000000  0.4443990000000  0.5408760000000 1.0
C      1  0.4515380000000  0.4698410000000  0.5408110000000 1.0
C      1  0.4565480000000  0.5370610000000  0.5408880000000 1.0
C      1  0.5219590000000  0.5530150000000  0.5408300000000 1.0
C      1  0.5574580000000  0.4956570000000  0.5408870000000 1.0
C      1  0.5003230000000  0.4999560000000  0.4914480000000 1.0
C      1  0.5002580000000  0.5000040000000  0.4556770000000 1.0
C      1  0.5002500000000  0.4999960000000  0.5833460000000 1.0
C      1  0.5002720000000  0.4999360000000  0.5519800000000 1.0
C      1  0.5003840000000  0.5000080000000  0.5212170000000 1.0
END
