TITL C-3985244-725-601 -5.7709404158551e-05 125000 -328.151341227658 0 0 60 (C1) n - 1
REM
REM in /home/nfs/bkarasulu/CARBON/AIRSS/Generating-Clusters/TERSOFF/Higher-Symm/Only-C60
REM
REM
REM
REM
REM
REM ./C.cell (28575a23ae977d3b5fae324c64b13b57)
REM
REM compiler GCC version 9.2.1 20190827 (Red Hat 9.2.1-1)
REM options -cpp -mtune=generic -march=x86-64 -g -O0 -fpre-include=/usr/include/finclude/math-vector-fortran.h
REM seed 73442123 1477417571 -1081339092 521462503 99693049 -1991891275 549618583 -1291046557 1286363690 1515950333 496921650 -1353406741 1777700865 -1528266246 -2117799175 1727685882 -1744408984 351784532 -413525542 1318097478 -44622292 -1036102072 555065371 -1101358096 -1529578905 564906820 -1924619345 -23787520 -1001354398 2034764243 766028759 -60448640 122595054
REM
CELL 1.54180   50.00000   50.00000   50.00000   90.00000   90.00000   90.00000
LATT -1
SFAC C  
C      1  0.4962000000000  0.4692310000000  0.4332890000000 1.0
C      1  0.4969760000000  0.4299420000000  0.4783740000000 1.0
C      1  0.5021790000000  0.5635790000000  0.4986530000000 1.0
C      1  0.5177500000000  0.4452270000000  0.5295900000000 1.0
C      1  0.4829720000000  0.5217220000000  0.4327050000000 1.0
C      1  0.4462790000000  0.4904710000000  0.5033700000000 1.0
C      1  0.5182720000000  0.4504830000000  0.4774970000000 1.0
C      1  0.5314030000000  0.4944140000000  0.4990010000000 1.0
C      1  0.4936150000000  0.4741550000000  0.5112250000000 1.0
C      1  0.5090110000000  0.5258590000000  0.4194430000000 1.0
C      1  0.4746110000000  0.4915990000000  0.4367130000000 1.0
C      1  0.5203470000000  0.5570720000000  0.4545280000000 1.0
C      1  0.5546020000000  0.4860510000000  0.5395620000000 1.0
C      1  0.5146950000000  0.4773800000000  0.5698000000000 1.0
C      1  0.4537370000000  0.4653820000000  0.5209620000000 1.0
C      1  0.5517900000000  0.4574930000000  0.5279600000000 1.0
C      1  0.5327310000000  0.5102840000000  0.4278840000000 1.0
C      1  0.4809170000000  0.5683340000000  0.5243220000000 1.0
C      1  0.5201100000000  0.5116780000000  0.4776780000000 1.0
C      1  0.4487320000000  0.5220550000000  0.5159310000000 1.0
C      1  0.4996950000000  0.4563960000000  0.5526670000000 1.0
C      1  0.4971660000000  0.4981110000000  0.5570250000000 1.0
C      1  0.4311430000000  0.5261850000000  0.4868070000000 1.0
C      1  0.4285120000000  0.4926970000000  0.4736610000000 1.0
C      1  0.4696270000000  0.4999850000000  0.4775060000000 1.0
C      1  0.4732630000000  0.5429960000000  0.4534670000000 1.0
C      1  0.4798970000000  0.4726420000000  0.4857210000000 1.0
C      1  0.4944690000000  0.5606290000000  0.4678160000000 1.0
C      1  0.4948250000000  0.4286000000000  0.5111570000000 1.0
C      1  0.4556740000000  0.5507140000000  0.5335970000000 1.0
C      1  0.5660720000000  0.5010580000000  0.4697520000000 1.0
C      1  0.4923260000000  0.5181860000000  0.4868980000000 1.0
C      1  0.5537180000000  0.5455530000000  0.4890270000000 1.0
C      1  0.4550360000000  0.5245950000000  0.4675650000000 1.0
C      1  0.5067100000000  0.5382840000000  0.5641630000000 1.0
C      1  0.5498350000000  0.5067110000000  0.5187390000000 1.0
C      1  0.4688310000000  0.4454320000000  0.4756310000000 1.0
C      1  0.4631210000000  0.4406550000000  0.5070900000000 1.0
C      1  0.4480770000000  0.5009840000000  0.5440340000000 1.0
C      1  0.4812320000000  0.5199400000000  0.5757210000000 1.0
C      1  0.4567430000000  0.5278750000000  0.5575390000000 1.0
C      1  0.5313450000000  0.5546790000000  0.5082700000000 1.0
C      1  0.5393580000000  0.4939610000000  0.5641380000000 1.0
C      1  0.5366040000000  0.5322890000000  0.5276550000000 1.0
C      1  0.4455130000000  0.4812440000000  0.4487150000000 1.0
C      1  0.4907410000000  0.4970770000000  0.5287850000000 1.0
C      1  0.5677570000000  0.5178050000000  0.4957520000000 1.0
C      1  0.5621150000000  0.4546160000000  0.4973180000000 1.0
C      1  0.5229230000000  0.4956340000000  0.4520370000000 1.0
C      1  0.4969900000000  0.5435550000000  0.5351420000000 1.0
C      1  0.5564350000000  0.5203860000000  0.4457890000000 1.0
C      1  0.5547180000000  0.4725140000000  0.4718340000000 1.0
C      1  0.5202340000000  0.4659980000000  0.5020770000000 1.0
C      1  0.5339450000000  0.5239900000000  0.5692270000000 1.0
C      1  0.4664230000000  0.4703640000000  0.5502090000000 1.0
C      1  0.5384760000000  0.5369400000000  0.4651180000000 1.0
C      1  0.4639950000000  0.4887400000000  0.5808640000000 1.0
C      1  0.4501800000000  0.4521530000000  0.4538110000000 1.0
C      1  0.5250270000000  0.4652970000000  0.4526140000000 1.0
C      1  0.4843230000000  0.5221170000000  0.5165750000000 1.0
END
