TITL C-3985245-9316-346 5.0867753176207e-08 125000 -300.570741744741 0 0 60 (C4) n - 1
REM
REM in /home/nfs/bkarasulu/CARBON/AIRSS/Generating-Clusters/TERSOFF/Higher-Symm/Only-C60
REM
REM
REM
REM
REM
REM ./C.cell (28575a23ae977d3b5fae324c64b13b57)
REM
REM compiler GCC version 9.2.1 20190827 (Red Hat 9.2.1-1)
REM options -cpp -mtune=generic -march=x86-64 -g -O0 -fpre-include=/usr/include/finclude/math-vector-fortran.h
REM seed 1055566184 -2016625987 169680051 -1880336287 1981588638 -321591834 -2059215877 -1319421036 -8502447 1068505621 -1891502373 -1654446276 -1786090326 -2122337073 -2136345792 -958943658 -1858258549 -834107923 2084068132 1024647201 -1758250576 294781729 -1446367292 -1389342603 -1808741884 -173567677 -1128633148 -1185236586 -1108821468 -17362301 -675810024 -1791454429 -1362233734
REM
CELL 1.54180   50.00000   50.00000   50.00000   90.00000   90.00000   90.00000
LATT -1
SFAC C  
C      1  0.5363100000000  0.4801350000000  0.5144800000000 1.0
C      1  0.5363100000000  0.4855200000000  0.4801350000000 1.0
C      1  0.5363100000000  0.5198650000000  0.4855200000000 1.0
C      1  0.5363100000000  0.5144800000000  0.5198650000000 1.0
C      1  0.4671920000000  0.4520790000000  0.5335970000000 1.0
C      1  0.4671920000000  0.4664030000000  0.4520790000000 1.0
C      1  0.4671920000000  0.5479210000000  0.4664030000000 1.0
C      1  0.4671920000000  0.5335970000000  0.5479210000000 1.0
C      1  0.5027550000000  0.5026210000000  0.5253630000000 1.0
C      1  0.5027550000000  0.4746370000000  0.5026210000000 1.0
C      1  0.5027550000000  0.4973790000000  0.4746370000000 1.0
C      1  0.5027550000000  0.5253630000000  0.4973790000000 1.0
C      1  0.4915210000000  0.4445160000000  0.5121280000000 1.0
C      1  0.4915210000000  0.4878720000000  0.4445160000000 1.0
C      1  0.4915210000000  0.5554840000000  0.4878720000000 1.0
C      1  0.4915210000000  0.5121280000000  0.5554840000000 1.0
C      1  0.5243190000000  0.4561020000000  0.4645180000000 1.0
C      1  0.5243190000000  0.5354820000000  0.4561020000000 1.0
C      1  0.5243190000000  0.5438980000000  0.5354820000000 1.0
C      1  0.5243190000000  0.4645180000000  0.5438980000000 1.0
C      1  0.5399930000000  0.4441020000000  0.4932810000000 1.0
C      1  0.5399930000000  0.5067190000000  0.4441020000000 1.0
C      1  0.5399930000000  0.5558980000000  0.5067190000000 1.0
C      1  0.5399930000000  0.4932810000000  0.5558980000000 1.0
C      1  0.4228080000000  0.5061250000000  0.5223420000000 1.0
C      1  0.4228080000000  0.4776580000000  0.5061250000000 1.0
C      1  0.4228080000000  0.4938750000000  0.4776580000000 1.0
C      1  0.4228080000000  0.5223420000000  0.4938750000000 1.0
C      1  0.4564190000000  0.5496980000000  0.5174170000000 1.0
C      1  0.4564190000000  0.4825830000000  0.5496980000000 1.0
C      1  0.4564190000000  0.4503020000000  0.4825830000000 1.0
C      1  0.4564190000000  0.5174170000000  0.4503020000000 1.0
C      1  0.4702850000000  0.4924650000000  0.5219940000000 1.0
C      1  0.4702850000000  0.4780060000000  0.4924650000000 1.0
C      1  0.4702850000000  0.5075350000000  0.4780060000000 1.0
C      1  0.4702850000000  0.5219940000000  0.5075350000000 1.0
C      1  0.4944330000000  0.4460000000000  0.4630670000000 1.0
C      1  0.4944330000000  0.5369330000000  0.4460000000000 1.0
C      1  0.4944330000000  0.5540000000000  0.5369330000000 1.0
C      1  0.4944330000000  0.4630670000000  0.5540000000000 1.0
C      1  0.5871770000000  0.5029370000000  0.5222250000000 1.0
C      1  0.5871770000000  0.4777750000000  0.5029370000000 1.0
C      1  0.5871770000000  0.4970630000000  0.4777750000000 1.0
C      1  0.5871770000000  0.5222250000000  0.4970630000000 1.0
C      1  0.5623420000000  0.5073630000000  0.5382410000000 1.0
C      1  0.5623420000000  0.4617590000000  0.5073630000000 1.0
C      1  0.5623420000000  0.4926370000000  0.4617590000000 1.0
C      1  0.5623420000000  0.5382410000000  0.4926370000000 1.0
C      1  0.4411540000000  0.5106400000000  0.5460370000000 1.0
C      1  0.4411540000000  0.4539630000000  0.5106400000000 1.0
C      1  0.4411540000000  0.4893600000000  0.4539630000000 1.0
C      1  0.4411540000000  0.5460370000000  0.4893600000000 1.0
C      1  0.5218020000000  0.5590300000000  0.4811360000000 1.0
C      1  0.5218020000000  0.5188640000000  0.5590300000000 1.0
C      1  0.5218020000000  0.4409700000000  0.5188640000000 1.0
C      1  0.5218020000000  0.4811360000000  0.4409700000000 1.0
C      1  0.4814900000000  0.5131230000000  0.4317730000000 1.0
C      1  0.4814900000000  0.5682270000000  0.5131230000000 1.0
C      1  0.4814900000000  0.4868770000000  0.5682270000000 1.0
C      1  0.4814900000000  0.4317730000000  0.4868770000000 1.0
END
