TITL C-3985259-1859-1186 1.36891376346652e-07 125000 -293.918767922418 0 0 60 (Td) n - 1
REM
REM in /home/nfs/bkarasulu/CARBON/AIRSS/Generating-Clusters/TERSOFF/Higher-Symm/Only-C60
REM
REM
REM
REM
REM
REM ./C.cell (28575a23ae977d3b5fae324c64b13b57)
REM
REM compiler GCC version 9.2.1 20190827 (Red Hat 9.2.1-1)
REM options -cpp -mtune=generic -march=x86-64 -g -O0 -fpre-include=/usr/include/finclude/math-vector-fortran.h
REM seed 1344886794 -2088375219 949860707 1363221648 1342368789 2122405727 -285889929 1630914911 -968951582 -1307607962 -1053525289 -1134541188 2122410011 -562433633 -1948387750 620492481 -1112217646 1223662118 520436764 -1798705974 285635235 2035667048 -1184186328 151036053 -449903289 193797347 -1704621698 -559427260 -382979837 1012469711 -1972381528 857908965 1311444082
REM
CELL 1.54180   50.00000   50.00000   50.00000   90.00000   90.00000   90.00000
LATT -1
SFAC C  
C      1  0.4975120000000  0.4582760000000  0.4324220000000 1.0
C      1  0.4582760000000  0.4324220000000  0.4975120000000 1.0
C      1  0.4324220000000  0.4975120000000  0.4582760000000 1.0
C      1  0.5024880000000  0.4582760000000  0.5675780000000 1.0
C      1  0.5024880000000  0.5417240000000  0.4324220000000 1.0
C      1  0.4975120000000  0.5417240000000  0.5675780000000 1.0
C      1  0.5417240000000  0.4324220000000  0.5024880000000 1.0
C      1  0.5417240000000  0.5675780000000  0.4975120000000 1.0
C      1  0.4582760000000  0.5675780000000  0.5024880000000 1.0
C      1  0.5675780000000  0.4975120000000  0.5417240000000 1.0
C      1  0.5675780000000  0.5024880000000  0.4582760000000 1.0
C      1  0.4324220000000  0.5024880000000  0.5417240000000 1.0
C      1  0.4324220000000  0.4582760000000  0.4975120000000 1.0
C      1  0.4975120000000  0.4324220000000  0.4582760000000 1.0
C      1  0.4582760000000  0.4975120000000  0.4324220000000 1.0
C      1  0.5675780000000  0.4582760000000  0.5024880000000 1.0
C      1  0.4324220000000  0.5417240000000  0.5024880000000 1.0
C      1  0.5675780000000  0.5417240000000  0.4975120000000 1.0
C      1  0.5024880000000  0.4324220000000  0.5417240000000 1.0
C      1  0.4975120000000  0.5675780000000  0.5417240000000 1.0
C      1  0.5024880000000  0.5675780000000  0.4582760000000 1.0
C      1  0.5417240000000  0.4975120000000  0.5675780000000 1.0
C      1  0.4582760000000  0.5024880000000  0.5675780000000 1.0
C      1  0.5417240000000  0.5024880000000  0.4324220000000 1.0
C      1  0.4575660000000  0.4998420000000  0.5219660000000 1.0
C      1  0.4998420000000  0.5219660000000  0.4575660000000 1.0
C      1  0.5219660000000  0.4575660000000  0.4998420000000 1.0
C      1  0.5424340000000  0.4998420000000  0.4780340000000 1.0
C      1  0.5424340000000  0.5001580000000  0.5219660000000 1.0
C      1  0.4575660000000  0.5001580000000  0.4780340000000 1.0
C      1  0.5001580000000  0.5219660000000  0.5424340000000 1.0
C      1  0.5001580000000  0.4780340000000  0.4575660000000 1.0
C      1  0.4998420000000  0.4780340000000  0.5424340000000 1.0
C      1  0.4780340000000  0.4575660000000  0.5001580000000 1.0
C      1  0.4780340000000  0.5424340000000  0.4998420000000 1.0
C      1  0.5219660000000  0.5424340000000  0.5001580000000 1.0
C      1  0.5219660000000  0.4998420000000  0.4575660000000 1.0
C      1  0.4575660000000  0.5219660000000  0.4998420000000 1.0
C      1  0.4998420000000  0.4575660000000  0.5219660000000 1.0
C      1  0.4780340000000  0.4998420000000  0.5424340000000 1.0
C      1  0.5219660000000  0.5001580000000  0.5424340000000 1.0
C      1  0.4780340000000  0.5001580000000  0.4575660000000 1.0
C      1  0.5424340000000  0.5219660000000  0.5001580000000 1.0
C      1  0.4575660000000  0.4780340000000  0.5001580000000 1.0
C      1  0.5424340000000  0.4780340000000  0.4998420000000 1.0
C      1  0.5001580000000  0.4575660000000  0.4780340000000 1.0
C      1  0.4998420000000  0.5424340000000  0.4780340000000 1.0
C      1  0.5001580000000  0.5424340000000  0.5219660000000 1.0
C      1  0.5813640000000  0.4886860000000  0.5113140000000 1.0
C      1  0.4886860000000  0.5113140000000  0.5813640000000 1.0
C      1  0.5113140000000  0.5813640000000  0.4886860000000 1.0
C      1  0.4186360000000  0.4886860000000  0.4886860000000 1.0
C      1  0.4186360000000  0.5113140000000  0.5113140000000 1.0
C      1  0.5813640000000  0.5113140000000  0.4886860000000 1.0
C      1  0.5113140000000  0.5113140000000  0.4186360000000 1.0
C      1  0.5113140000000  0.4886860000000  0.5813640000000 1.0
C      1  0.4886860000000  0.4886860000000  0.4186360000000 1.0
C      1  0.4886860000000  0.5813640000000  0.5113140000000 1.0
C      1  0.4886860000000  0.4186360000000  0.4886860000000 1.0
C      1  0.5113140000000  0.4186360000000  0.5113140000000 1.0
END
