TITL C-3985247-764-821 3.26875684947409e-06 125000 -331.712407870492 0 0 60 (C1) n - 1
REM
REM in /home/nfs/bkarasulu/CARBON/AIRSS/Generating-Clusters/TERSOFF/Higher-Symm/Only-C60
REM
REM
REM
REM
REM
REM ./C.cell (28575a23ae977d3b5fae324c64b13b57)
REM
REM compiler GCC version 9.2.1 20190827 (Red Hat 9.2.1-1)
REM options -cpp -mtune=generic -march=x86-64 -g -O0 -fpre-include=/usr/include/finclude/math-vector-fortran.h
REM seed -212833356 1971656115 -787617198 1072928145 1024650330 1956628573 -883380419 1517421870 810864811 -2028121605 1839275226 -445204921 -1269905572 -1450199166 -860506018 -1598064089 -617811116 -138996176 -475907000 -10793483 -1276078305 927269408 940137450 1521425000 1687766474 594350529 2086304739 704206033 1085282564 1792462782 1272887946 -1592327362 -1478208360
REM
CELL 1.54180   50.00000   50.00000   50.00000   90.00000   90.00000   90.00000
LATT -1
SFAC C  
C      1  0.5364280000000  0.5541770000000  0.4844860000000 1.0
C      1  0.5241170000000  0.4897120000000  0.5683950000000 1.0
C      1  0.4745970000000  0.5097840000000  0.5279070000000 1.0
C      1  0.4825900000000  0.5640520000000  0.5352180000000 1.0
C      1  0.4804780000000  0.4263170000000  0.5110540000000 1.0
C      1  0.5355140000000  0.5194290000000  0.5296340000000 1.0
C      1  0.4789250000000  0.4542070000000  0.4718670000000 1.0
C      1  0.5633240000000  0.5076020000000  0.5267730000000 1.0
C      1  0.4989680000000  0.4784420000000  0.5143960000000 1.0
C      1  0.5243470000000  0.4423490000000  0.4887290000000 1.0
C      1  0.4299490000000  0.4695660000000  0.4925040000000 1.0
C      1  0.5524900000000  0.5232080000000  0.4420210000000 1.0
C      1  0.5044010000000  0.5327750000000  0.4452740000000 1.0
C      1  0.4843170000000  0.4882970000000  0.4404500000000 1.0
C      1  0.4715110000000  0.4270240000000  0.4818080000000 1.0
C      1  0.4636300000000  0.4699450000000  0.4515840000000 1.0
C      1  0.5075760000000  0.4547430000000  0.4671540000000 1.0
C      1  0.4287340000000  0.4852310000000  0.5187240000000 1.0
C      1  0.4430380000000  0.5377400000000  0.5490190000000 1.0
C      1  0.4937110000000  0.4946070000000  0.5701170000000 1.0
C      1  0.4636740000000  0.4524540000000  0.5142940000000 1.0
C      1  0.4764440000000  0.4727830000000  0.5574340000000 1.0
C      1  0.5036440000000  0.5156160000000  0.4728020000000 1.0
C      1  0.5472470000000  0.5236630000000  0.4881460000000 1.0
C      1  0.4508950000000  0.5610850000000  0.5023050000000 1.0
C      1  0.5282410000000  0.5026090000000  0.4809200000000 1.0
C      1  0.4386800000000  0.5100880000000  0.5580440000000 1.0
C      1  0.4575110000000  0.5036100000000  0.4891910000000 1.0
C      1  0.4743000000000  0.4761630000000  0.4963800000000 1.0
C      1  0.5494300000000  0.4908460000000  0.4577660000000 1.0
C      1  0.5109370000000  0.4316540000000  0.5141120000000 1.0
C      1  0.5265880000000  0.5228230000000  0.4273650000000 1.0
C      1  0.5531170000000  0.4458990000000  0.4859530000000 1.0
C      1  0.5573740000000  0.4592520000000  0.4592900000000 1.0
C      1  0.4434660000000  0.4833880000000  0.4682610000000 1.0
C      1  0.5180020000000  0.4767000000000  0.4461270000000 1.0
C      1  0.5224250000000  0.4956790000000  0.5091710000000 1.0
C      1  0.4785300000000  0.5182280000000  0.4392470000000 1.0
C      1  0.5736860000000  0.5154850000000  0.4996730000000 1.0
C      1  0.5316690000000  0.5159910000000  0.5583540000000 1.0
C      1  0.4966500000000  0.4631160000000  0.5379780000000 1.0
C      1  0.5602730000000  0.4771880000000  0.5311890000000 1.0
C      1  0.5677610000000  0.4656250000000  0.5034270000000 1.0
C      1  0.4339080000000  0.5132550000000  0.5056300000000 1.0
C      1  0.4829980000000  0.5240740000000  0.4958700000000 1.0
C      1  0.5269160000000  0.5465310000000  0.5168060000000 1.0
C      1  0.5039450000000  0.5574150000000  0.4691860000000 1.0
C      1  0.5554750000000  0.5498600000000  0.4564930000000 1.0
C      1  0.5206130000000  0.4949340000000  0.4203870000000 1.0
C      1  0.4636400000000  0.5805950000000  0.5202290000000 1.0
C      1  0.5193040000000  0.4436090000000  0.5426200000000 1.0
C      1  0.4514230000000  0.4880780000000  0.5409970000000 1.0
C      1  0.4590470000000  0.5328760000000  0.4565260000000 1.0
C      1  0.4368300000000  0.5394930000000  0.5190460000000 1.0
C      1  0.4711960000000  0.5466680000000  0.5566440000000 1.0
C      1  0.4871120000000  0.5203160000000  0.5535810000000 1.0
C      1  0.4703390000000  0.5493750000000  0.4802080000000 1.0
C      1  0.5375960000000  0.4675530000000  0.5502980000000 1.0
C      1  0.4979860000000  0.5469020000000  0.5165260000000 1.0
C      1  0.5724840000000  0.4893120000000  0.4844100000000 1.0
END
