TITL C-3985254-1270-795 0.000161015352405074 125000 -343.438449951337 0 0 60 (C1) n - 1
REM
REM in /home/nfs/bkarasulu/CARBON/AIRSS/Generating-Clusters/TERSOFF/Higher-Symm/Only-C60
REM
REM
REM
REM
REM
REM ./C.cell (28575a23ae977d3b5fae324c64b13b57)
REM
REM compiler GCC version 9.2.1 20190827 (Red Hat 9.2.1-1)
REM options -cpp -mtune=generic -march=x86-64 -g -O0 -fpre-include=/usr/include/finclude/math-vector-fortran.h
REM seed 1860726770 -1767151139 -1169926719 -1387473567 174568966 -544237567 2147156381 -951727219 104880 -1005979291 -1803039166 -1634648628 -638420023 933681272 730898660 -1564952232 1983744735 -1888585573 -651235304 1024020171 -1330377619 806582423 469046421 210693193 387422977 230355539 362881210 2138509454 -1258859658 117999676 1264200109 -1385693106 1545104734
REM
CELL 1.54180   50.00000   50.00000   50.00000   90.00000   90.00000   90.00000
LATT -1
SFAC C  
C      1  0.5346270000000  0.4623580000000  0.5396110000000 1.0
C      1  0.5516520000000  0.4865450000000  0.5326240000000 1.0
C      1  0.5466840000000  0.5111880000000  0.5478080000000 1.0
C      1  0.5404620000000  0.5352990000000  0.5323060000000 1.0
C      1  0.5138020000000  0.5485780000000  0.5376060000000 1.0
C      1  0.4549970000000  0.5419470000000  0.5461480000000 1.0
C      1  0.4353950000000  0.5172380000000  0.5403710000000 1.0
C      1  0.4459470000000  0.4866720000000  0.5511430000000 1.0
C      1  0.4509760000000  0.4546040000000  0.5399920000000 1.0
C      1  0.4796170000000  0.4417230000000  0.5460840000000 1.0
C      1  0.5506740000000  0.5129300000000  0.4545150000000 1.0
C      1  0.5315880000000  0.5394760000000  0.4621920000000 1.0
C      1  0.4988390000000  0.5492600000000  0.4621810000000 1.0
C      1  0.4694380000000  0.5442480000000  0.4670270000000 1.0
C      1  0.4542120000000  0.5181500000000  0.4551790000000 1.0
C      1  0.4514290000000  0.4886520000000  0.4676210000000 1.0
C      1  0.4654400000000  0.4637950000000  0.4567900000000 1.0
C      1  0.4982670000000  0.4495920000000  0.4617310000000 1.0
C      1  0.5264560000000  0.4569290000000  0.4707340000000 1.0
C      1  0.5430120000000  0.4799900000000  0.4596520000000 1.0
C      1  0.4940580000000  0.4528810000000  0.5692690000000 1.0
C      1  0.5221130000000  0.4618920000000  0.5664420000000 1.0
C      1  0.5316850000000  0.4824730000000  0.5847260000000 1.0
C      1  0.5374140000000  0.5093790000000  0.5754790000000 1.0
C      1  0.5206390000000  0.5315120000000  0.5838450000000 1.0
C      1  0.5023940000000  0.5444360000000  0.5651000000000 1.0
C      1  0.4734780000000  0.5387820000000  0.5686040000000 1.0
C      1  0.4661440000000  0.5172730000000  0.5866980000000 1.0
C      1  0.4605910000000  0.4902330000000  0.5776070000000 1.0
C      1  0.4770830000000  0.4683160000000  0.5870250000000 1.0
C      1  0.4667700000000  0.4644100000000  0.4252810000000 1.0
C      1  0.4959330000000  0.4545890000000  0.4294260000000 1.0
C      1  0.5183440000000  0.4668380000000  0.4152550000000 1.0
C      1  0.5393440000000  0.4821270000000  0.4283470000000 1.0
C      1  0.5474890000000  0.5120180000000  0.4204490000000 1.0
C      1  0.5336750000000  0.5400550000000  0.4273530000000 1.0
C      1  0.5035620000000  0.5462670000000  0.4314830000000 1.0
C      1  0.4824120000000  0.5347060000000  0.4151960000000 1.0
C      1  0.4625350000000  0.5156740000000  0.4252950000000 1.0
C      1  0.4600360000000  0.4895470000000  0.4123380000000 1.0
C      1  0.4928360000000  0.4294420000000  0.4861940000000 1.0
C      1  0.5367020000000  0.4433360000000  0.4937770000000 1.0
C      1  0.5636910000000  0.4736040000000  0.4829000000000 1.0
C      1  0.5761690000000  0.5179460000000  0.4694200000000 1.0
C      1  0.5457730000000  0.5536720000000  0.4846790000000 1.0
C      1  0.5054160000000  0.5643300000000  0.4891570000000 1.0
C      1  0.4577160000000  0.5592470000000  0.4894420000000 1.0
C      1  0.4351170000000  0.5248130000000  0.4814070000000 1.0
C      1  0.4400950000000  0.4851050000000  0.4939530000000 1.0
C      1  0.4554460000000  0.4479950000000  0.4817790000000 1.0
C      1  0.4661290000000  0.5517810000000  0.5181620000000 1.0
C      1  0.4484680000000  0.5233180000000  0.5091100000000 1.0
C      1  0.4586010000000  0.4898760000000  0.5187020000000 1.0
C      1  0.4661280000000  0.4557780000000  0.5089130000000 1.0
C      1  0.4945550000000  0.4382770000000  0.5176910000000 1.0
C      1  0.5237740000000  0.4453070000000  0.5188520000000 1.0
C      1  0.5672260000000  0.4902000000000  0.5070590000000 1.0
C      1  0.5746560000000  0.5177710000000  0.4988530000000 1.0
C      1  0.5566120000000  0.5396540000000  0.5077860000000 1.0
C      1  0.4956730000000  0.5559680000000  0.5156300000000 1.0
END
