TITL C-3985251-913-672 -0.000983823818602111 125000 -318.102211256378 0 0 60 (C1) n - 1
REM
REM in /home/nfs/bkarasulu/CARBON/AIRSS/Generating-Clusters/TERSOFF/Higher-Symm/Only-C60
REM
REM
REM
REM
REM
REM ./C.cell (28575a23ae977d3b5fae324c64b13b57)
REM
REM compiler GCC version 9.2.1 20190827 (Red Hat 9.2.1-1)
REM options -cpp -mtune=generic -march=x86-64 -g -O0 -fpre-include=/usr/include/finclude/math-vector-fortran.h
REM seed 1427312657 -1419196200 -1158818635 -2047184993 -1448384550 -659862312 -1080249896 -973031947 841178992 1024857605 755828512 -1423873578 2136651616 -1596180418 -448304964 -1453817096 740064793 -1519311636 919900267 -1473783305 528606932 556653480 -1509171154 88461650 875475727 1290490421 1131890821 123094479 -1897271490 -1432508725 -1442950993 37670503 -1108344045
REM
CELL 1.54180   50.00000   50.00000   50.00000   90.00000   90.00000   90.00000
LATT -1
SFAC C  
C      1  0.4868140000000  0.4612890000000  0.4693260000000 1.0
C      1  0.4874820000000  0.4635110000000  0.5276350000000 1.0
C      1  0.4646840000000  0.4430230000000  0.5231280000000 1.0
C      1  0.4641460000000  0.4412170000000  0.4750480000000 1.0
C      1  0.5108890000000  0.5431460000000  0.4605650000000 1.0
C      1  0.5207350000000  0.5370400000000  0.5415400000000 1.0
C      1  0.5393600000000  0.5244200000000  0.4534500000000 1.0
C      1  0.5492700000000  0.5295340000000  0.5362770000000 1.0
C      1  0.4791100000000  0.4966060000000  0.5400650000000 1.0
C      1  0.4756210000000  0.4926150000000  0.4551320000000 1.0
C      1  0.5033430000000  0.5160130000000  0.5545070000000 1.0
C      1  0.4984910000000  0.5158170000000  0.4494310000000 1.0
C      1  0.4375000000000  0.4503480000000  0.5280030000000 1.0
C      1  0.4366250000000  0.4484560000000  0.4700180000000 1.0
C      1  0.4246220000000  0.4715190000000  0.5137260000000 1.0
C      1  0.4231490000000  0.4701950000000  0.4835390000000 1.0
C      1  0.5589820000000  0.5435160000000  0.4687240000000 1.0
C      1  0.5643400000000  0.5464740000000  0.5171890000000 1.0
C      1  0.4280300000000  0.4992300000000  0.5238860000000 1.0
C      1  0.4236040000000  0.4975020000000  0.4706960000000 1.0
C      1  0.5488430000000  0.4754010000000  0.4618500000000 1.0
C      1  0.5488200000000  0.4788730000000  0.5436090000000 1.0
C      1  0.5139540000000  0.4980540000000  0.5779670000000 1.0
C      1  0.5216770000000  0.5020610000000  0.4302920000000 1.0
C      1  0.4583040000000  0.5391840000000  0.5210170000000 1.0
C      1  0.4537590000000  0.5356810000000  0.4604730000000 1.0
C      1  0.5464700000000  0.5014810000000  0.4740720000000 1.0
C      1  0.5495030000000  0.5020130000000  0.5262350000000 1.0
C      1  0.4485410000000  0.5072720000000  0.4554090000000 1.0
C      1  0.4544290000000  0.5123180000000  0.5331110000000 1.0
C      1  0.5106820000000  0.5643140000000  0.5337270000000 1.0
C      1  0.5060110000000  0.5681940000000  0.4801400000000 1.0
C      1  0.4920340000000  0.4812050000000  0.4267220000000 1.0
C      1  0.4858590000000  0.4814290000000  0.5706890000000 1.0
C      1  0.5309530000000  0.4719300000000  0.4394430000000 1.0
C      1  0.5279520000000  0.4737300000000  0.5629650000000 1.0
C      1  0.5021210000000  0.4575220000000  0.5552680000000 1.0
C      1  0.5042840000000  0.4558750000000  0.4426700000000 1.0
C      1  0.5082170000000  0.4890730000000  0.5015590000000 1.0
C      1  0.4229580000000  0.5467470000000  0.4991380000000 1.0
C      1  0.4580060000000  0.4958000000000  0.4946780000000 1.0
C      1  0.4669130000000  0.5806830000000  0.5120840000000 1.0
C      1  0.4648270000000  0.5466490000000  0.4862190000000 1.0
C      1  0.5861620000000  0.5020900000000  0.4921760000000 1.0
C      1  0.5334790000000  0.5041690000000  0.5008920000000 1.0
C      1  0.4708980000000  0.4253260000000  0.4996920000000 1.0
C      1  0.5219710000000  0.5330610000000  0.4997520000000 1.0
C      1  0.5082620000000  0.4593980000000  0.4983090000000 1.0
C      1  0.5561460000000  0.4285010000000  0.4975440000000 1.0
C      1  0.4948790000000  0.5718340000000  0.5091440000000 1.0
C      1  0.4846320000000  0.5049890000000  0.4993020000000 1.0
C      1  0.5810460000000  0.4472130000000  0.4982780000000 1.0
C      1  0.4283360000000  0.5163810000000  0.4971270000000 1.0
C      1  0.5771810000000  0.5305720000000  0.4917800000000 1.0
C      1  0.5400310000000  0.4561770000000  0.4980040000000 1.0
C      1  0.4912270000000  0.5322130000000  0.4959100000000 1.0
C      1  0.5001930000000  0.4287490000000  0.4998870000000 1.0
C      1  0.4444100000000  0.5692820000000  0.4952850000000 1.0
C      1  0.5430840000000  0.5549120000000  0.4945300000000 1.0
C      1  0.5695050000000  0.4769520000000  0.4991720000000 1.0
END
