TITL C-3985252-168-233 -0.00659739868292018 125000 -325.798721014809 0 0 60 (C2) n - 1
REM
REM in /home/nfs/bkarasulu/CARBON/AIRSS/Generating-Clusters/TERSOFF/Higher-Symm/Only-C60
REM
REM
REM
REM
REM
REM ./C.cell (28575a23ae977d3b5fae324c64b13b57)
REM
REM compiler GCC version 9.2.1 20190827 (Red Hat 9.2.1-1)
REM options -cpp -mtune=generic -march=x86-64 -g -O0 -fpre-include=/usr/include/finclude/math-vector-fortran.h
REM seed 518363228 -1643965519 1797624197 -1591467537 1489194376 1850225688 1651844482 945114630 1479687586 773911818 759026956 -1072574768 -271694819 235768235 1565916225 62828904 -840486495 -1243807760 1481170066 265214450 -1717023655 -634697057 1729639275 1344728063 1655234335 -29719313 1045304493 6467648 -694878512 -223040524 1639617562 -571813312 1706457851
REM
CELL 1.54180   50.00000   50.00000   50.00000   90.00000   90.00000   90.00000
LATT -1
SFAC C  
C      1  0.4383760000000  0.4910790000000  0.5104830000000 1.0
C      1  0.5616240000000  0.4910790000000  0.4895170000000 1.0
C      1  0.5359480000000  0.5473810000000  0.4484860000000 1.0
C      1  0.4640520000000  0.5473810000000  0.5515140000000 1.0
C      1  0.5222530000000  0.5470270000000  0.4973890000000 1.0
C      1  0.4777490000000  0.5470290000000  0.5026080000000 1.0
C      1  0.5027110000000  0.5137210000000  0.5669760000000 1.0
C      1  0.4972890000000  0.5137210000000  0.4330240000000 1.0
C      1  0.5632420000000  0.5114370000000  0.4696760000000 1.0
C      1  0.4367580000000  0.5114370000000  0.5303240000000 1.0
C      1  0.4888300000000  0.5421870000000  0.5663250000000 1.0
C      1  0.5111700000000  0.5421870000000  0.4336750000000 1.0
C      1  0.5073140000000  0.4639320000000  0.5606110000000 1.0
C      1  0.4926860000000  0.4639320000000  0.4393890000000 1.0
C      1  0.5601430000000  0.5302340000000  0.5073210000000 1.0
C      1  0.4398570000000  0.5302340000000  0.4926790000000 1.0
C      1  0.4893230000000  0.4401860000000  0.5477710000000 1.0
C      1  0.5106770000000  0.4401860000000  0.4522290000000 1.0
C      1  0.4836730000000  0.5151690000000  0.5296050000000 1.0
C      1  0.5163270000000  0.5151690000000  0.4703950000000 1.0
C      1  0.4518500000000  0.4936170000000  0.4584420000000 1.0
C      1  0.5481500000000  0.4936170000000  0.5415580000000 1.0
C      1  0.4676080000000  0.5204960000000  0.4492760000000 1.0
C      1  0.5323920000000  0.5204960000000  0.5507240000000 1.0
C      1  0.5033070000000  0.4419440000000  0.5177410000000 1.0
C      1  0.4966930000000  0.4419440000000  0.4822590000000 1.0
C      1  0.5335060000000  0.4446550000000  0.5242950000000 1.0
C      1  0.4664940000000  0.4446550000000  0.4757050000000 1.0
C      1  0.4932920000000  0.5674070000000  0.5200430000000 1.0
C      1  0.5067050000000  0.5674050000000  0.4799590000000 1.0
C      1  0.4569150000000  0.5338470000000  0.5242810000000 1.0
C      1  0.5430850000000  0.5338470000000  0.4757180000000 1.0
C      1  0.4654960000000  0.4789620000000  0.5063110000000 1.0
C      1  0.5345040000000  0.4789620000000  0.4936890000000 1.0
C      1  0.4918280000000  0.4745020000000  0.5231750000000 1.0
C      1  0.5081720000000  0.4745020000000  0.4768250000000 1.0
C      1  0.5475510000000  0.4530720000000  0.5005450000000 1.0
C      1  0.4524490000000  0.4530720000000  0.4994550000000 1.0
C      1  0.4867060000000  0.5222890000000  0.4801720000000 1.0
C      1  0.5132950000000  0.5222890000000  0.5198280000000 1.0
C      1  0.5347030000000  0.4657670000000  0.5465210000000 1.0
C      1  0.4652970000000  0.4657670000000  0.4534790000000 1.0
C      1  0.5541280000000  0.4381240000000  0.4766130000000 1.0
C      1  0.4458720000000  0.4381240000000  0.5233870000000 1.0
C      1  0.5241230000000  0.5653900000000  0.5269820000000 1.0
C      1  0.4758770000000  0.5653890000000  0.4730180000000 1.0
C      1  0.4855880000000  0.4894210000000  0.5536340000000 1.0
C      1  0.5144120000000  0.4894210000000  0.4463660000000 1.0
C      1  0.5403200000000  0.4456590000000  0.4518150000000 1.0
C      1  0.4596800000000  0.4456590000000  0.5481850000000 1.0
C      1  0.4518100000000  0.5433590000000  0.4694860000000 1.0
C      1  0.5481900000000  0.5433590000000  0.5305150000000 1.0
C      1  0.4843050000000  0.4915520000000  0.4855440000000 1.0
C      1  0.5156950000000  0.4915520000000  0.5144560000000 1.0
C      1  0.5672180000000  0.5010840000000  0.5171490000000 1.0
C      1  0.4327820000000  0.5010840000000  0.4828510000000 1.0
C      1  0.5167020000000  0.5521680000000  0.5567000000000 1.0
C      1  0.4832980000000  0.5521680000000  0.4433000000000 1.0
C      1  0.4586990000000  0.4743350000000  0.5573230000000 1.0
C      1  0.5413010000000  0.4743350000000  0.4426770000000 1.0
END
