TITL C-3985254-1270-334 -1.75279371378597e-07 125000 -308.194046393037 0 0 60 (Ci) n - 1
REM
REM in /home/nfs/bkarasulu/CARBON/AIRSS/Generating-Clusters/TERSOFF/Higher-Symm/Only-C60
REM
REM
REM
REM
REM
REM ./C.cell (28575a23ae977d3b5fae324c64b13b57)
REM
REM compiler GCC version 9.2.1 20190827 (Red Hat 9.2.1-1)
REM options -cpp -mtune=generic -march=x86-64 -g -O0 -fpre-include=/usr/include/finclude/math-vector-fortran.h
REM seed -1676773037 -2107580957 571890344 -485097164 -1667892737 -1971543737 417531257 1596357682 783411834 -631510568 -217476522 -387398527 -1348756104 -1168952023 1916098855 -134358454 -1038144854 -1740220013 -1553502747 -941141675 -1006684750 63663947 850356157 257545227 583988278 94565710 776750884 541284532 -695118318 54980282 -739975289 2037611522 -892189596
REM
CELL 1.54180   50.00000   50.00000   50.00000   90.00000   90.00000   90.00000
LATT -1
SFAC C  
C      1  0.4877290000000  0.4826730000000  0.4345810000000 1.0
C      1  0.5122710000000  0.5173270000000  0.5654190000000 1.0
C      1  0.4542160000000  0.4584050000000  0.5513880000000 1.0
C      1  0.5457840000000  0.5415950000000  0.4486120000000 1.0
C      1  0.4439830000000  0.4836650000000  0.4624730000000 1.0
C      1  0.5560170000000  0.5163350000000  0.5375270000000 1.0
C      1  0.5404850000000  0.4449810000000  0.5103340000000 1.0
C      1  0.4595150000000  0.5550190000000  0.4896660000000 1.0
C      1  0.4881770000000  0.5648140000000  0.4957500000000 1.0
C      1  0.5118230000000  0.4351860000000  0.5042500000000 1.0
C      1  0.4321280000000  0.5056660000000  0.5186390000000 1.0
C      1  0.5678720000000  0.4943340000000  0.4813610000000 1.0
C      1  0.4725000000000  0.5281560000000  0.4496740000000 1.0
C      1  0.5275000000000  0.4718440000000  0.5503260000000 1.0
C      1  0.4999700000000  0.4656310000000  0.5652820000000 1.0
C      1  0.5000300000000  0.5343690000000  0.4347180000000 1.0
C      1  0.5698930000000  0.5156220000000  0.5041950000000 1.0
C      1  0.4301070000000  0.4843780000000  0.4958050000000 1.0
C      1  0.4623710000000  0.4991350000000  0.4431690000000 1.0
C      1  0.5376290000000  0.5008650000000  0.5568310000000 1.0
C      1  0.4999960000000  0.5445220000000  0.5592890000000 1.0
C      1  0.5000040000000  0.4554780000000  0.4407110000000 1.0
C      1  0.5162110000000  0.5231960000000  0.5165880000000 1.0
C      1  0.4837890000000  0.4768040000000  0.4834120000000 1.0
C      1  0.5382700000000  0.5430570000000  0.5287420000000 1.0
C      1  0.4617300000000  0.4569430000000  0.4712580000000 1.0
C      1  0.5452200000000  0.4515910000000  0.5382800000000 1.0
C      1  0.4547800000000  0.5484090000000  0.4617200000000 1.0
C      1  0.4684650000000  0.5446580000000  0.5420650000000 1.0
C      1  0.5315350000000  0.4553420000000  0.4579350000000 1.0
C      1  0.4671940000000  0.5040890000000  0.4957640000000 1.0
C      1  0.5328060000000  0.4959110000000  0.5042360000000 1.0
C      1  0.4466490000000  0.4565250000000  0.4985150000000 1.0
C      1  0.5533510000000  0.5434750000000  0.5014850000000 1.0
C      1  0.4709970000000  0.4910710000000  0.5241350000000 1.0
C      1  0.5290030000000  0.5089290000000  0.4758650000000 1.0
C      1  0.5099650000000  0.4323860000000  0.4742840000000 1.0
C      1  0.4900350000000  0.5676140000000  0.5257160000000 1.0
C      1  0.4826330000000  0.4425570000000  0.5571240000000 1.0
C      1  0.5173670000000  0.5574430000000  0.4428760000000 1.0
C      1  0.5521520000000  0.5063700000000  0.4510740000000 1.0
C      1  0.4478480000000  0.4936300000000  0.5489260000000 1.0
C      1  0.4881740000000  0.4276090000000  0.5283190000000 1.0
C      1  0.5118260000000  0.5723910000000  0.4716810000000 1.0
C      1  0.4528850000000  0.5234810000000  0.5589270000000 1.0
C      1  0.5471150000000  0.4765190000000  0.4410730000000 1.0
C      1  0.4804040000000  0.4903480000000  0.5649480000000 1.0
C      1  0.5195960000000  0.5096520000000  0.4350520000000 1.0
C      1  0.5331240000000  0.5436250000000  0.4791970000000 1.0
C      1  0.4668760000000  0.4563750000000  0.5208030000000 1.0
C      1  0.5025420000000  0.5370350000000  0.4921300000000 1.0
C      1  0.4974580000000  0.4629650000000  0.5078700000000 1.0
C      1  0.5176520000000  0.5625470000000  0.5413520000000 1.0
C      1  0.4823480000000  0.4374530000000  0.4586480000000 1.0
C      1  0.4964290000000  0.5053650000000  0.5382650000000 1.0
C      1  0.5035710000000  0.4946350000000  0.4617350000000 1.0
C      1  0.5466400000000  0.4669480000000  0.4879150000000 1.0
C      1  0.4533600000000  0.5330520000000  0.5120850000000 1.0
C      1  0.4865960000000  0.5179950000000  0.4758950000000 1.0
C      1  0.5134040000000  0.4820050000000  0.5241050000000 1.0
END
