TITL C-3985253-1688-992 0.00353306155816178 125000 -297.602398574519 0 0 60 (C3i) n - 1
REM
REM in /home/nfs/bkarasulu/CARBON/AIRSS/Generating-Clusters/TERSOFF/Higher-Symm/Only-C60
REM
REM
REM
REM
REM
REM ./C.cell (28575a23ae977d3b5fae324c64b13b57)
REM
REM compiler GCC version 9.2.1 20190827 (Red Hat 9.2.1-1)
REM options -cpp -mtune=generic -march=x86-64 -g -O0 -fpre-include=/usr/include/finclude/math-vector-fortran.h
REM seed 1061566634 -1229263073 -1711397997 972502118 -1639437129 96954557 1797011313 335798924 1124740543 -1556203095 -1117270187 131551624 1493896996 -612767231 -1958565149 1401619421 842961891 -94941032 -1504370169 2001840390 1238099143 475766358 -720427821 -809328443 -298180014 373349538 1389582526 2094411277 181723587 700371551 -1457339911 539997044 -272018178
REM
CELL 1.54180   50.00000   50.00000   50.00000   90.00000   90.00000   90.00000
LATT -1
SFAC C  
C      1  0.4407210000000  0.5340050000000  0.4813870000000 1.0
C      1  0.4997180000000  0.5683010000000  0.5187280000000 1.0
C      1  0.5589810000000  0.5344090000000  0.4812400000000 1.0
C      1  0.5592790000000  0.4659950000000  0.5186130000000 1.0
C      1  0.5002820000000  0.4316990000000  0.4812720000000 1.0
C      1  0.4410190000000  0.4655910000000  0.5187600000000 1.0
C      1  0.4842790000000  0.5420000000000  0.5066140000000 1.0
C      1  0.5284980000000  0.5346210000000  0.4934040000000 1.0
C      1  0.5442430000000  0.4926290000000  0.5066490000000 1.0
C      1  0.5157210000000  0.4580000000000  0.4933860000000 1.0
C      1  0.4715020000000  0.4653790000000  0.5065960000000 1.0
C      1  0.4557570000000  0.5073710000000  0.4933510000000 1.0
C      1  0.4952360000000  0.5317430000000  0.5573070000000 1.0
C      1  0.5251080000000  0.5199940000000  0.4426950000000 1.0
C      1  0.5298770000000  0.4882620000000  0.5573090000000 1.0
C      1  0.5047640000000  0.4682570000000  0.4426930000000 1.0
C      1  0.4748920000000  0.4800060000000  0.5573050000000 1.0
C      1  0.4701230000000  0.5117380000000  0.4426910000000 1.0
C      1  0.5388680000000  0.4563650000000  0.5432510000000 1.0
C      1  0.4816080000000  0.4445230000000  0.4567590000000 1.0
C      1  0.4427640000000  0.4881920000000  0.5432450000000 1.0
C      1  0.4611320000000  0.5436350000000  0.4567490000000 1.0
C      1  0.5183920000000  0.5554770000000  0.5432410000000 1.0
C      1  0.5572360000000  0.5118080000000  0.4567550000000 1.0
C      1  0.4959650000000  0.5312990000000  0.4368640000000 1.0
C      1  0.5250910000000  0.5191430000000  0.5631400000000 1.0
C      1  0.5291180000000  0.4878430000000  0.4368610000000 1.0
C      1  0.5040350000000  0.4687010000000  0.5631360000000 1.0
C      1  0.4749090000000  0.4808570000000  0.4368600000000 1.0
C      1  0.4708820000000  0.5121570000000  0.5631390000000 1.0
C      1  0.5619770000000  0.4913230000000  0.5446330000000 1.0
C      1  0.5234450000000  0.4419250000000  0.4554180000000 1.0
C      1  0.4614000000000  0.4506700000000  0.5445650000000 1.0
C      1  0.4380230000000  0.5086770000000  0.4553670000000 1.0
C      1  0.4765550000000  0.5580750000000  0.5445820000000 1.0
C      1  0.5386000000000  0.5493300000000  0.4554350000000 1.0
C      1  0.4551800000000  0.5475910000000  0.5052100000000 1.0
C      1  0.5188300000000  0.5625960000000  0.4947580000000 1.0
C      1  0.5636180000000  0.5150020000000  0.5052390000000 1.0
C      1  0.5448200000000  0.4524090000000  0.4947900000000 1.0
C      1  0.4811700000000  0.4374040000000  0.5052420000000 1.0
C      1  0.4363820000000  0.4849980000000  0.4947610000000 1.0
C      1  0.4535840000000  0.4613760000000  0.4501170000000 1.0
C      1  0.4433410000000  0.5208900000000  0.5498830000000 1.0
C      1  0.4897600000000  0.5595080000000  0.4501100000000 1.0
C      1  0.5464160000000  0.5386240000000  0.5498830000000 1.0
C      1  0.5566590000000  0.4791100000000  0.4501170000000 1.0
C      1  0.5102400000000  0.4404920000000  0.5498900000000 1.0
C      1  0.5511660000000  0.4528140000000  0.4650860000000 1.0
C      1  0.4847180000000  0.4320980000000  0.5349110000000 1.0
C      1  0.4335460000000  0.4792890000000  0.4651010000000 1.0
C      1  0.4488340000000  0.5471860000000  0.5349140000000 1.0
C      1  0.5152820000000  0.5679020000000  0.4650890000000 1.0
C      1  0.5664540000000  0.5207110000000  0.5348990000000 1.0
C      1  0.5063960000000  0.4803140000000  0.4744300000000 1.0
C      1  0.4861500000000  0.4846330000000  0.5255670000000 1.0
C      1  0.4797540000000  0.5043200000000  0.4744330000000 1.0
C      1  0.4936040000000  0.5196860000000  0.5255700000000 1.0
C      1  0.5138500000000  0.5153670000000  0.4744330000000 1.0
C      1  0.5202460000000  0.4956800000000  0.5255670000000 1.0
END
