TITL C-3985254-1270-1962 -2.23322818576033e-06 125000 -324.076673341407 0 0 60 (C4) n - 1
REM
REM in /home/nfs/bkarasulu/CARBON/AIRSS/Generating-Clusters/TERSOFF/Higher-Symm/Only-C60
REM
REM
REM
REM
REM
REM ./C.cell (28575a23ae977d3b5fae324c64b13b57)
REM
REM compiler GCC version 9.2.1 20190827 (Red Hat 9.2.1-1)
REM options -cpp -mtune=generic -march=x86-64 -g -O0 -fpre-include=/usr/include/finclude/math-vector-fortran.h
REM seed -512225383 -1980004350 1211074065 -342364001 -1424002388 -1293981319 -931054210 1123998616 1760404315 -1353403391 -49995957 516134139 79719037 -348457952 1406573778 -652521683 -839607701 -1925505169 13112470 -345566975 985965820 2123260222 70125690 871652727 1136988384 -137276785 1260885769 -1793241582 815258419 -1524199222 1651336010 561036323 1442763399
REM
CELL 1.54180   50.00000   50.00000   50.00000   90.00000   90.00000   90.00000
LATT -1
SFAC C  
C      1  0.4525720000000  0.5477180000000  0.4720050000000 1.0
C      1  0.5279950000000  0.5477180000000  0.4525720000000 1.0
C      1  0.5474280000000  0.5477180000000  0.5279950000000 1.0
C      1  0.4720050000000  0.5477180000000  0.5474280000000 1.0
C      1  0.4880260000000  0.5349050000000  0.4535200000000 1.0
C      1  0.5464800000000  0.5349050000000  0.4880260000000 1.0
C      1  0.5119740000000  0.5349050000000  0.5464800000000 1.0
C      1  0.4535200000000  0.5349050000000  0.5119740000000 1.0
C      1  0.4783640000000  0.5602220000000  0.4870490000000 1.0
C      1  0.5129510000000  0.5602220000000  0.4783640000000 1.0
C      1  0.5216360000000  0.5602220000000  0.5129510000000 1.0
C      1  0.4870490000000  0.5602220000000  0.5216360000000 1.0
C      1  0.4359980000000  0.4828810000000  0.4990580000000 1.0
C      1  0.5009420000000  0.4828810000000  0.4359980000000 1.0
C      1  0.5640020000000  0.4828810000000  0.5009420000000 1.0
C      1  0.4990580000000  0.4828810000000  0.5640020000000 1.0
C      1  0.5484510000000  0.5005500000000  0.4576990000000 1.0
C      1  0.5423010000000  0.5005500000000  0.5484510000000 1.0
C      1  0.4515490000000  0.5005500000000  0.5423010000000 1.0
C      1  0.4576990000000  0.5005500000000  0.4515490000000 1.0
C      1  0.4655920000000  0.4750330000000  0.4339720000000 1.0
C      1  0.5660280000000  0.4750330000000  0.4655920000000 1.0
C      1  0.5344080000000  0.4750330000000  0.5660280000000 1.0
C      1  0.4339720000000  0.4750330000000  0.5344080000000 1.0
C      1  0.5219250000000  0.5187580000000  0.4948730000000 1.0
C      1  0.5051270000000  0.5187580000000  0.5219250000000 1.0
C      1  0.4780750000000  0.5187580000000  0.5051270000000 1.0
C      1  0.4948730000000  0.5187580000000  0.4780750000000 1.0
C      1  0.5205530000000  0.4661910000000  0.4933120000000 1.0
C      1  0.5066880000000  0.4661910000000  0.5205530000000 1.0
C      1  0.4794470000000  0.4661910000000  0.5066880000000 1.0
C      1  0.4933120000000  0.4661910000000  0.4794470000000 1.0
C      1  0.4326540000000  0.5345660000000  0.4909500000000 1.0
C      1  0.5090500000000  0.5345660000000  0.4326540000000 1.0
C      1  0.5673460000000  0.5345660000000  0.5090500000000 1.0
C      1  0.4909500000000  0.5345660000000  0.5673460000000 1.0
C      1  0.4620720000000  0.4520120000000  0.4551740000000 1.0
C      1  0.5448260000000  0.4520120000000  0.4620720000000 1.0
C      1  0.5379280000000  0.4520120000000  0.5448260000000 1.0
C      1  0.4551740000000  0.4520120000000  0.5379280000000 1.0
C      1  0.5410030000000  0.5314520000000  0.5528500000000 1.0
C      1  0.4471500000000  0.5314520000000  0.5410030000000 1.0
C      1  0.4589970000000  0.5314520000000  0.4471500000000 1.0
C      1  0.5528500000000  0.5314520000000  0.4589970000000 1.0
C      1  0.4868080000000  0.5067370000000  0.5774240000000 1.0
C      1  0.4225760000000  0.5067370000000  0.4868080000000 1.0
C      1  0.5131920000000  0.5067370000000  0.4225760000000 1.0
C      1  0.5774240000000  0.5067370000000  0.5131920000000 1.0
C      1  0.4912180000000  0.4418110000000  0.4601380000000 1.0
C      1  0.5398620000000  0.4418110000000  0.4912180000000 1.0
C      1  0.5087820000000  0.4418110000000  0.5398620000000 1.0
C      1  0.4601380000000  0.4418110000000  0.5087820000000 1.0
C      1  0.5122900000000  0.4921560000000  0.5348740000000 1.0
C      1  0.4651260000000  0.4921560000000  0.5122900000000 1.0
C      1  0.4877100000000  0.4921560000000  0.4651260000000 1.0
C      1  0.5348740000000  0.4921560000000  0.4877100000000 1.0
C      1  0.4825080000000  0.4550080000000  0.5546480000000 1.0
C      1  0.4453520000000  0.4550080000000  0.4825080000000 1.0
C      1  0.5174920000000  0.4550080000000  0.4453520000000 1.0
C      1  0.5546480000000  0.4550080000000  0.5174920000000 1.0
END
