TITL C-3985244-725-681 -0.00338629826959594 125000 -312.305640390613 0 0 60 (C2) n - 1
REM
REM in /home/nfs/bkarasulu/CARBON/AIRSS/Generating-Clusters/TERSOFF/Higher-Symm/Only-C60
REM
REM
REM
REM
REM
REM ./C.cell (28575a23ae977d3b5fae324c64b13b57)
REM
REM compiler GCC version 9.2.1 20190827 (Red Hat 9.2.1-1)
REM options -cpp -mtune=generic -march=x86-64 -g -O0 -fpre-include=/usr/include/finclude/math-vector-fortran.h
REM seed 191704731 -57140999 1238766817 -1334199767 1640985407 -1286996489 -2127494824 -176480187 420393104 -1064822621 -884902417 -694028091 -1112744611 -1202288944 -1008870452 -2068561636 -1198691808 833409313 2099868095 865790238 533412933 -25340867 -2026430388 -1051068306 1600344216 -53892947 1124299237 -1621994012 705359835 -447691693 -1427961247 -631301982 -570079814
REM
CELL 1.54180   50.00000   50.00000   50.00000   90.00000   90.00000   90.00000
LATT -1
SFAC C  
C      1  0.4433270000000  0.4869030000000  0.4389250000000 1.0
C      1  0.5566730000000  0.4869030000000  0.5610750000000 1.0
C      1  0.4389440000000  0.4689010000000  0.4664530000000 1.0
C      1  0.5610560000000  0.4689010000000  0.5335470000000 1.0
C      1  0.4426950000000  0.5319010000000  0.5113080000000 1.0
C      1  0.5573050000000  0.5319010000000  0.4886920000000 1.0
C      1  0.4319800000000  0.5087360000000  0.5368760000000 1.0
C      1  0.5680200000000  0.5087360000000  0.4631240000000 1.0
C      1  0.5274400000000  0.5024940000000  0.4889290000000 1.0
C      1  0.4725600000000  0.5024940000000  0.5110710000000 1.0
C      1  0.5030700000000  0.4480280000000  0.5300910000000 1.0
C      1  0.4969300000000  0.4480280000000  0.4699090000000 1.0
C      1  0.5546980000000  0.4860140000000  0.4797620000000 1.0
C      1  0.4453020000000  0.4860140000000  0.5202380000000 1.0
C      1  0.5270450000000  0.5201020000000  0.4420610000000 1.0
C      1  0.4729550000000  0.5201020000000  0.5579390000000 1.0
C      1  0.5222020000000  0.5143650000000  0.5565870000000 1.0
C      1  0.4777980000000  0.5143650000000  0.4434130000000 1.0
C      1  0.5324440000000  0.4460730000000  0.4978250000000 1.0
C      1  0.4675560000000  0.4460730000000  0.5021750000000 1.0
C      1  0.4967580000000  0.5053970000000  0.5687520000000 1.0
C      1  0.5032420000000  0.5053970000000  0.4312480000000 1.0
C      1  0.4743920000000  0.5302410000000  0.5289650000000 1.0
C      1  0.5256080000000  0.5302410000000  0.4710350000000 1.0
C      1  0.4700420000000  0.4665400000000  0.4383340000000 1.0
C      1  0.5299580000000  0.4665400000000  0.5616660000000 1.0
C      1  0.5715970000000  0.4812110000000  0.5073070000000 1.0
C      1  0.4284030000000  0.4812110000000  0.4926930000000 1.0
C      1  0.5093940000000  0.4279950000000  0.4887930000000 1.0
C      1  0.4906060000000  0.4279950000000  0.5112070000000 1.0
C      1  0.4991990000000  0.4756360000000  0.4333570000000 1.0
C      1  0.5008010000000  0.4756360000000  0.5666430000000 1.0
C      1  0.4853650000000  0.4756020000000  0.4902350000000 1.0
C      1  0.5146350000000  0.4756020000000  0.5097650000000 1.0
C      1  0.4470470000000  0.5184630000000  0.4372990000000 1.0
C      1  0.5529530000000  0.5184630000000  0.5627010000000 1.0
C      1  0.4509140000000  0.5410720000000  0.4624600000000 1.0
C      1  0.5490860000000  0.5410720000000  0.5375400000000 1.0
C      1  0.5546460000000  0.5121350000000  0.4370880000000 1.0
C      1  0.4453540000000  0.5121350000000  0.5629120000000 1.0
C      1  0.5341160000000  0.5779030000000  0.5087430000000 1.0
C      1  0.4658840000000  0.5779030000000  0.4912570000000 1.0
C      1  0.4626200000000  0.4471870000000  0.4665150000000 1.0
C      1  0.5373800000000  0.4471870000000  0.5334850000000 1.0
C      1  0.5001220000000  0.5436660000000  0.4790260000000 1.0
C      1  0.4998780000000  0.5436660000000  0.5209740000000 1.0
C      1  0.5070360000000  0.5722550000000  0.5197330000000 1.0
C      1  0.4929640000000  0.5722550000000  0.4802670000000 1.0
C      1  0.5303380000000  0.4997720000000  0.5305060000000 1.0
C      1  0.4696620000000  0.4997720000000  0.4694940000000 1.0
C      1  0.4392710000000  0.5082730000000  0.4852660000000 1.0
C      1  0.5607290000000  0.5082730000000  0.5147340000000 1.0
C      1  0.4764300000000  0.5275610000000  0.4841120000000 1.0
C      1  0.5235700000000  0.5275610000000  0.5158880000000 1.0
C      1  0.4443960000000  0.5566400000000  0.4899550000000 1.0
C      1  0.5556040000000  0.5566400000000  0.5100450000000 1.0
C      1  0.4581050000000  0.4604620000000  0.5288640000000 1.0
C      1  0.5418950000000  0.4604620000000  0.4711360000000 1.0
C      1  0.4820250000000  0.4584740000000  0.5499670000000 1.0
C      1  0.5179750000000  0.4584740000000  0.4500330000000 1.0
END
