TITL C-3985254-1270-543 -0.000314216106020998 125000 -337.65562631265 0 0 60 (C1) n - 1
REM
REM in /home/nfs/bkarasulu/CARBON/AIRSS/Generating-Clusters/TERSOFF/Higher-Symm/Only-C60
REM
REM
REM
REM
REM
REM ./C.cell (28575a23ae977d3b5fae324c64b13b57)
REM
REM compiler GCC version 9.2.1 20190827 (Red Hat 9.2.1-1)
REM options -cpp -mtune=generic -march=x86-64 -g -O0 -fpre-include=/usr/include/finclude/math-vector-fortran.h
REM seed 223389857 1235730832 1896405474 -2013619805 1575058772 -450244514 314125714 -878828078 -645098931 1682268610 -254361000 -133307152 1959170677 -2056402034 1733243410 -1568471297 690842240 -2141374313 -1092713415 -150830527 355957396 -60335872 -515275715 1189253507 -659347275 -1641497405 -905200837 -1949719046 -42336870 -671817175 2080891843 -1596992040 1837374491
REM
CELL 1.54180   50.00000   50.00000   50.00000   90.00000   90.00000   90.00000
LATT -1
SFAC C  
C      1  0.4704650000000  0.5657230000000  0.4587980000000 1.0
C      1  0.5741940000000  0.4914260000000  0.4593930000000 1.0
C      1  0.4539240000000  0.4391070000000  0.4602350000000 1.0
C      1  0.4339020000000  0.4629360000000  0.4632440000000 1.0
C      1  0.5006590000000  0.5722850000000  0.4646530000000 1.0
C      1  0.5638720000000  0.4616460000000  0.4630660000000 1.0
C      1  0.5035160000000  0.4717290000000  0.4947000000000 1.0
C      1  0.4721110000000  0.5081550000000  0.4913290000000 1.0
C      1  0.5224540000000  0.5187460000000  0.4924630000000 1.0
C      1  0.5095300000000  0.4851170000000  0.4357410000000 1.0
C      1  0.4762710000000  0.4994940000000  0.4349870000000 1.0
C      1  0.5164310000000  0.5207970000000  0.4351410000000 1.0
C      1  0.5360760000000  0.5301040000000  0.4622950000000 1.0
C      1  0.5083420000000  0.4543640000000  0.4558810000000 1.0
C      1  0.4563660000000  0.5139550000000  0.4613870000000 1.0
C      1  0.5353470000000  0.5095840000000  0.5500410000000 1.0
C      1  0.4899720000000  0.4684390000000  0.5481170000000 1.0
C      1  0.4773330000000  0.5235320000000  0.5477050000000 1.0
C      1  0.5091390000000  0.4453610000000  0.5456100000000 1.0
C      1  0.4472590000000  0.5194870000000  0.5461440000000 1.0
C      1  0.5461200000000  0.5380840000000  0.5477570000000 1.0
C      1  0.5202750000000  0.5552580000000  0.5518840000000 1.0
C      1  0.5376490000000  0.4562050000000  0.5510420000000 1.0
C      1  0.4417960000000  0.4897490000000  0.5526760000000 1.0
C      1  0.5255240000000  0.5571460000000  0.4757730000000 1.0
C      1  0.5364370000000  0.4503960000000  0.4733550000000 1.0
C      1  0.4370770000000  0.4914990000000  0.4752810000000 1.0
C      1  0.5411260000000  0.4835250000000  0.5645780000000 1.0
C      1  0.4651890000000  0.4736850000000  0.5645430000000 1.0
C      1  0.4949410000000  0.5422450000000  0.5637460000000 1.0
C      1  0.4899020000000  0.5486870000000  0.5165450000000 1.0
C      1  0.5497700000000  0.4865000000000  0.5180630000000 1.0
C      1  0.4600440000000  0.4655120000000  0.5184180000000 1.0
C      1  0.4616390000000  0.4377290000000  0.5126960000000 1.0
C      1  0.4650330000000  0.5619300000000  0.5127820000000 1.0
C      1  0.5745030000000  0.4999960000000  0.5138630000000 1.0
C      1  0.4951960000000  0.5323260000000  0.4529640000000 1.0
C      1  0.5324260000000  0.4886570000000  0.4566070000000 1.0
C      1  0.4725000000000  0.4760800000000  0.4532070000000 1.0
C      1  0.4949360000000  0.5259800000000  0.4812180000000 1.0
C      1  0.5254550000000  0.4895100000000  0.4839750000000 1.0
C      1  0.4768500000000  0.4792160000000  0.4809530000000 1.0
C      1  0.5632700000000  0.5176770000000  0.4716330000000 1.0
C      1  0.4833090000000  0.4391700000000  0.4700670000000 1.0
C      1  0.4536830000000  0.5435610000000  0.4710150000000 1.0
C      1  0.5099520000000  0.4329700000000  0.5151160000000 1.0
C      1  0.4347840000000  0.5245650000000  0.5163440000000 1.0
C      1  0.5565200000000  0.5452060000000  0.5165870000000 1.0
C      1  0.4853750000000  0.4298090000000  0.4988650000000 1.0
C      1  0.4445420000000  0.5473960000000  0.4994750000000 1.0
C      1  0.5718810000000  0.5248620000000  0.4999440000000 1.0
C      1  0.5230670000000  0.5050730000000  0.5228390000000 1.0
C      1  0.4872670000000  0.4813000000000  0.5215050000000 1.0
C      1  0.4897670000000  0.5144330000000  0.5212650000000 1.0
C      1  0.5345430000000  0.5618340000000  0.5040110000000 1.0
C      1  0.5349560000000  0.4423450000000  0.5023250000000 1.0
C      1  0.4282890000000  0.4978050000000  0.5037980000000 1.0
C      1  0.5132560000000  0.5635770000000  0.5240440000000 1.0
C      1  0.5488340000000  0.4582810000000  0.5231180000000 1.0
C      1  0.4351520000000  0.4782340000000  0.5251950000000 1.0
END
