TITL C-3985245-9316-763 -0.0137120890325094 125000 -275.514179422376 0 0 60 (Th) n - 1
REM
REM in /home/nfs/bkarasulu/CARBON/AIRSS/Generating-Clusters/TERSOFF/Higher-Symm/Only-C60
REM
REM
REM
REM
REM
REM ./C.cell (28575a23ae977d3b5fae324c64b13b57)
REM
REM compiler GCC version 9.2.1 20190827 (Red Hat 9.2.1-1)
REM options -cpp -mtune=generic -march=x86-64 -g -O0 -fpre-include=/usr/include/finclude/math-vector-fortran.h
REM seed 2031134406 -597309970 1006533764 -1314278188 361535968 -2119848793 1750444098 -449726703 -1332114423 132940799 513887299 560095918 620821699 131514382 276350976 -406657707 1302136290 1781169858 -1511165004 70960450 1528134434 939523687 -1792708634 489110577 -906627806 1329992198 -1995269063 2082347510 647134673 1096957351 940826820 -1250834001 954979517
REM
CELL 1.54180   50.00000   50.00000   50.00000   90.00000   90.00000   90.00000
LATT -1
SFAC C  
C      1  0.5586590000000  0.4712150000000  0.5415760000000 1.0
C      1  0.5415760000000  0.5586590000000  0.4712150000000 1.0
C      1  0.4712150000000  0.5415760000000  0.5586590000000 1.0
C      1  0.4413410000000  0.5287850000000  0.5415760000000 1.0
C      1  0.4413410000000  0.4712150000000  0.4584240000000 1.0
C      1  0.5586590000000  0.5287850000000  0.4584240000000 1.0
C      1  0.4584240000000  0.4413410000000  0.4712150000000 1.0
C      1  0.4584240000000  0.5586590000000  0.5287850000000 1.0
C      1  0.5415760000000  0.4413410000000  0.5287850000000 1.0
C      1  0.5287850000000  0.4584240000000  0.5586590000000 1.0
C      1  0.5287850000000  0.5415760000000  0.4413410000000 1.0
C      1  0.4712150000000  0.4584240000000  0.4413410000000 1.0
C      1  0.5586590000000  0.4712150000000  0.4584240000000 1.0
C      1  0.5415760000000  0.5586590000000  0.5287850000000 1.0
C      1  0.4712150000000  0.5415760000000  0.4413410000000 1.0
C      1  0.4413410000000  0.5287850000000  0.4584240000000 1.0
C      1  0.4413410000000  0.4712150000000  0.5415760000000 1.0
C      1  0.5586590000000  0.5287850000000  0.5415760000000 1.0
C      1  0.4584240000000  0.4413410000000  0.5287850000000 1.0
C      1  0.4584240000000  0.5586590000000  0.4712150000000 1.0
C      1  0.5415760000000  0.4413410000000  0.4712150000000 1.0
C      1  0.5287850000000  0.4584240000000  0.4413410000000 1.0
C      1  0.5287850000000  0.5415760000000  0.5586590000000 1.0
C      1  0.4712150000000  0.4584240000000  0.5586590000000 1.0
C      1  0.5160710000000  0.4537550000000  0.5155320000000 1.0
C      1  0.5155320000000  0.5160710000000  0.4537550000000 1.0
C      1  0.4537550000000  0.5155320000000  0.5160710000000 1.0
C      1  0.4839290000000  0.5462450000000  0.5155320000000 1.0
C      1  0.4839290000000  0.4537550000000  0.4844680000000 1.0
C      1  0.5160710000000  0.5462450000000  0.4844680000000 1.0
C      1  0.4844680000000  0.4839290000000  0.4537550000000 1.0
C      1  0.4844680000000  0.5160710000000  0.5462450000000 1.0
C      1  0.5155320000000  0.4839290000000  0.5462450000000 1.0
C      1  0.5462450000000  0.4844680000000  0.5160710000000 1.0
C      1  0.5462450000000  0.5155320000000  0.4839290000000 1.0
C      1  0.4537550000000  0.4844680000000  0.4839290000000 1.0
C      1  0.5160710000000  0.4537550000000  0.4844680000000 1.0
C      1  0.5155320000000  0.5160710000000  0.5462450000000 1.0
C      1  0.4537550000000  0.5155320000000  0.4839290000000 1.0
C      1  0.4839290000000  0.5462450000000  0.4844680000000 1.0
C      1  0.4839290000000  0.4537550000000  0.5155320000000 1.0
C      1  0.5160710000000  0.5462450000000  0.5155320000000 1.0
C      1  0.4844680000000  0.4839290000000  0.5462450000000 1.0
C      1  0.4844680000000  0.5160710000000  0.4537550000000 1.0
C      1  0.5155320000000  0.4839290000000  0.4537550000000 1.0
C      1  0.5462450000000  0.4844680000000  0.4839290000000 1.0
C      1  0.5462450000000  0.5155320000000  0.5160710000000 1.0
C      1  0.4537550000000  0.4844680000000  0.5160710000000 1.0
C      1  0.4306980000000  0.5000000000000  0.5520530000000 1.0
C      1  0.5520530000000  0.4306980000000  0.5000000000000 1.0
C      1  0.5000000000000  0.5520530000000  0.4306980000000 1.0
C      1  0.5693020000000  0.5000000000000  0.4479470000000 1.0
C      1  0.4479470000000  0.5693020000000  0.5000000000000 1.0
C      1  0.5000000000000  0.5520530000000  0.5693020000000 1.0
C      1  0.5000000000000  0.4479470000000  0.5693020000000 1.0
C      1  0.5000000000000  0.4479470000000  0.4306980000000 1.0
C      1  0.5693020000000  0.5000000000000  0.5520530000000 1.0
C      1  0.4306980000000  0.5000000000000  0.4479470000000 1.0
C      1  0.4479470000000  0.4306980000000  0.5000000000000 1.0
C      1  0.5520530000000  0.5693020000000  0.5000000000000 1.0
END
