TITL C-3985254-1270-1618 0.000343277243499126 125000 -296.918370037995 0 0 60 (C3) n - 1
REM
REM in /home/nfs/bkarasulu/CARBON/AIRSS/Generating-Clusters/TERSOFF/Higher-Symm/Only-C60
REM
REM
REM
REM
REM
REM ./C.cell (28575a23ae977d3b5fae324c64b13b57)
REM
REM compiler GCC version 9.2.1 20190827 (Red Hat 9.2.1-1)
REM options -cpp -mtune=generic -march=x86-64 -g -O0 -fpre-include=/usr/include/finclude/math-vector-fortran.h
REM seed -1562093937 -1964641816 -65378422 1151674996 -695100766 484407737 -716423870 153585374 1578806331 -1838599455 -313525887 70939592 -87960638 -2037981588 674166287 633618808 -682288814 412742988 1289885101 1519905042 -538117579 1658906720 -899069980 695020132 -707500597 1933416723 1185961919 -1570071647 1262154784 1435445904 -151109077 -1722190049 -801482357
REM
CELL 1.54180   50.00000   50.00000   50.00000   90.00000   90.00000   90.00000
LATT -1
SFAC C  
C      1  0.5752190000000  0.5257440000000  0.4959930000000 1.0
C      1  0.4658680000000  0.5257450000000  0.5671380000000 1.0
C      1  0.4589150000000  0.5257420000000  0.4368680000000 1.0
C      1  0.4713850000000  0.4290360000000  0.5159010000000 1.0
C      1  0.5005410000000  0.4290490000000  0.4672640000000 1.0
C      1  0.5280820000000  0.4290380000000  0.5168340000000 1.0
C      1  0.4985850000000  0.4522530000000  0.4471870000000 1.0
C      1  0.5464390000000  0.4522270000000  0.5251860000000 1.0
C      1  0.4549580000000  0.4522640000000  0.5276330000000 1.0
C      1  0.5683810000000  0.5090170000000  0.4702090000000 1.0
C      1  0.4916150000000  0.5090170000000  0.5741140000000 1.0
C      1  0.4400120000000  0.5090080000000  0.4556780000000 1.0
C      1  0.4736740000000  0.4784490000000  0.5377400000000 1.0
C      1  0.4804680000000  0.4784490000000  0.4583530000000 1.0
C      1  0.5458510000000  0.4784480000000  0.5039210000000 1.0
C      1  0.4950070000000  0.5231800000000  0.4320200000000 1.0
C      1  0.5613670000000  0.5231650000000  0.5296850000000 1.0
C      1  0.4436110000000  0.5231710000000  0.5382870000000 1.0
C      1  0.5187050000000  0.5236020000000  0.5683970000000 1.0
C      1  0.4314040000000  0.5236000000000  0.4819950000000 1.0
C      1  0.5498820000000  0.5236140000000  0.4496090000000 1.0
C      1  0.5184740000000  0.4596560000000  0.4897570000000 1.0
C      1  0.4996280000000  0.4596650000000  0.5211200000000 1.0
C      1  0.4818910000000  0.4596650000000  0.4891240000000 1.0
C      1  0.4793240000000  0.5505230000000  0.5554570000000 1.0
C      1  0.4622840000000  0.5505390000000  0.4543520000000 1.0
C      1  0.5583880000000  0.5505340000000  0.4901850000000 1.0
C      1  0.4550690000000  0.4783890000000  0.4921930000000 1.0
C      1  0.5292240000000  0.4783920000000  0.4649960000000 1.0
C      1  0.5157050000000  0.4783870000000  0.5428180000000 1.0
C      1  0.4805360000000  0.5613090000000  0.5082260000000 1.0
C      1  0.5025960000000  0.5613050000000  0.4790070000000 1.0
C      1  0.5168660000000  0.5613080000000  0.5127280000000 1.0
C      1  0.4790580000000  0.5279300000000  0.5002200000000 1.0
C      1  0.5102780000000  0.5279330000000  0.4817750000000 1.0
C      1  0.5106740000000  0.5279170000000  0.5180030000000 1.0
C      1  0.5461890000000  0.4744240000000  0.5535930000000 1.0
C      1  0.4304940000000  0.4744350000000  0.5132050000000 1.0
C      1  0.5233180000000  0.4744400000000  0.4332050000000 1.0
C      1  0.4925020000000  0.4836070000000  0.5616160000000 1.0
C      1  0.4503890000000  0.4836090000000  0.4627040000000 1.0
C      1  0.5571110000000  0.4836110000000  0.4756860000000 1.0
C      1  0.5286870000000  0.5101040000000  0.4331110000000 1.0
C      1  0.5435940000000  0.5101050000000  0.5582890000000 1.0
C      1  0.4277280000000  0.5101020000000  0.5086190000000 1.0
C      1  0.5261490000000  0.4284920000000  0.4851660000000 1.0
C      1  0.4997740000000  0.4284910000000  0.5300620000000 1.0
C      1  0.4740780000000  0.4284870000000  0.4847800000000 1.0
C      1  0.5472090000000  0.5540910000000  0.5176290000000 1.0
C      1  0.4611370000000  0.5540870000000  0.5320610000000 1.0
C      1  0.4916400000000  0.5540930000000  0.4503000000000 1.0
C      1  0.5383390000000  0.5412410000000  0.4702570000000 1.0
C      1  0.5066100000000  0.5412290000000  0.5480670000000 1.0
C      1  0.4550550000000  0.5412430000000  0.4816770000000 1.0
C      1  0.4918370000000  0.4902770000000  0.4308310000000 1.0
C      1  0.5639990000000  0.4902980000000  0.5275080000000 1.0
C      1  0.4441850000000  0.4902760000000  0.5416630000000 1.0
C      1  0.5063590000000  0.4986780000000  0.4693100000000 1.0
C      1  0.5234200000000  0.4986470000000  0.5208520000000 1.0
C      1  0.4702320000000  0.4986630000000  0.5098360000000 1.0
END
