TITL C-3985254-1270-1529 -5.49312793046353e-05 125000 -321.526968283166 0 0 60 (C1) n - 1
REM
REM in /home/nfs/bkarasulu/CARBON/AIRSS/Generating-Clusters/TERSOFF/Higher-Symm/Only-C60
REM
REM
REM
REM
REM
REM ./C.cell (28575a23ae977d3b5fae324c64b13b57)
REM
REM compiler GCC version 9.2.1 20190827 (Red Hat 9.2.1-1)
REM options -cpp -mtune=generic -march=x86-64 -g -O0 -fpre-include=/usr/include/finclude/math-vector-fortran.h
REM seed -35006017 -1395793927 -2084088271 -674379625 29388233 891927168 -99530681 -1416916334 1284950125 2039143620 1555519015 -1129699601 1298247966 -1158923581 550029940 -1604871832 -1145444800 -310329922 1393976679 -491497027 367893097 -2074379088 -835702154 1730098945 237087395 54372227 -1214932971 -827821600 -1299948033 1645969283 1536581626 817889692 1872858942
REM
CELL 1.54180   50.00000   50.00000   50.00000   90.00000   90.00000   90.00000
LATT -1
SFAC C  
C      1  0.5677660000000  0.4685040000000  0.4706990000000 1.0
C      1  0.5120990000000  0.5205760000000  0.5162890000000 1.0
C      1  0.4428660000000  0.5461420000000  0.4737870000000 1.0
C      1  0.5043440000000  0.5108200000000  0.4384810000000 1.0
C      1  0.4451780000000  0.5056350000000  0.5239910000000 1.0
C      1  0.5127250000000  0.4740290000000  0.5100840000000 1.0
C      1  0.4934260000000  0.4928510000000  0.4747360000000 1.0
C      1  0.4244790000000  0.4965110000000  0.4876710000000 1.0
C      1  0.5459290000000  0.4454210000000  0.5350630000000 1.0
C      1  0.5254940000000  0.4880570000000  0.4787890000000 1.0
C      1  0.4407130000000  0.4821270000000  0.5427330000000 1.0
C      1  0.4312350000000  0.4680310000000  0.4936230000000 1.0
C      1  0.4866460000000  0.5242360000000  0.5020130000000 1.0
C      1  0.4571190000000  0.4616180000000  0.4805210000000 1.0
C      1  0.4881130000000  0.5014570000000  0.5553220000000 1.0
C      1  0.4405460000000  0.4593190000000  0.5213750000000 1.0
C      1  0.4902350000000  0.4601900000000  0.4485430000000 1.0
C      1  0.4796410000000  0.4736590000000  0.4992240000000 1.0
C      1  0.5408670000000  0.5260760000000  0.5546070000000 1.0
C      1  0.4974160000000  0.5273490000000  0.4700730000000 1.0
C      1  0.5130030000000  0.5553860000000  0.4679070000000 1.0
C      1  0.5156470000000  0.4562370000000  0.5375970000000 1.0
C      1  0.5457200000000  0.5127120000000  0.4834300000000 1.0
C      1  0.5182440000000  0.5623500000000  0.5007350000000 1.0
C      1  0.5112630000000  0.4807560000000  0.4387260000000 1.0
C      1  0.5177920000000  0.5449850000000  0.5514120000000 1.0
C      1  0.5267030000000  0.4241620000000  0.5130120000000 1.0
C      1  0.5126060000000  0.4978610000000  0.5335280000000 1.0
C      1  0.4736650000000  0.5440580000000  0.5257440000000 1.0
C      1  0.5450190000000  0.4611460000000  0.5052250000000 1.0
C      1  0.5345380000000  0.4957440000000  0.5572360000000 1.0
C      1  0.4852230000000  0.5659380000000  0.5061550000000 1.0
C      1  0.4870230000000  0.5683000000000  0.4558220000000 1.0
C      1  0.4654470000000  0.5473000000000  0.4455750000000 1.0
C      1  0.4637500000000  0.5009640000000  0.4556360000000 1.0
C      1  0.4437300000000  0.5362670000000  0.5256320000000 1.0
C      1  0.4707620000000  0.4703430000000  0.5499850000000 1.0
C      1  0.4421940000000  0.5138360000000  0.4714350000000 1.0
C      1  0.4999000000000  0.4617220000000  0.5618000000000 1.0
C      1  0.4686940000000  0.5013300000000  0.5075200000000 1.0
C      1  0.5686260000000  0.4968050000000  0.5250880000000 1.0
C      1  0.5532410000000  0.5275540000000  0.4591460000000 1.0
C      1  0.4691830000000  0.5691390000000  0.4812090000000 1.0
C      1  0.5226790000000  0.5664950000000  0.5319320000000 1.0
C      1  0.5018890000000  0.4383590000000  0.4684910000000 1.0
C      1  0.5526060000000  0.4413610000000  0.4816230000000 1.0
C      1  0.4998660000000  0.4341670000000  0.5002710000000 1.0
C      1  0.4901010000000  0.5332660000000  0.5497290000000 1.0
C      1  0.4305730000000  0.5486590000000  0.5023810000000 1.0
C      1  0.5375280000000  0.5322090000000  0.5059590000000 1.0
C      1  0.4631630000000  0.4700110000000  0.4531800000000 1.0
C      1  0.5560160000000  0.4769170000000  0.5452930000000 1.0
C      1  0.5306100000000  0.4396540000000  0.4603980000000 1.0
C      1  0.5572360000000  0.5252980000000  0.5293950000000 1.0
C      1  0.4742290000000  0.4492390000000  0.5207660000000 1.0
C      1  0.5639110000000  0.4888600000000  0.4957600000000 1.0
C      1  0.5375880000000  0.5507840000000  0.4522750000000 1.0
C      1  0.4743480000000  0.5202670000000  0.4350670000000 1.0
C      1  0.5111280000000  0.4867130000000  0.5767250000000 1.0
C      1  0.5377180000000  0.4702410000000  0.4535760000000 1.0
END
