TITL C-3985259-1859-459 -0.000162985412167492 125000 -335.810919997461 0 0 60 (D2h) n - 1
REM
REM in /home/nfs/bkarasulu/CARBON/AIRSS/Generating-Clusters/TERSOFF/Higher-Symm/Only-C60
REM
REM
REM
REM
REM
REM ./C.cell (28575a23ae977d3b5fae324c64b13b57)
REM
REM compiler GCC version 9.2.1 20190827 (Red Hat 9.2.1-1)
REM options -cpp -mtune=generic -march=x86-64 -g -O0 -fpre-include=/usr/include/finclude/math-vector-fortran.h
REM seed 2044641647 627922468 1447186576 13590959 -7152862 -79265039 351752682 2081960710 69809549 -2014312650 -1900778751 399538590 946501078 -136704424 -1053583700 -1346285055 825602493 -502973912 1624513177 -1094447887 -97547794 -1102966474 2094449643 -658939466 201475988 1205402999 -1841516388 -391879845 696972068 1373963218 1165697494 1274195544 -1512131907
REM
CELL 1.54180   50.00000   50.00000   50.00000   90.00000   90.00000   90.00000
LATT -1
SFAC C  
C      1  0.5546780000000  0.5281250000000  0.4700990000000 1.0
C      1  0.4453090000000  0.5281230000000  0.5299010000000 1.0
C      1  0.5547010000000  0.4719080000000  0.4700810000000 1.0
C      1  0.4452870000000  0.4719050000000  0.5299210000000 1.0
C      1  0.4453150000000  0.5280990000000  0.4700950000000 1.0
C      1  0.5546800000000  0.5280940000000  0.5298990000000 1.0
C      1  0.4453190000000  0.4718720000000  0.4701110000000 1.0
C      1  0.5546720000000  0.4718680000000  0.5298850000000 1.0
C      1  0.4844910000000  0.5776700000000  0.4835040000000 1.0
C      1  0.5155270000000  0.5776700000000  0.5165060000000 1.0
C      1  0.4847130000000  0.4224230000000  0.4836340000000 1.0
C      1  0.5153160000000  0.4224150000000  0.5163780000000 1.0
C      1  0.5154910000000  0.5776660000000  0.4835150000000 1.0
C      1  0.4845270000000  0.5776590000000  0.5164850000000 1.0
C      1  0.5157110000000  0.4222720000000  0.4833870000000 1.0
C      1  0.4843170000000  0.4222770000000  0.5166090000000 1.0
C      1  0.4845400000000  0.4615660000000  0.4482090000000 1.0
C      1  0.5154670000000  0.4615640000000  0.5518000000000 1.0
C      1  0.4845120000000  0.5384290000000  0.4481710000000 1.0
C      1  0.5154920000000  0.5384240000000  0.5518350000000 1.0
C      1  0.5155160000000  0.4615800000000  0.4481110000000 1.0
C      1  0.4844910000000  0.4615840000000  0.5518820000000 1.0
C      1  0.5154850000000  0.5384410000000  0.4481660000000 1.0
C      1  0.4845180000000  0.5384330000000  0.5518310000000 1.0
C      1  0.5373600000000  0.4846990000000  0.5548370000000 1.0
C      1  0.4626410000000  0.4846990000000  0.4451570000000 1.0
C      1  0.5373640000000  0.5152560000000  0.5548440000000 1.0
C      1  0.4626390000000  0.5152590000000  0.4451500000000 1.0
C      1  0.4626080000000  0.4847440000000  0.5548590000000 1.0
C      1  0.5373860000000  0.4847460000000  0.4451450000000 1.0
C      1  0.4626250000000  0.5152930000000  0.5548470000000 1.0
C      1  0.5373670000000  0.5152950000000  0.4451520000000 1.0
C      1  0.5779900000000  0.5157880000000  0.4836550000000 1.0
C      1  0.4220000000000  0.5157850000000  0.5163370000000 1.0
C      1  0.5779920000000  0.4842520000000  0.4836610000000 1.0
C      1  0.4219960000000  0.4842490000000  0.5163390000000 1.0
C      1  0.4220090000000  0.5157610000000  0.4836590000000 1.0
C      1  0.5779830000000  0.5157540000000  0.5163320000000 1.0
C      1  0.4220050000000  0.4842200000000  0.4836590000000 1.0
C      1  0.5779870000000  0.4842140000000  0.5163390000000 1.0
C      1  0.5290140000000  0.4393040000000  0.4636700000000 1.0
C      1  0.4710000000000  0.4393160000000  0.5363060000000 1.0
C      1  0.5288970000000  0.5606830000000  0.4638380000000 1.0
C      1  0.4711110000000  0.5606690000000  0.5361460000000 1.0
C      1  0.4712060000000  0.4393670000000  0.4640050000000 1.0
C      1  0.5288080000000  0.4393530000000  0.5360270000000 1.0
C      1  0.4710890000000  0.5606660000000  0.4638430000000 1.0
C      1  0.5289200000000  0.5606670000000  0.5361760000000 1.0
C      1  0.5287830000000  0.4755570000000  0.4853940000000 1.0
C      1  0.4712030000000  0.4755600000000  0.5146060000000 1.0
C      1  0.5287770000000  0.5244210000000  0.4854230000000 1.0
C      1  0.4712110000000  0.5244220000000  0.5145760000000 1.0
C      1  0.4712090000000  0.4755670000000  0.4854590000000 1.0
C      1  0.5287780000000  0.4755620000000  0.5145420000000 1.0
C      1  0.4712140000000  0.5244220000000  0.4854310000000 1.0
C      1  0.5287770000000  0.5244190000000  0.5145700000000 1.0
C      1  0.4857510000000  0.4999920000000  0.5233160000000 1.0
C      1  0.5142380000000  0.4999950000000  0.4766820000000 1.0
C      1  0.5142430000000  0.4999880000000  0.5232940000000 1.0
C      1  0.4857470000000  0.4999870000000  0.4767080000000 1.0
END
