TITL C-3985254-1270-442 -4.66513599019499e-09 125000 -287.786580881628 0 0 60 (C3h) n - 1
REM
REM in /home/nfs/bkarasulu/CARBON/AIRSS/Generating-Clusters/TERSOFF/Higher-Symm/Only-C60
REM
REM
REM
REM
REM
REM ./C.cell (28575a23ae977d3b5fae324c64b13b57)
REM
REM compiler GCC version 9.2.1 20190827 (Red Hat 9.2.1-1)
REM options -cpp -mtune=generic -march=x86-64 -g -O0 -fpre-include=/usr/include/finclude/math-vector-fortran.h
REM seed -451940137 1737227128 248468718 -883458166 -1069820534 -417624700 -532145953 -1432304 -375538138 -1944196199 -1424243632 -1525409970 339369391 1826524943 -595500869 96940648 -1041167913 1819025745 -1784014187 -261201068 -1522836211 -712108437 -414376625 -1372939628 -1638619919 -491622737 -113122842 1102172112 -429094642 -1587975743 1832692747 1581581620 -881245165
REM
CELL 1.54180   50.00000   50.00000   50.00000   90.00000   90.00000   90.00000
LATT -1
SFAC C  
C      1  0.4866460000000  0.5567970000000  0.4720870000000 1.0
C      1  0.5308510000000  0.5567970000000  0.5023920000000 1.0
C      1  0.4825030000000  0.5567970000000  0.5255220000000 1.0
C      1  0.4866460000000  0.4432030000000  0.4720870000000 1.0
C      1  0.5308510000000  0.4432030000000  0.5023920000000 1.0
C      1  0.4825030000000  0.4432030000000  0.5255220000000 1.0
C      1  0.5280410000000  0.4848300000000  0.5071040000000 1.0
C      1  0.4798280000000  0.4848300000000  0.5207320000000 1.0
C      1  0.4921310000000  0.4848300000000  0.4721640000000 1.0
C      1  0.5280410000000  0.5151700000000  0.5071040000000 1.0
C      1  0.4798280000000  0.5151700000000  0.5207320000000 1.0
C      1  0.4921310000000  0.5151700000000  0.4721640000000 1.0
C      1  0.5354500000000  0.4634420000000  0.5423150000000 1.0
C      1  0.4456290000000  0.4634420000000  0.5095430000000 1.0
C      1  0.5189210000000  0.4634420000000  0.4481420000000 1.0
C      1  0.5354500000000  0.5365580000000  0.5423150000000 1.0
C      1  0.4456290000000  0.5365580000000  0.5095430000000 1.0
C      1  0.5189210000000  0.5365580000000  0.4481420000000 1.0
C      1  0.5128550000000  0.4405090000000  0.5281280000000 1.0
C      1  0.4692120000000  0.4405090000000  0.4970690000000 1.0
C      1  0.5179320000000  0.4405090000000  0.4748030000000 1.0
C      1  0.5128550000000  0.5594910000000  0.5281280000000 1.0
C      1  0.4692120000000  0.5594910000000  0.4970690000000 1.0
C      1  0.5179320000000  0.5594910000000  0.4748030000000 1.0
C      1  0.5397500000000  0.4822360000000  0.4331510000000 1.0
C      1  0.5380180000000  0.4822360000000  0.5678490000000 1.0
C      1  0.4222320000000  0.4822360000000  0.4990000000000 1.0
C      1  0.5397500000000  0.5177640000000  0.4331510000000 1.0
C      1  0.5380180000000  0.5177640000000  0.5678490000000 1.0
C      1  0.4222320000000  0.5177640000000  0.4990000000000 1.0
C      1  0.4618780000000  0.4677240000000  0.5420190000000 1.0
C      1  0.4826720000000  0.4677240000000  0.4459760000000 1.0
C      1  0.5554500000000  0.4677240000000  0.5120060000000 1.0
C      1  0.4618780000000  0.5322760000000  0.5420190000000 1.0
C      1  0.4826720000000  0.5322760000000  0.4459760000000 1.0
C      1  0.5554500000000  0.5322760000000  0.5120060000000 1.0
C      1  0.5778520000000  0.4853910000000  0.5249120000000 1.0
C      1  0.4395000000000  0.4853910000000  0.5549660000000 1.0
C      1  0.4826490000000  0.4853910000000  0.4201220000000 1.0
C      1  0.5778520000000  0.5146090000000  0.5249120000000 1.0
C      1  0.4395000000000  0.5146090000000  0.5549660000000 1.0
C      1  0.4826490000000  0.5146090000000  0.4201220000000 1.0
C      1  0.5681240000000  0.5163510000000  0.4479820000000 1.0
C      1  0.5109870000000  0.5163510000000  0.5850060000000 1.0
C      1  0.4208890000000  0.5163510000000  0.4670120000000 1.0
C      1  0.5681240000000  0.4836490000000  0.4479820000000 1.0
C      1  0.5109870000000  0.4836490000000  0.5850060000000 1.0
C      1  0.4208890000000  0.4836490000000  0.4670120000000 1.0
C      1  0.5594450000000  0.4828240000000  0.4794520000000 1.0
C      1  0.4880730000000  0.4828240000000  0.5617540000000 1.0
C      1  0.4524830000000  0.4828240000000  0.4587930000000 1.0
C      1  0.5594450000000  0.5171760000000  0.4794520000000 1.0
C      1  0.4880730000000  0.5171760000000  0.5617540000000 1.0
C      1  0.4524830000000  0.5171760000000  0.4587930000000 1.0
C      1  0.5239020000000  0.4820460000000  0.4756460000000 1.0
C      1  0.5091400000000  0.4820460000000  0.5328770000000 1.0
C      1  0.4669580000000  0.4820460000000  0.4914770000000 1.0
C      1  0.5239020000000  0.5179540000000  0.4756460000000 1.0
C      1  0.5091400000000  0.5179540000000  0.5328770000000 1.0
C      1  0.4669580000000  0.5179540000000  0.4914770000000 1.0
END
