TITL C-3985254-1270-233 -0.000115854059850971 125000 -306.057232216511 0 0 60 (C1) n - 1
REM
REM in /home/nfs/bkarasulu/CARBON/AIRSS/Generating-Clusters/TERSOFF/Higher-Symm/Only-C60
REM
REM
REM
REM
REM
REM ./C.cell (28575a23ae977d3b5fae324c64b13b57)
REM
REM compiler GCC version 9.2.1 20190827 (Red Hat 9.2.1-1)
REM options -cpp -mtune=generic -march=x86-64 -g -O0 -fpre-include=/usr/include/finclude/math-vector-fortran.h
REM seed -1106142558 -1185106841 -1324043686 -2075561906 -410618310 1877019073 -656402892 2012269078 -1814123760 -388155450 -1263198500 -1737505185 353726609 1632855197 -548460507 -1327866093 1318702275 411879159 1620000798 -207540992 528090906 -1470460660 -1177795064 -822669032 1011397416 766012919 -1468096561 -322018290 -677229917 -2132963313 -1796526875 -1001087136 917543847
REM
CELL 1.54180   50.00000   50.00000   50.00000   90.00000   90.00000   90.00000
LATT -1
SFAC C  
C      1  0.4470850000000  0.4703170000000  0.5245290000000 1.0
C      1  0.4549990000000  0.4412990000000  0.5169640000000 1.0
C      1  0.5228670000000  0.5067380000000  0.4341430000000 1.0
C      1  0.4562820000000  0.5352300000000  0.5587800000000 1.0
C      1  0.5255400000000  0.5217060000000  0.5054800000000 1.0
C      1  0.4840540000000  0.4727280000000  0.4429070000000 1.0
C      1  0.4503510000000  0.4846460000000  0.4439340000000 1.0
C      1  0.5364850000000  0.5346580000000  0.5437560000000 1.0
C      1  0.4756040000000  0.4754270000000  0.5369630000000 1.0
C      1  0.4812810000000  0.4318910000000  0.5269740000000 1.0
C      1  0.4966510000000  0.5587280000000  0.4727400000000 1.0
C      1  0.5565800000000  0.5580840000000  0.4836990000000 1.0
C      1  0.5257620000000  0.5370800000000  0.4319520000000 1.0
C      1  0.5169950000000  0.5382600000000  0.4612680000000 1.0
C      1  0.4375020000000  0.4489830000000  0.4717560000000 1.0
C      1  0.5575760000000  0.4593360000000  0.4893990000000 1.0
C      1  0.4942350000000  0.5010710000000  0.4321410000000 1.0
C      1  0.5156310000000  0.4816970000000  0.4796720000000 1.0
C      1  0.5074420000000  0.4376170000000  0.5106360000000 1.0
C      1  0.5097690000000  0.5071730000000  0.5728690000000 1.0
C      1  0.4488360000000  0.5117850000000  0.4341330000000 1.0
C      1  0.5183450000000  0.4691760000000  0.5072270000000 1.0
C      1  0.5467010000000  0.5030060000000  0.5281170000000 1.0
C      1  0.4890720000000  0.5169600000000  0.4706620000000 1.0
C      1  0.4729110000000  0.4808830000000  0.5793260000000 1.0
C      1  0.5044450000000  0.4473010000000  0.4585500000000 1.0
C      1  0.5711580000000  0.5063080000000  0.5015620000000 1.0
C      1  0.5045320000000  0.4848820000000  0.5278940000000 1.0
C      1  0.4690570000000  0.5525700000000  0.4612450000000 1.0
C      1  0.4696720000000  0.5075720000000  0.5302510000000 1.0
C      1  0.5460280000000  0.4699870000000  0.5153310000000 1.0
C      1  0.5510880000000  0.5585690000000  0.5303630000000 1.0
C      1  0.5097560000000  0.5587100000000  0.5372340000000 1.0
C      1  0.4886150000000  0.4862480000000  0.4710180000000 1.0
C      1  0.4691790000000  0.4758490000000  0.4893060000000 1.0
C      1  0.5082180000000  0.5173050000000  0.5433420000000 1.0
C      1  0.4837670000000  0.5437100000000  0.5456860000000 1.0
C      1  0.4876220000000  0.4606480000000  0.5625700000000 1.0
C      1  0.4621840000000  0.4452210000000  0.4882440000000 1.0
C      1  0.5671390000000  0.5302260000000  0.4798850000000 1.0
C      1  0.4466670000000  0.5302900000000  0.5039960000000 1.0
C      1  0.5640740000000  0.4859060000000  0.4575420000000 1.0
C      1  0.4910460000000  0.4360690000000  0.4825680000000 1.0
C      1  0.5333930000000  0.4872750000000  0.5581840000000 1.0
C      1  0.5187410000000  0.4592290000000  0.5579000000000 1.0
C      1  0.5256510000000  0.4400500000000  0.5365950000000 1.0
C      1  0.4371140000000  0.5343110000000  0.5350540000000 1.0
C      1  0.4332970000000  0.4782010000000  0.4677470000000 1.0
C      1  0.5355730000000  0.5563600000000  0.5043320000000 1.0
C      1  0.5374840000000  0.5213280000000  0.4767590000000 1.0
C      1  0.4729980000000  0.5275120000000  0.4405070000000 1.0
C      1  0.5776700000000  0.4811750000000  0.4835700000000 1.0
C      1  0.4928700000000  0.5174430000000  0.5042490000000 1.0
C      1  0.4744400000000  0.5084990000000  0.5665370000000 1.0
C      1  0.5374630000000  0.4497020000000  0.4635020000000 1.0
C      1  0.4462820000000  0.5491590000000  0.4796520000000 1.0
C      1  0.5365530000000  0.4956830000000  0.4602110000000 1.0
C      1  0.4726150000000  0.5515180000000  0.5176120000000 1.0
C      1  0.5011330000000  0.5659360000000  0.5028340000000 1.0
C      1  0.4439220000000  0.4947680000000  0.4981440000000 1.0
END
