TITL C-3985245-9316-607 0.00203774248682362 125000 -312.913797608586 0 0 60 (C1) n - 1
REM
REM in /home/nfs/bkarasulu/CARBON/AIRSS/Generating-Clusters/TERSOFF/Higher-Symm/Only-C60
REM
REM
REM
REM
REM
REM ./C.cell (28575a23ae977d3b5fae324c64b13b57)
REM
REM compiler GCC version 9.2.1 20190827 (Red Hat 9.2.1-1)
REM options -cpp -mtune=generic -march=x86-64 -g -O0 -fpre-include=/usr/include/finclude/math-vector-fortran.h
REM seed -240822656 -1858257423 756369898 1645699275 1825591231 -320462483 -444629306 -1378124313 222270408 1430833668 407868576 739275469 -2023745174 -1988791099 605443836 751036287 -337623459 -473575846 -552557538 2071415309 -1544845898 998808710 1622621167 1666643569 -2024038249 418507784 410992635 -611113137 -1888506046 2146825876 -962908408 992278621 -414873124
REM
CELL 1.54180   50.00000   50.00000   50.00000   90.00000   90.00000   90.00000
LATT -1
SFAC C  
C      1  0.4341350000000  0.5162310000000  0.5551970000000 1.0
C      1  0.4951160000000  0.5676450000000  0.5551690000000 1.0
C      1  0.5628070000000  0.5255770000000  0.5551900000000 1.0
C      1  0.5437290000000  0.4481550000000  0.5552080000000 1.0
C      1  0.4641980000000  0.4423690000000  0.5551670000000 1.0
C      1  0.5036160000000  0.5577000000000  0.4528100000000 1.0
C      1  0.5561050000000  0.5144530000000  0.4528040000000 1.0
C      1  0.5310180000000  0.4512640000000  0.4528270000000 1.0
C      1  0.4632810000000  0.4555620000000  0.4529420000000 1.0
C      1  0.4464830000000  0.5212120000000  0.4528460000000 1.0
C      1  0.5647380000000  0.4735690000000  0.4892410000000 1.0
C      1  0.4948540000000  0.4302450000000  0.4892840000000 1.0
C      1  0.4320920000000  0.4833970000000  0.4893610000000 1.0
C      1  0.4631680000000  0.5595170000000  0.4893650000000 1.0
C      1  0.5451810000000  0.5533550000000  0.4892410000000 1.0
C      1  0.5004970000000  0.5275300000000  0.4354480000000 1.0
C      1  0.5264100000000  0.5080620000000  0.4354930000000 1.0
C      1  0.5159190000000  0.4774490000000  0.4355520000000 1.0
C      1  0.4835600000000  0.4780030000000  0.4356730000000 1.0
C      1  0.4739950000000  0.5088990000000  0.4355130000000 1.0
C      1  0.5629770000000  0.4717310000000  0.5532110000000 1.0
C      1  0.4925670000000  0.4313560000000  0.5532160000000 1.0
C      1  0.4324430000000  0.4858410000000  0.5532020000000 1.0
C      1  0.4656810000000  0.5599020000000  0.5532180000000 1.0
C      1  0.5463380000000  0.5511530000000  0.5531790000000 1.0
C      1  0.4762670000000  0.4841340000000  0.5067900000000 1.0
C      1  0.4775410000000  0.5175110000000  0.5067480000000 1.0
C      1  0.5098000000000  0.5266340000000  0.5066950000000 1.0
C      1  0.5284020000000  0.4988620000000  0.5067400000000 1.0
C      1  0.5077050000000  0.4725600000000  0.5067810000000 1.0
C      1  0.5025320000000  0.4447250000000  0.4621590000000 1.0
C      1  0.4479870000000  0.4805320000000  0.4620950000000 1.0
C      1  0.4655350000000  0.5433610000000  0.4621990000000 1.0
C      1  0.5304520000000  0.5460510000000  0.4621600000000 1.0
C      1  0.5531670000000  0.4854000000000  0.4622180000000 1.0
C      1  0.4506710000000  0.5351390000000  0.5064840000000 1.0
C      1  0.5181460000000  0.5576180000000  0.5063710000000 1.0
C      1  0.5604420000000  0.5005920000000  0.5063900000000 1.0
C      1  0.5192560000000  0.4426300000000  0.5064320000000 1.0
C      1  0.4513830000000  0.4639500000000  0.5064530000000 1.0
C      1  0.4795920000000  0.5158310000000  0.5394580000000 1.0
C      1  0.5087240000000  0.5242820000000  0.5392570000000 1.0
C      1  0.5257950000000  0.4991960000000  0.5393940000000 1.0
C      1  0.5072050000000  0.4752130000000  0.5394070000000 1.0
C      1  0.4786710000000  0.4855020000000  0.5393200000000 1.0
C      1  0.4665840000000  0.4446520000000  0.4838530000000 1.0
C      1  0.4370680000000  0.5147240000000  0.4838820000000 1.0
C      1  0.4945730000000  0.5645610000000  0.4839090000000 1.0
C      1  0.5597180000000  0.5251650000000  0.4838500000000 1.0
C      1  0.5423680000000  0.4510590000000  0.4838350000000 1.0
C      1  0.5256260000000  0.4922340000000  0.4743400000000 1.0
C      1  0.5004730000000  0.4731000000000  0.4743270000000 1.0
C      1  0.4744530000000  0.4911870000000  0.4743980000000 1.0
C      1  0.4836870000000  0.5214180000000  0.4743430000000 1.0
C      1  0.5152700000000  0.5220190000000  0.4743010000000 1.0
C      1  0.5180760000000  0.5532200000000  0.5409910000000 1.0
C      1  0.5562260000000  0.4992650000000  0.5410120000000 1.0
C      1  0.5166700000000  0.4462810000000  0.5410160000000 1.0
C      1  0.4540980000000  0.4675490000000  0.5410130000000 1.0
C      1  0.4549280000000  0.5336680000000  0.5410210000000 1.0
END
