TITL C-3985256-5419-8 -0.00640838634020763 125000 -317.017993876179 0 0 60 (S4) n - 1
REM
REM in /home/nfs/bkarasulu/CARBON/AIRSS/Generating-Clusters/TERSOFF/Higher-Symm/Only-C60
REM
REM
REM
REM
REM
REM ./C.cell (28575a23ae977d3b5fae324c64b13b57)
REM
REM compiler GCC version 9.2.1 20190827 (Red Hat 9.2.1-1)
REM options -cpp -mtune=generic -march=x86-64 -g -O0 -fpre-include=/usr/include/finclude/math-vector-fortran.h
REM seed 1904597731 1526190090 363295179 1795533748 -783349605 -258444555 -1192481925 824957444 1400792196 796290268 -271991159 611124357 1519757784 394340292 -158711564 2054884040 -1521181353 -1757185514 782427861 -1168195377 -685816467 113400068 -1772002780 1527536888 906240990 -1337581295 -1457277192 -39260812 600025794 -1475015117 -775866076 1001846253 909986256
REM
CELL 1.54180   50.00000   50.00000   50.00000   90.00000   90.00000   90.00000
LATT -1
SFAC C  
C      1  0.4767690000000  0.4553260000000  0.5371660000000 1.0
C      1  0.5232310000000  0.4628340000000  0.4553260000000 1.0
C      1  0.4767690000000  0.5446740000000  0.4628340000000 1.0
C      1  0.5232310000000  0.5371660000000  0.5446740000000 1.0
C      1  0.5297230000000  0.4438080000000  0.4822170000000 1.0
C      1  0.4702770000000  0.5177830000000  0.4438080000000 1.0
C      1  0.5297230000000  0.5561920000000  0.5177830000000 1.0
C      1  0.4702770000000  0.4822170000000  0.5561920000000 1.0
C      1  0.5688010000000  0.4864020000000  0.4519310000000 1.0
C      1  0.4311990000000  0.5480690000000  0.4864020000000 1.0
C      1  0.5688010000000  0.5135980000000  0.5480690000000 1.0
C      1  0.4311990000000  0.4519310000000  0.5135980000000 1.0
C      1  0.4532730000000  0.5074600000000  0.5477240000000 1.0
C      1  0.5467270000000  0.4522760000000  0.5074600000000 1.0
C      1  0.4532730000000  0.4925400000000  0.4522760000000 1.0
C      1  0.5467270000000  0.5477240000000  0.4925400000000 1.0
C      1  0.4958590000000  0.4583530000000  0.5093990000000 1.0
C      1  0.5041410000000  0.4906010000000  0.4583530000000 1.0
C      1  0.4958590000000  0.5416470000000  0.4906010000000 1.0
C      1  0.5041410000000  0.5093990000000  0.5416470000000 1.0
C      1  0.5360640000000  0.4515850000000  0.5362140000000 1.0
C      1  0.4639360000000  0.4637860000000  0.4515850000000 1.0
C      1  0.5360640000000  0.5484150000000  0.4637860000000 1.0
C      1  0.4639360000000  0.5362140000000  0.5484150000000 1.0
C      1  0.4895650000000  0.5245850000000  0.5170830000000 1.0
C      1  0.5104350000000  0.4829170000000  0.5245850000000 1.0
C      1  0.4895650000000  0.4754150000000  0.4829170000000 1.0
C      1  0.5104350000000  0.5170830000000  0.4754150000000 1.0
C      1  0.5013310000000  0.4738500000000  0.5656670000000 1.0
C      1  0.4986690000000  0.4343330000000  0.4738500000000 1.0
C      1  0.5013310000000  0.5261500000000  0.4343330000000 1.0
C      1  0.4986690000000  0.5656670000000  0.5261500000000 1.0
C      1  0.4274280000000  0.4797680000000  0.5056300000000 1.0
C      1  0.5725720000000  0.4943700000000  0.4797680000000 1.0
C      1  0.4274280000000  0.5202320000000  0.4943700000000 1.0
C      1  0.5725720000000  0.5056300000000  0.5202320000000 1.0
C      1  0.5428630000000  0.5194000000000  0.5599250000000 1.0
C      1  0.4571370000000  0.4400750000000  0.5194000000000 1.0
C      1  0.5428630000000  0.4806000000000  0.4400750000000 1.0
C      1  0.4571370000000  0.5599250000000  0.4806000000000 1.0
C      1  0.4924890000000  0.4518830000000  0.4463520000000 1.0
C      1  0.5075110000000  0.5536480000000  0.4518830000000 1.0
C      1  0.4924890000000  0.5481170000000  0.5536480000000 1.0
C      1  0.5075110000000  0.4463520000000  0.5481170000000 1.0
C      1  0.5703290000000  0.4731260000000  0.5044120000000 1.0
C      1  0.4296710000000  0.4955880000000  0.4731260000000 1.0
C      1  0.5703290000000  0.5268740000000  0.4955880000000 1.0
C      1  0.4296710000000  0.5044120000000  0.5268740000000 1.0
C      1  0.4665600000000  0.4885300000000  0.4918590000000 1.0
C      1  0.5334400000000  0.5081410000000  0.4885300000000 1.0
C      1  0.4665600000000  0.5114700000000  0.5081410000000 1.0
C      1  0.5334400000000  0.4918590000000  0.5114700000000 1.0
C      1  0.4541840000000  0.4463870000000  0.4733210000000 1.0
C      1  0.5458160000000  0.5266790000000  0.4463870000000 1.0
C      1  0.4541840000000  0.5536130000000  0.5266790000000 1.0
C      1  0.5458160000000  0.4733210000000  0.5536130000000 1.0
C      1  0.5263900000000  0.4936240000000  0.5659400000000 1.0
C      1  0.4736100000000  0.4340600000000  0.4936240000000 1.0
C      1  0.5263900000000  0.5063760000000  0.4340600000000 1.0
C      1  0.4736100000000  0.5659400000000  0.5063760000000 1.0
END
