TITL C-3985254-1270-1045 -0.00585298641170686 125000 -335.916779140952 0 0 60 (C1) n - 1
REM
REM in /home/nfs/bkarasulu/CARBON/AIRSS/Generating-Clusters/TERSOFF/Higher-Symm/Only-C60
REM
REM
REM
REM
REM
REM ./C.cell (28575a23ae977d3b5fae324c64b13b57)
REM
REM compiler GCC version 9.2.1 20190827 (Red Hat 9.2.1-1)
REM options -cpp -mtune=generic -march=x86-64 -g -O0 -fpre-include=/usr/include/finclude/math-vector-fortran.h
REM seed -717752387 -665033234 -1380538396 -1411203001 -1638444084 -1489132529 317238127 1025292229 -2020549019 -919129090 -1543113764 1885141820 1399794163 1372149889 -434695642 1166800721 352842878 1078304484 -157989004 -1121391014 491751333 -429379377 -1855661437 -1653461504 1104430739 -702479819 -1222443659 -1208572284 -1198092834 -602342108 -34709885 -578454344 -1193005430
REM
CELL 1.54180   50.00000   50.00000   50.00000   90.00000   90.00000   90.00000
LATT -1
SFAC C  
C      1  0.4485250000000  0.5387840000000  0.4562720000000 1.0
C      1  0.4937340000000  0.4358190000000  0.4565630000000 1.0
C      1  0.5598470000000  0.5273550000000  0.4566370000000 1.0
C      1  0.5131670000000  0.4458300000000  0.4756270000000 1.0
C      1  0.5420630000000  0.5398290000000  0.4759620000000 1.0
C      1  0.4458760000000  0.5172630000000  0.4756830000000 1.0
C      1  0.4609340000000  0.5291590000000  0.5418290000000 1.0
C      1  0.4947990000000  0.4538730000000  0.5414060000000 1.0
C      1  0.5440960000000  0.5199370000000  0.5414940000000 1.0
C      1  0.4565110000000  0.4725220000000  0.5189820000000 1.0
C      1  0.5460780000000  0.4781920000000  0.5183550000000 1.0
C      1  0.4968500000000  0.5516040000000  0.5188270000000 1.0
C      1  0.5170700000000  0.4762940000000  0.5132910000000 1.0
C      1  0.5134780000000  0.5277820000000  0.5133120000000 1.0
C      1  0.4685300000000  0.4988220000000  0.5132970000000 1.0
C      1  0.4987520000000  0.5327410000000  0.4480890000000 1.0
C      1  0.4728920000000  0.4813990000000  0.4486850000000 1.0
C      1  0.5294120000000  0.4872500000000  0.4474370000000 1.0
C      1  0.4289550000000  0.4707730000000  0.5065570000000 1.0
C      1  0.5609290000000  0.4549590000000  0.5057630000000 1.0
C      1  0.5094260000000  0.5762990000000  0.5064870000000 1.0
C      1  0.4524230000000  0.5241740000000  0.5070860000000 1.0
C      1  0.5032050000000  0.4496650000000  0.5065840000000 1.0
C      1  0.5435880000000  0.5295670000000  0.5067360000000 1.0
C      1  0.5570810000000  0.5015440000000  0.5024960000000 1.0
C      1  0.4708980000000  0.5495490000000  0.5028580000000 1.0
C      1  0.4718550000000  0.4516750000000  0.5027810000000 1.0
C      1  0.5336800000000  0.5373900000000  0.5629500000000 1.0
C      1  0.4508360000000  0.5115270000000  0.5634370000000 1.0
C      1  0.5151600000000  0.4532430000000  0.5628700000000 1.0
C      1  0.5163660000000  0.5501050000000  0.4648620000000 1.0
C      1  0.4490720000000  0.4893750000000  0.4649970000000 1.0
C      1  0.5352480000000  0.4628250000000  0.4642300000000 1.0
C      1  0.5051900000000  0.5437820000000  0.5671670000000 1.0
C      1  0.4590960000000  0.4835170000000  0.5675860000000 1.0
C      1  0.5362000000000  0.4735580000000  0.5668340000000 1.0
C      1  0.4725250000000  0.5435280000000  0.4409480000000 1.0
C      1  0.4761200000000  0.4532260000000  0.4420880000000 1.0
C      1  0.5522050000000  0.5044130000000  0.4409050000000 1.0
C      1  0.4563120000000  0.4441680000000  0.4784820000000 1.0
C      1  0.5710870000000  0.4919280000000  0.4780310000000 1.0
C      1  0.4727630000000  0.5663270000000  0.4783430000000 1.0
C      1  0.4348040000000  0.4661320000000  0.4772520000000 1.0
C      1  0.5624210000000  0.4625500000000  0.4764850000000 1.0
C      1  0.5025560000000  0.5735190000000  0.4771310000000 1.0
C      1  0.4856880000000  0.5469780000000  0.5457900000000 1.0
C      1  0.4664650000000  0.4652500000000  0.5460240000000 1.0
C      1  0.5480180000000  0.4895510000000  0.5455090000000 1.0
C      1  0.5063250000000  0.5023020000000  0.5736450000000 1.0
C      1  0.4955770000000  0.4996190000000  0.6514910000000 1.0
C      1  0.4894340000000  0.5026100000000  0.4164510000000 1.0
C      1  0.4927730000000  0.5003700000000  0.3648040000000 1.0
C      1  0.5046360000000  0.5008470000000  0.3915290000000 1.0
C      1  0.4917650000000  0.5013460000000  0.5481280000000 1.0
C      1  0.5077440000000  0.5028950000000  0.6253310000000 1.0
C      1  0.5003110000000  0.5010930000000  0.5147770000000 1.0
C      1  0.4942210000000  0.4991210000000  0.4801820000000 1.0
C      1  0.5077680000000  0.5011390000000  0.3399640000000 1.0
C      1  0.4939060000000  0.4995490000000  0.5999530000000 1.0
C      1  0.5014400000000  0.5004440000000  0.4475810000000 1.0
END
