TITL C-3985247-764-206 -0.000319496849500192 125000 -326.792409398926 0 0 60 (C1) n - 1
REM
REM in /home/nfs/bkarasulu/CARBON/AIRSS/Generating-Clusters/TERSOFF/Higher-Symm/Only-C60
REM
REM
REM
REM
REM
REM ./C.cell (28575a23ae977d3b5fae324c64b13b57)
REM
REM compiler GCC version 9.2.1 20190827 (Red Hat 9.2.1-1)
REM options -cpp -mtune=generic -march=x86-64 -g -O0 -fpre-include=/usr/include/finclude/math-vector-fortran.h
REM seed 1968911810 -793981711 1762255894 -1577398441 -1328878882 -1458735212 -501669536 1145888354 -1132388912 113024674 -692976415 -169706343 -180799966 1029066754 -1765154066 -2104659412 -378086308 1166537789 -721243923 -182465990 -515693995 -997001419 -398461063 -803866070 1432407238 595128125 -69121814 -486960582 1761467424 845634500 2045145022 1062048072 -1064684465
REM
CELL 1.54180   50.00000   50.00000   50.00000   90.00000   90.00000   90.00000
LATT -1
SFAC C  
C      1  0.5162870000000  0.4703030000000  0.4467210000000 1.0
C      1  0.5154490000000  0.4674810000000  0.5532810000000 1.0
C      1  0.5170560000000  0.5631200000000  0.4985260000000 1.0
C      1  0.4828490000000  0.5557610000000  0.5449040000000 1.0
C      1  0.4803650000000  0.5089570000000  0.4257980000000 1.0
C      1  0.4801390000000  0.4311600000000  0.5286720000000 1.0
C      1  0.4705560000000  0.5514470000000  0.4788460000000 1.0
C      1  0.4699940000000  0.4567140000000  0.4651350000000 1.0
C      1  0.4675010000000  0.4890860000000  0.5584960000000 1.0
C      1  0.5050000000000  0.5143270000000  0.5748800000000 1.0
C      1  0.5047090000000  0.5546700000000  0.4459790000000 1.0
C      1  0.5049950000000  0.4281320000000  0.4794200000000 1.0
C      1  0.5442200000000  0.4770250000000  0.5473060000000 1.0
C      1  0.5454690000000  0.5532500000000  0.4953980000000 1.0
C      1  0.5453570000000  0.4709700000000  0.4559500000000 1.0
C      1  0.5678970000000  0.5225890000000  0.5298960000000 1.0
C      1  0.5684920000000  0.5156980000000  0.4654580000000 1.0
C      1  0.5684630000000  0.4635330000000  0.5037370000000 1.0
C      1  0.5612520000000  0.5494310000000  0.5197860000000 1.0
C      1  0.5615470000000  0.4938000000000  0.4470870000000 1.0
C      1  0.5612210000000  0.4585570000000  0.5318910000000 1.0
C      1  0.5452620000000  0.4677460000000  0.4856670000000 1.0
C      1  0.5442160000000  0.5051950000000  0.5362360000000 1.0
C      1  0.5451010000000  0.5294890000000  0.4778470000000 1.0
C      1  0.4474100000000  0.4459960000000  0.5245320000000 1.0
C      1  0.4499310000000  0.5486010000000  0.5333430000000 1.0
C      1  0.4477540000000  0.5039850000000  0.4405300000000 1.0
C      1  0.4979480000000  0.4485820000000  0.4585860000000 1.0
C      1  0.4967530000000  0.4864090000000  0.5687570000000 1.0
C      1  0.4979810000000  0.5619510000000  0.4743410000000 1.0
C      1  0.4826370000000  0.4203070000000  0.4985790000000 1.0
C      1  0.4856880000000  0.5362360000000  0.5695600000000 1.0
C      1  0.4826760000000  0.5408910000000  0.4299580000000 1.0
C      1  0.4697250000000  0.5422310000000  0.5074330000000 1.0
C      1  0.4672190000000  0.4859500000000  0.4589600000000 1.0
C      1  0.4665320000000  0.4704830000000  0.5344100000000 1.0
C      1  0.5919450000000  0.5101650000000  0.4821180000000 1.0
C      1  0.5919440000000  0.4805590000000  0.5003900000000 1.0
C      1  0.5915680000000  0.5108650000000  0.5170680000000 1.0
C      1  0.5221310000000  0.4818810000000  0.4960600000000 1.0
C      1  0.5204600000000  0.5067430000000  0.5189730000000 1.0
C      1  0.5215730000000  0.5142050000000  0.4855570000000 1.0
C      1  0.4949290000000  0.5068180000000  0.5321180000000 1.0
C      1  0.4992270000000  0.5142330000000  0.4677220000000 1.0
C      1  0.4992310000000  0.4659460000000  0.5046280000000 1.0
C      1  0.4394050000000  0.5237490000000  0.4851820000000 1.0
C      1  0.4374300000000  0.4759960000000  0.4867270000000 1.0
C      1  0.4384250000000  0.5008500000000  0.5275150000000 1.0
C      1  0.4288690000000  0.4996060000000  0.4688270000000 1.0
C      1  0.4289130000000  0.4738930000000  0.5162340000000 1.0
C      1  0.4308690000000  0.5280180000000  0.5143070000000 1.0
C      1  0.5033990000000  0.4510240000000  0.5300740000000 1.0
C      1  0.5060780000000  0.5672610000000  0.5276700000000 1.0
C      1  0.5037510000000  0.4985810000000  0.4426730000000 1.0
C      1  0.4573020000000  0.4381150000000  0.4906920000000 1.0
C      1  0.4577680000000  0.5237920000000  0.5587570000000 1.0
C      1  0.4579080000000  0.5374170000000  0.4500340000000 1.0
C      1  0.4702200000000  0.5144730000000  0.5198230000000 1.0
C      1  0.4711830000000  0.5094920000000  0.4783090000000 1.0
C      1  0.4698210000000  0.4762520000000  0.5026340000000 1.0
END
