TITL C-3985247-764-348 1.50706141739716e-07 125000 -320.180593438583 0 0 60 (D2d) n - 1
REM
REM in /home/nfs/bkarasulu/CARBON/AIRSS/Generating-Clusters/TERSOFF/Higher-Symm/Only-C60
REM
REM
REM
REM
REM
REM ./C.cell (28575a23ae977d3b5fae324c64b13b57)
REM
REM compiler GCC version 9.2.1 20190827 (Red Hat 9.2.1-1)
REM options -cpp -mtune=generic -march=x86-64 -g -O0 -fpre-include=/usr/include/finclude/math-vector-fortran.h
REM seed 1978469 1343354868 139671992 -891893058 -648112379 -390461984 -1153737357 -1510216946 -1163149641 761606860 1462732788 1138846801 -669243343 -1657910023 -1004169016 -1361898670 910729098 -1253327328 -612952982 612197151 96587791 -1035904145 -306062226 1470095942 1866818168 -666202954 -923918026 709246183 -1928675853 -1547968139 1767619497 -1950338627 692910419
REM
CELL 1.54180   50.00000   50.00000   50.00000   90.00000   90.00000   90.00000
LATT -1
SFAC C  
C      1  0.5173560000000  0.4438570000000  0.5533200000000 1.0
C      1  0.4826440000000  0.5561430000000  0.5533200000000 1.0
C      1  0.4826440000000  0.4438570000000  0.4466800000000 1.0
C      1  0.5173560000000  0.5561430000000  0.4466800000000 1.0
C      1  0.4438570000000  0.5173560000000  0.5533200000000 1.0
C      1  0.5561430000000  0.4826440000000  0.5533200000000 1.0
C      1  0.4438570000000  0.4826440000000  0.4466800000000 1.0
C      1  0.5561430000000  0.5173560000000  0.4466800000000 1.0
C      1  0.4326840000000  0.4691410000000  0.5207460000000 1.0
C      1  0.5673160000000  0.5308590000000  0.5207460000000 1.0
C      1  0.5673160000000  0.4691410000000  0.4792540000000 1.0
C      1  0.4326840000000  0.5308590000000  0.4792540000000 1.0
C      1  0.4691410000000  0.4326840000000  0.5207460000000 1.0
C      1  0.5308590000000  0.5673160000000  0.5207460000000 1.0
C      1  0.4691410000000  0.5673160000000  0.4792540000000 1.0
C      1  0.5308590000000  0.4326840000000  0.4792540000000 1.0
C      1  0.5699950000000  0.5488790000000  0.4972470000000 1.0
C      1  0.4300050000000  0.4511210000000  0.4972470000000 1.0
C      1  0.4300050000000  0.5488790000000  0.5027530000000 1.0
C      1  0.5699950000000  0.4511210000000  0.5027530000000 1.0
C      1  0.5488790000000  0.5699950000000  0.4972470000000 1.0
C      1  0.4511210000000  0.4300050000000  0.4972470000000 1.0
C      1  0.5488790000000  0.4300050000000  0.5027530000000 1.0
C      1  0.4511210000000  0.5699950000000  0.5027530000000 1.0
C      1  0.5293470000000  0.5671980000000  0.4728130000000 1.0
C      1  0.4706530000000  0.4328020000000  0.4728130000000 1.0
C      1  0.4706530000000  0.5671980000000  0.5271870000000 1.0
C      1  0.5293470000000  0.4328020000000  0.5271870000000 1.0
C      1  0.5671980000000  0.5293470000000  0.4728130000000 1.0
C      1  0.4328020000000  0.4706530000000  0.4728130000000 1.0
C      1  0.5671980000000  0.4706530000000  0.5271870000000 1.0
C      1  0.4328020000000  0.5293470000000  0.5271870000000 1.0
C      1  0.5408560000000  0.4817870000000  0.5116640000000 1.0
C      1  0.4591440000000  0.5182130000000  0.5116640000000 1.0
C      1  0.4591440000000  0.4817870000000  0.4883360000000 1.0
C      1  0.5408560000000  0.5182130000000  0.4883360000000 1.0
C      1  0.4817870000000  0.5408560000000  0.5116640000000 1.0
C      1  0.5182130000000  0.4591440000000  0.5116640000000 1.0
C      1  0.4817870000000  0.4591440000000  0.4883360000000 1.0
C      1  0.5182130000000  0.5408560000000  0.4883360000000 1.0
C      1  0.4872580000000  0.5424340000000  0.4783380000000 1.0
C      1  0.5127420000000  0.4575660000000  0.4783380000000 1.0
C      1  0.5127420000000  0.5424340000000  0.5216620000000 1.0
C      1  0.4872580000000  0.4575660000000  0.5216620000000 1.0
C      1  0.5424340000000  0.4872580000000  0.4783380000000 1.0
C      1  0.4575660000000  0.5127420000000  0.4783380000000 1.0
C      1  0.5424340000000  0.5127420000000  0.5216620000000 1.0
C      1  0.4575660000000  0.4872580000000  0.5216620000000 1.0
C      1  0.4921920000000  0.5284150000000  0.5559850000000 1.0
C      1  0.5078080000000  0.4715850000000  0.5559850000000 1.0
C      1  0.5078080000000  0.5284150000000  0.4440150000000 1.0
C      1  0.4921920000000  0.4715850000000  0.4440150000000 1.0
C      1  0.5284150000000  0.4921920000000  0.5559850000000 1.0
C      1  0.4715850000000  0.5078080000000  0.5559850000000 1.0
C      1  0.5284150000000  0.5078080000000  0.4440150000000 1.0
C      1  0.4715850000000  0.4921920000000  0.4440150000000 1.0
C      1  0.4792930000000  0.4792930000000  0.5443430000000 1.0
C      1  0.5207070000000  0.4792930000000  0.4556570000000 1.0
C      1  0.5207060000000  0.5207070000000  0.5443430000000 1.0
C      1  0.4792930000000  0.5207070000000  0.4556570000000 1.0
END
