TITL C-3985259-1859-238 -6.35055131561083e-05 125000 -335.642287941356 0 0 60 (C2) n - 1
REM
REM in /home/nfs/bkarasulu/CARBON/AIRSS/Generating-Clusters/TERSOFF/Higher-Symm/Only-C60
REM
REM
REM
REM
REM
REM ./C.cell (28575a23ae977d3b5fae324c64b13b57)
REM
REM compiler GCC version 9.2.1 20190827 (Red Hat 9.2.1-1)
REM options -cpp -mtune=generic -march=x86-64 -g -O0 -fpre-include=/usr/include/finclude/math-vector-fortran.h
REM seed -1085554359 -359444357 517761308 -1618651609 -1071682083 244809632 1846398118 -75435881 1286894481 1852379964 -153276020 256800216 -257050026 -2005874150 569127782 -281763057 -1271640117 -595351002 -2106199301 1060549208 -328002285 -1281673428 -1946037443 -536109819 -86380751 205522363 -186830588 -105536770 569260958 1085501232 715440496 -102606268 -1721924389
REM
CELL 1.54180   50.00000   50.00000   50.00000   90.00000   90.00000   90.00000
LATT -1
SFAC C  
C      1  0.5517230000000  0.4761840000000  0.4755170000000 1.0
C      1  0.5517230000000  0.5238170000000  0.5244820000000 1.0
C      1  0.4515980000000  0.4504310000000  0.5104590000000 1.0
C      1  0.4515980000000  0.5495700000000  0.4895410000000 1.0
C      1  0.4914750000000  0.5544720000000  0.4588470000000 1.0
C      1  0.4914770000000  0.4455280000000  0.5411530000000 1.0
C      1  0.5577630000000  0.4910450000000  0.5602680000000 1.0
C      1  0.5577610000000  0.5089560000000  0.4397300000000 1.0
C      1  0.5295100000000  0.5134470000000  0.5035390000000 1.0
C      1  0.5295100000000  0.4865540000000  0.4964610000000 1.0
C      1  0.5291560000000  0.4345970000000  0.5021750000000 1.0
C      1  0.5291570000000  0.5654060000000  0.4978240000000 1.0
C      1  0.4720160000000  0.4321110000000  0.5234410000000 1.0
C      1  0.4720140000000  0.5678880000000  0.4765600000000 1.0
C      1  0.4194580000000  0.4777330000000  0.5108180000000 1.0
C      1  0.4194580000000  0.5222650000000  0.4891860000000 1.0
C      1  0.5105860000000  0.5614460000000  0.5460180000000 1.0
C      1  0.5105860000000  0.4385530000000  0.4539810000000 1.0
C      1  0.4294460000000  0.4722420000000  0.4822680000000 1.0
C      1  0.4294500000000  0.5277610000000  0.5177380000000 1.0
C      1  0.4793990000000  0.4254040000000  0.4915870000000 1.0
C      1  0.4794020000000  0.5745960000000  0.5084120000000 1.0
C      1  0.5536070000000  0.4521780000000  0.4971080000000 1.0
C      1  0.5536070000000  0.5478230000000  0.5028900000000 1.0
C      1  0.4871910000000  0.5152950000000  0.4768480000000 1.0
C      1  0.4871910000000  0.4847060000000  0.5231530000000 1.0
C      1  0.4387280000000  0.4988660000000  0.5276250000000 1.0
C      1  0.4387260000000  0.5011320000000  0.4723780000000 1.0
C      1  0.4846780000000  0.5239540000000  0.4465800000000 1.0
C      1  0.4846800000000  0.4760460000000  0.5534200000000 1.0
C      1  0.4613440000000  0.4779780000000  0.5088950000000 1.0
C      1  0.4613430000000  0.5220210000000  0.4911060000000 1.0
C      1  0.5478760000000  0.5185940000000  0.5541740000000 1.0
C      1  0.5478730000000  0.4814060000000  0.4458250000000 1.0
C      1  0.5071940000000  0.5702020000000  0.5183480000000 1.0
C      1  0.5071930000000  0.4297990000000  0.4816520000000 1.0
C      1  0.5408970000000  0.5339090000000  0.4510590000000 1.0
C      1  0.5408980000000  0.4660910000000  0.5489400000000 1.0
C      1  0.5594680000000  0.5296670000000  0.4778150000000 1.0
C      1  0.5594680000000  0.4703340000000  0.5221830000000 1.0
C      1  0.5197060000000  0.4846790000000  0.4372100000000 1.0
C      1  0.5197040000000  0.5153200000000  0.5627900000000 1.0
C      1  0.5135370000000  0.5143640000000  0.4394450000000 1.0
C      1  0.5135400000000  0.4856370000000  0.5605550000000 1.0
C      1  0.5108160000000  0.4711180000000  0.5117980000000 1.0
C      1  0.5108130000000  0.5288810000000  0.4882000000000 1.0
C      1  0.5001940000000  0.4638030000000  0.4434860000000 1.0
C      1  0.5001990000000  0.5361990000000  0.5565150000000 1.0
C      1  0.4498230000000  0.4426520000000  0.4793140000000 1.0
C      1  0.4498170000000  0.5573380000000  0.5206890000000 1.0
C      1  0.5684550000000  0.5015550000000  0.4852700000000 1.0
C      1  0.5684550000000  0.4984460000000  0.5147290000000 1.0
C      1  0.5202080000000  0.4474670000000  0.5296970000000 1.0
C      1  0.5202070000000  0.5525340000000  0.4703020000000 1.0
C      1  0.4607380000000  0.5006340000000  0.4474910000000 1.0
C      1  0.4607400000000  0.4993660000000  0.5525100000000 1.0
C      1  0.4745670000000  0.5273370000000  0.5454340000000 1.0
C      1  0.4745670000000  0.4726620000000  0.4545650000000 1.0
C      1  0.4788420000000  0.5149840000000  0.5179940000000 1.0
C      1  0.4788410000000  0.4850170000000  0.4820070000000 1.0
END
