TITL C-3985254-1270-348 2.58679958746673e-07 125000 -351.103993150852 0 0 60 (T23) n - 1
REM
REM in /home/nfs/bkarasulu/CARBON/AIRSS/Generating-Clusters/TERSOFF/Higher-Symm/Only-C60
REM
REM
REM
REM
REM
REM ./C.cell (28575a23ae977d3b5fae324c64b13b57)
REM
REM compiler GCC version 9.2.1 20190827 (Red Hat 9.2.1-1)
REM options -cpp -mtune=generic -march=x86-64 -g -O0 -fpre-include=/usr/include/finclude/math-vector-fortran.h
REM seed 1984936005 373807087 539627801 -695506001 744052298 603338370 -1553428459 -1401363728 -2142639303 1203118772 -1060613698 910908538 426184145 8437579 -1544835145 -961289260 -483876439 -504472583 -1470623333 -1950753700 1441077130 812334150 667352092 -527285754 -656244608 -1680434204 -1407454173 -1422000478 2131321811 2017618504 1340881244 66583787 -900349384
REM
CELL 1.54180   50.00000   50.00000   50.00000   90.00000   90.00000   90.00000
LATT -1
SFAC C  
C      1  0.5394770000000  0.5162920000000  0.4410340000000 1.0
C      1  0.4410340000000  0.5394770000000  0.5162920000000 1.0
C      1  0.5162920000000  0.4410340000000  0.5394770000000 1.0
C      1  0.4605230000000  0.5162920000000  0.5589660000000 1.0
C      1  0.5394770000000  0.4837080000000  0.5589660000000 1.0
C      1  0.4605230000000  0.4837080000000  0.4410340000000 1.0
C      1  0.5589660000000  0.5394770000000  0.4837080000000 1.0
C      1  0.4410340000000  0.4605230000000  0.4837080000000 1.0
C      1  0.5589660000000  0.4605230000000  0.5162920000000 1.0
C      1  0.4837080000000  0.4410340000000  0.4605230000000 1.0
C      1  0.5162920000000  0.5589660000000  0.4605230000000 1.0
C      1  0.4837080000000  0.5589660000000  0.5394770000000 1.0
C      1  0.5090910000000  0.4664630000000  0.4888070000000 1.0
C      1  0.4888070000000  0.5090910000000  0.4664630000000 1.0
C      1  0.4664630000000  0.4888070000000  0.5090910000000 1.0
C      1  0.4909090000000  0.4664630000000  0.5111930000000 1.0
C      1  0.5090910000000  0.5335370000000  0.5111930000000 1.0
C      1  0.4909090000000  0.5335370000000  0.4888070000000 1.0
C      1  0.5111930000000  0.5090910000000  0.5335370000000 1.0
C      1  0.4888070000000  0.4909090000000  0.5335370000000 1.0
C      1  0.5111930000000  0.4909090000000  0.4664630000000 1.0
C      1  0.5335370000000  0.4888070000000  0.4909090000000 1.0
C      1  0.4664630000000  0.5111930000000  0.4909090000000 1.0
C      1  0.5335370000000  0.5111930000000  0.5090910000000 1.0
C      1  0.4250710000000  0.5063130000000  0.4709330000000 1.0
C      1  0.4709330000000  0.4250710000000  0.5063130000000 1.0
C      1  0.5063130000000  0.4709330000000  0.4250710000000 1.0
C      1  0.5749290000000  0.5063130000000  0.5290670000000 1.0
C      1  0.4250710000000  0.4936870000000  0.5290670000000 1.0
C      1  0.5749290000000  0.4936870000000  0.4709330000000 1.0
C      1  0.5290670000000  0.4250710000000  0.4936870000000 1.0
C      1  0.4709330000000  0.5749290000000  0.4936870000000 1.0
C      1  0.5290670000000  0.5749290000000  0.5063130000000 1.0
C      1  0.4936870000000  0.4709330000000  0.5749290000000 1.0
C      1  0.5063130000000  0.5290670000000  0.5749290000000 1.0
C      1  0.4936870000000  0.5290670000000  0.4250710000000 1.0
C      1  0.5257840000000  0.5119790000000  0.5593760000000 1.0
C      1  0.5593760000000  0.5257840000000  0.5119790000000 1.0
C      1  0.5119790000000  0.5593760000000  0.5257840000000 1.0
C      1  0.4742160000000  0.5119790000000  0.4406240000000 1.0
C      1  0.5257840000000  0.4880210000000  0.4406240000000 1.0
C      1  0.4742160000000  0.4880210000000  0.5593760000000 1.0
C      1  0.4406240000000  0.5257840000000  0.4880210000000 1.0
C      1  0.5593760000000  0.4742160000000  0.4880210000000 1.0
C      1  0.4406240000000  0.4742160000000  0.5119790000000 1.0
C      1  0.4880210000000  0.5593760000000  0.4742160000000 1.0
C      1  0.5119790000000  0.4406240000000  0.4742160000000 1.0
C      1  0.4880210000000  0.4406240000000  0.5257840000000 1.0
C      1  0.5384960000000  0.5620960000000  0.4808220000000 1.0
C      1  0.4808220000000  0.5384960000000  0.5620960000000 1.0
C      1  0.5620960000000  0.4808220000000  0.5384960000000 1.0
C      1  0.4615040000000  0.5620960000000  0.5191780000000 1.0
C      1  0.5384960000000  0.4379040000000  0.5191780000000 1.0
C      1  0.4615040000000  0.4379040000000  0.4808220000000 1.0
C      1  0.5191780000000  0.5384960000000  0.4379040000000 1.0
C      1  0.4808220000000  0.4615040000000  0.4379040000000 1.0
C      1  0.5191780000000  0.4615040000000  0.5620960000000 1.0
C      1  0.4379040000000  0.4808220000000  0.4615040000000 1.0
C      1  0.5620960000000  0.5191780000000  0.4615040000000 1.0
C      1  0.4379040000000  0.5191780000000  0.5384960000000 1.0
END
