TITL C-3985259-1859-998 -0.00873571365327016 125000 -318.325266099875 0 0 60 (C6h) n - 1
REM
REM in /home/nfs/bkarasulu/CARBON/AIRSS/Generating-Clusters/TERSOFF/Higher-Symm/Only-C60
REM
REM
REM
REM
REM
REM ./C.cell (28575a23ae977d3b5fae324c64b13b57)
REM
REM compiler GCC version 9.2.1 20190827 (Red Hat 9.2.1-1)
REM options -cpp -mtune=generic -march=x86-64 -g -O0 -fpre-include=/usr/include/finclude/math-vector-fortran.h
REM seed -1755516172 -302411080 -907478543 1414811445 1877043715 1728223646 -867725432 362776680 -811856518 -232695338 -1095687144 474748998 439729038 -1006495144 73747744 1038586757 -1531734667 -1204052966 1810491483 1186753406 899356245 -758362148 873213321 -4762419 514991761 -164142978 90693466 114987249 1454833586 1984340843 -1752250261 266289262 1646125626
REM
CELL 1.54180   50.00000   50.00000   50.00000   90.00000   90.00000   90.00000
LATT -1
SFAC C  
C      1  0.4671410000000  0.4499910000000  0.4827070000000 1.0
C      1  0.4402690000000  0.5034470000000  0.4827030000000 1.0
C      1  0.4731140000000  0.5534590000000  0.4827070000000 1.0
C      1  0.5328590000000  0.5500090000000  0.4827070000000 1.0
C      1  0.5597310000000  0.4965530000000  0.4827030000000 1.0
C      1  0.5268860000000  0.4465410000000  0.4827070000000 1.0
C      1  0.4671410000000  0.4499910000000  0.5172930000000 1.0
C      1  0.4402690000000  0.5034470000000  0.5172970000000 1.0
C      1  0.4731140000000  0.5534590000000  0.5172930000000 1.0
C      1  0.5328590000000  0.5500090000000  0.5172930000000 1.0
C      1  0.5597310000000  0.4965530000000  0.5172970000000 1.0
C      1  0.5268860000000  0.4465410000000  0.5172930000000 1.0
C      1  0.5296450000000  0.5071750000000  0.4373940000000 1.0
C      1  0.5210350000000  0.4779170000000  0.4373990000000 1.0
C      1  0.4913920000000  0.4707420000000  0.4373980000000 1.0
C      1  0.4703550000000  0.4928250000000  0.4373940000000 1.0
C      1  0.4789650000000  0.5220830000000  0.4373990000000 1.0
C      1  0.5086080000000  0.5292580000000  0.4373980000000 1.0
C      1  0.5296450000000  0.5071750000000  0.5626060000000 1.0
C      1  0.5210350000000  0.4779170000000  0.5626010000000 1.0
C      1  0.4913920000000  0.4707420000000  0.5626020000000 1.0
C      1  0.4703550000000  0.4928250000000  0.5626060000000 1.0
C      1  0.4789650000000  0.5220830000000  0.5626010000000 1.0
C      1  0.5086080000000  0.5292580000000  0.5626020000000 1.0
C      1  0.4832810000000  0.4446810000000  0.4513310000000 1.0
C      1  0.4436910000000  0.4867940000000  0.4512930000000 1.0
C      1  0.4604130000000  0.5421630000000  0.4512900000000 1.0
C      1  0.5167190000000  0.5553190000000  0.4513310000000 1.0
C      1  0.5563090000000  0.5132060000000  0.4512930000000 1.0
C      1  0.5395870000000  0.4578370000000  0.4512900000000 1.0
C      1  0.4832810000000  0.4446810000000  0.5486690000000 1.0
C      1  0.4436910000000  0.4867940000000  0.5487070000000 1.0
C      1  0.4604130000000  0.5421630000000  0.5487100000000 1.0
C      1  0.5167190000000  0.5553190000000  0.5486690000000 1.0
C      1  0.5563090000000  0.5132060000000  0.5487070000000 1.0
C      1  0.5395870000000  0.4578370000000  0.5487100000000 1.0
C      1  0.4842920000000  0.4761710000000  0.5210030000000 1.0
C      1  0.4714910000000  0.5017160000000  0.5209980000000 1.0
C      1  0.4872870000000  0.5255260000000  0.5209800000000 1.0
C      1  0.5157080000000  0.5238290000000  0.5210030000000 1.0
C      1  0.5285090000000  0.4982840000000  0.5209980000000 1.0
C      1  0.5127130000000  0.4744740000000  0.5209800000000 1.0
C      1  0.4842920000000  0.4761710000000  0.4789970000000 1.0
C      1  0.4714910000000  0.5017160000000  0.4790020000000 1.0
C      1  0.4872870000000  0.5255260000000  0.4790200000000 1.0
C      1  0.5157080000000  0.5238290000000  0.4789970000000 1.0
C      1  0.5285090000000  0.4982840000000  0.4790020000000 1.0
C      1  0.5127130000000  0.4744740000000  0.4790200000000 1.0
C      1  0.4977580000000  0.4309350000000  0.4819650000000 1.0
C      1  0.4390660000000  0.4674140000000  0.4819590000000 1.0
C      1  0.4413090000000  0.5364740000000  0.4819660000000 1.0
C      1  0.5022420000000  0.5690650000000  0.4819650000000 1.0
C      1  0.5609340000000  0.5325860000000  0.4819590000000 1.0
C      1  0.5586910000000  0.4635260000000  0.4819660000000 1.0
C      1  0.4977580000000  0.4309350000000  0.5180350000000 1.0
C      1  0.4390660000000  0.4674140000000  0.5180410000000 1.0
C      1  0.4413090000000  0.5364740000000  0.5180340000000 1.0
C      1  0.5022420000000  0.5690650000000  0.5180350000000 1.0
C      1  0.5609340000000  0.5325860000000  0.5180410000000 1.0
C      1  0.5586910000000  0.4635260000000  0.5180340000000 1.0
END
