TITL C-3985254-1270-204 4.04916616360577e-05 125000 -337.239480635949 0 0 60 (C1) n - 1
REM
REM in /home/nfs/bkarasulu/CARBON/AIRSS/Generating-Clusters/TERSOFF/Higher-Symm/Only-C60
REM
REM
REM
REM
REM
REM ./C.cell (28575a23ae977d3b5fae324c64b13b57)
REM
REM compiler GCC version 9.2.1 20190827 (Red Hat 9.2.1-1)
REM options -cpp -mtune=generic -march=x86-64 -g -O0 -fpre-include=/usr/include/finclude/math-vector-fortran.h
REM seed 654829129 2101485014 -1427928923 113262995 -863994482 454900273 -1155784243 1490608148 -1247087327 1752975333 168993568 18376129 -1370043368 712601019 -741619594 756943871 -854102781 1718341031 -26838828 -1348767782 -877954398 1417405683 278309352 745519882 347628731 858641498 -1978874329 -10343236 -2005020795 407729581 -174958441 124135459 803615322
REM
CELL 1.54180   50.00000   50.00000   50.00000   90.00000   90.00000   90.00000
LATT -1
SFAC C  
C      1  0.4291810000000  0.4931660000000  0.5181550000000 1.0
C      1  0.5419660000000  0.5188140000000  0.5296290000000 1.0
C      1  0.5021610000000  0.5612190000000  0.4586760000000 1.0
C      1  0.4769830000000  0.5210070000000  0.5587260000000 1.0
C      1  0.5352840000000  0.5246360000000  0.4386920000000 1.0
C      1  0.4319340000000  0.5231440000000  0.5143140000000 1.0
C      1  0.5651900000000  0.5102000000000  0.5155200000000 1.0
C      1  0.4971010000000  0.4470860000000  0.4594520000000 1.0
C      1  0.5465990000000  0.4641750000000  0.5289180000000 1.0
C      1  0.5394080000000  0.4627560000000  0.4293550000000 1.0
C      1  0.5083100000000  0.5279800000000  0.5615070000000 1.0
C      1  0.4622090000000  0.4483440000000  0.4995620000000 1.0
C      1  0.5136910000000  0.5031830000000  0.4849990000000 1.0
C      1  0.4462510000000  0.4807030000000  0.4642520000000 1.0
C      1  0.5449230000000  0.5476890000000  0.4852670000000 1.0
C      1  0.5151980000000  0.5492500000000  0.5403530000000 1.0
C      1  0.4939630000000  0.4823810000000  0.4950790000000 1.0
C      1  0.5385280000000  0.4383690000000  0.5176540000000 1.0
C      1  0.4461200000000  0.4814210000000  0.5403830000000 1.0
C      1  0.4443800000000  0.4734870000000  0.4933560000000 1.0
C      1  0.5333100000000  0.4820370000000  0.4732540000000 1.0
C      1  0.4714910000000  0.5224480000000  0.5005330000000 1.0
C      1  0.4792010000000  0.5711950000000  0.4837300000000 1.0
C      1  0.4327160000000  0.5078390000000  0.4616070000000 1.0
C      1  0.5601110000000  0.5089460000000  0.4410920000000 1.0
C      1  0.5290820000000  0.5469170000000  0.4597300000000 1.0
C      1  0.5070170000000  0.4171820000000  0.4770920000000 1.0
C      1  0.4734460000000  0.4712580000000  0.4482640000000 1.0
C      1  0.4829580000000  0.5372540000000  0.4594390000000 1.0
C      1  0.5186520000000  0.5274300000000  0.5115120000000 1.0
C      1  0.4910560000000  0.4946040000000  0.4376430000000 1.0
C      1  0.4608260000000  0.4371240000000  0.5271130000000 1.0
C      1  0.4974690000000  0.4689570000000  0.5381550000000 1.0
C      1  0.4671420000000  0.5676020000000  0.5323160000000 1.0
C      1  0.4427670000000  0.4526590000000  0.5439410000000 1.0
C      1  0.5106110000000  0.4317800000000  0.5098910000000 1.0
C      1  0.5302850000000  0.5057410000000  0.5539290000000 1.0
C      1  0.4949190000000  0.5118100000000  0.4612160000000 1.0
C      1  0.5659850000000  0.5260930000000  0.4895700000000 1.0
C      1  0.5649360000000  0.4809780000000  0.5121050000000 1.0
C      1  0.4874160000000  0.5746140000000  0.5107310000000 1.0
C      1  0.5134950000000  0.5106920000000  0.4235800000000 1.0
C      1  0.4857180000000  0.4445460000000  0.5702230000000 1.0
C      1  0.4916080000000  0.4535900000000  0.4906570000000 1.0
C      1  0.4763990000000  0.4882100000000  0.5327630000000 1.0
C      1  0.5763210000000  0.5133150000000  0.4651430000000 1.0
C      1  0.4892370000000  0.4379210000000  0.5381150000000 1.0
C      1  0.5152970000000  0.5833580000000  0.5158940000000 1.0
C      1  0.4617080000000  0.5441860000000  0.4801050000000 1.0
C      1  0.5594070000000  0.4773020000000  0.4842620000000 1.0
C      1  0.4679500000000  0.4921400000000  0.5021700000000 1.0
C      1  0.5251110000000  0.4775850000000  0.5445490000000 1.0
C      1  0.5405980000000  0.5694850000000  0.5059970000000 1.0
C      1  0.4545630000000  0.5394010000000  0.5371710000000 1.0
C      1  0.4679970000000  0.4956230000000  0.5732720000000 1.0
C      1  0.5605580000000  0.4829970000000  0.4265470000000 1.0
C      1  0.4895630000000  0.5200330000000  0.5248190000000 1.0
C      1  0.4860620000000  0.4726530000000  0.5815710000000 1.0
C      1  0.4342350000000  0.5302100000000  0.4828650000000 1.0
C      1  0.5233960000000  0.4632790000000  0.4535840000000 1.0
END
