TITL C-3985258-5380-118 0.000173099051040032 125000 -341.216206192978 0 0 60 (C2) n - 1
REM
REM in /home/nfs/bkarasulu/CARBON/AIRSS/Generating-Clusters/TERSOFF/Higher-Symm/Only-C60
REM
REM
REM
REM
REM
REM ./C.cell (28575a23ae977d3b5fae324c64b13b57)
REM
REM compiler GCC version 9.2.1 20190827 (Red Hat 9.2.1-1)
REM options -cpp -mtune=generic -march=x86-64 -g -O0 -fpre-include=/usr/include/finclude/math-vector-fortran.h
REM seed -1053180488 -1876081543 766744369 1368641236 1905411113 866464844 -251316111 -1522160108 126314101 -374055778 -156296289 -189772354 -81498077 984030544 -791841609 1344049225 -531354579 -773239165 316668473 -1723503015 -1062615519 820627183 1857322053 1049514514 -715185893 -323947218 -573463083 121695224 1454261581 -1231229935 -1887060551 1101659372 2104092467
REM
CELL 1.54180   50.00000   50.00000   50.00000   90.00000   90.00000   90.00000
LATT -1
SFAC C  
C      1  0.4334630000000  0.5336350000000  0.5100130000000 1.0
C      1  0.4334610000000  0.4663650000000  0.4899880000000 1.0
C      1  0.5157910000000  0.5181890000000  0.5562750000000 1.0
C      1  0.5157920000000  0.4818120000000  0.4437250000000 1.0
C      1  0.4916580000000  0.5114160000000  0.5202500000000 1.0
C      1  0.4916570000000  0.4885800000000  0.4797530000000 1.0
C      1  0.5366530000000  0.4783640000000  0.5010610000000 1.0
C      1  0.5366510000000  0.5216380000000  0.4989400000000 1.0
C      1  0.5348150000000  0.5276190000000  0.5341070000000 1.0
C      1  0.5348160000000  0.4723800000000  0.4658930000000 1.0
C      1  0.4891840000000  0.4799660000000  0.5678210000000 1.0
C      1  0.4891830000000  0.5200340000000  0.4321800000000 1.0
C      1  0.5117340000000  0.4440420000000  0.5078820000000 1.0
C      1  0.5117290000000  0.5559590000000  0.4921140000000 1.0
C      1  0.4868990000000  0.4595390000000  0.5464600000000 1.0
C      1  0.4868990000000  0.5404630000000  0.4535420000000 1.0
C      1  0.4675530000000  0.5036480000000  0.4856580000000 1.0
C      1  0.4675530000000  0.4963550000000  0.5143440000000 1.0
C      1  0.4694030000000  0.5340110000000  0.4784480000000 1.0
C      1  0.4694030000000  0.4659890000000  0.5215480000000 1.0
C      1  0.5617530000000  0.4895820000000  0.4662840000000 1.0
C      1  0.5617530000000  0.5104180000000  0.5337160000000 1.0
C      1  0.5158030000000  0.4499540000000  0.5379520000000 1.0
C      1  0.5158040000000  0.5500450000000  0.4620490000000 1.0
C      1  0.4508110000000  0.5514000000000  0.5265740000000 1.0
C      1  0.4508100000000  0.4485990000000  0.4734250000000 1.0
C      1  0.5353410000000  0.5296160000000  0.4486050000000 1.0
C      1  0.5353420000000  0.4703830000000  0.5513950000000 1.0
C      1  0.4853970000000  0.5476740000000  0.4999900000000 1.0
C      1  0.4853950000000  0.4523290000000  0.5000080000000 1.0
C      1  0.5564250000000  0.5607720000000  0.4991750000000 1.0
C      1  0.5564260000000  0.4392280000000  0.5008260000000 1.0
C      1  0.4406610000000  0.5014500000000  0.4348050000000 1.0
C      1  0.4406610000000  0.4985500000000  0.5651940000000 1.0
C      1  0.4866260000000  0.5279780000000  0.5584240000000 1.0
C      1  0.4866260000000  0.4720200000000  0.4415760000000 1.0
C      1  0.4805750000000  0.5440970000000  0.5313630000000 1.0
C      1  0.4805800000000  0.4559030000000  0.4686390000000 1.0
C      1  0.5587420000000  0.5191700000000  0.4633010000000 1.0
C      1  0.5587420000000  0.4808310000000  0.5366980000000 1.0
C      1  0.5047430000000  0.5646060000000  0.5331970000000 1.0
C      1  0.5047400000000  0.4353930000000  0.4668040000000 1.0
C      1  0.5164170000000  0.5077180000000  0.4789670000000 1.0
C      1  0.5164160000000  0.4922830000000  0.5210340000000 1.0
C      1  0.5793850000000  0.5197490000000  0.5121680000000 1.0
C      1  0.5793850000000  0.4802510000000  0.4878320000000 1.0
C      1  0.5657020000000  0.5337230000000  0.4891480000000 1.0
C      1  0.5657020000000  0.4662770000000  0.5108510000000 1.0
C      1  0.4409470000000  0.4931620000000  0.4797310000000 1.0
C      1  0.4409460000000  0.5068390000000  0.5202680000000 1.0
C      1  0.5314590000000  0.5591590000000  0.5169520000000 1.0
C      1  0.5314580000000  0.4408410000000  0.4830490000000 1.0
C      1  0.5178220000000  0.4898530000000  0.5663080000000 1.0
C      1  0.5178220000000  0.5101460000000  0.4336920000000 1.0
C      1  0.4701970000000  0.4972120000000  0.4324860000000 1.0
C      1  0.4701970000000  0.5027870000000  0.5675140000000 1.0
C      1  0.4376590000000  0.5352200000000  0.4788440000000 1.0
C      1  0.4376580000000  0.4647800000000  0.5211560000000 1.0
C      1  0.4263860000000  0.5101450000000  0.4601990000000 1.0
C      1  0.4263860000000  0.4898550000000  0.5398010000000 1.0
END
