TITL C-3985247-764-339 -6.04961430601432e-07 125000 -309.137068993226 0 0 60 (C2v) n - 1
REM
REM in /home/nfs/bkarasulu/CARBON/AIRSS/Generating-Clusters/TERSOFF/Higher-Symm/Only-C60
REM
REM
REM
REM
REM
REM ./C.cell (28575a23ae977d3b5fae324c64b13b57)
REM
REM compiler GCC version 9.2.1 20190827 (Red Hat 9.2.1-1)
REM options -cpp -mtune=generic -march=x86-64 -g -O0 -fpre-include=/usr/include/finclude/math-vector-fortran.h
REM seed -691838545 -1597894799 -604080797 -1004066986 -1183417530 -1151697250 1754078202 963714382 -248460473 -493911051 2009860655 1489437907 946144459 -1729025510 1203016885 -1298292477 1505850158 -425810622 -1049947991 -948150934 1352992704 1701674383 528571303 -1684600069 1068348084 1611311244 269280144 -76564380 952746127 -621339569 1274717846 -1274823754 1073963838
REM
CELL 1.54180   50.00000   50.00000   50.00000   90.00000   90.00000   90.00000
LATT -1
SFAC C  
C      1  0.5065860000000  0.4838720000000  0.5566710000000 1.0
C      1  0.5065860000000  0.5161280000000  0.4433290000000 1.0
C      1  0.5065860000000  0.4838720000000  0.4433290000000 1.0
C      1  0.5065860000000  0.5161280000000  0.5566710000000 1.0
C      1  0.5178040000000  0.5344070000000  0.4855330000000 1.0
C      1  0.5178040000000  0.4655930000000  0.5144670000000 1.0
C      1  0.5178040000000  0.5344070000000  0.5144670000000 1.0
C      1  0.5178040000000  0.4655930000000  0.4855330000000 1.0
C      1  0.4942580000000  0.4838080000000  0.4748250000000 1.0
C      1  0.4942580000000  0.5161920000000  0.5251750000000 1.0
C      1  0.4942580000000  0.4838080000000  0.5251750000000 1.0
C      1  0.4942580000000  0.5161920000000  0.4748250000000 1.0
C      1  0.5315520000000  0.4647320000000  0.4415690000000 1.0
C      1  0.5315520000000  0.5352680000000  0.5584310000000 1.0
C      1  0.5315520000000  0.4647320000000  0.5584310000000 1.0
C      1  0.5315520000000  0.5352680000000  0.4415690000000 1.0
C      1  0.5939370000000  0.4729230000000  0.4723620000000 1.0
C      1  0.5939370000000  0.5270770000000  0.5276380000000 1.0
C      1  0.5939370000000  0.4729230000000  0.5276380000000 1.0
C      1  0.5939370000000  0.5270770000000  0.4723620000000 1.0
C      1  0.4646010000000  0.5320070000000  0.4409680000000 1.0
C      1  0.4646010000000  0.4679930000000  0.5590320000000 1.0
C      1  0.4646010000000  0.5320070000000  0.5590320000000 1.0
C      1  0.4646010000000  0.4679930000000  0.4409680000000 1.0
C      1  0.5081320000000  0.5545440000000  0.4610040000000 1.0
C      1  0.5081320000000  0.4454560000000  0.5389960000000 1.0
C      1  0.5081320000000  0.5545440000000  0.5389960000000 1.0
C      1  0.5081320000000  0.4454560000000  0.4610040000000 1.0
C      1  0.4786840000000  0.5554660000000  0.4562220000000 1.0
C      1  0.4786840000000  0.4445340000000  0.5437780000000 1.0
C      1  0.4786840000000  0.5554670000000  0.5437780000000 1.0
C      1  0.4786840000000  0.4445330000000  0.4562220000000 1.0
C      1  0.4479110000000  0.5147960000000  0.4613620000000 1.0
C      1  0.4479110000000  0.4852040000000  0.5386380000000 1.0
C      1  0.4479110000000  0.5147960000000  0.5386380000000 1.0
C      1  0.4479110000000  0.4852040000000  0.4613620000000 1.0
C      1  0.4609120000000  0.4391560000000  0.5175870000000 1.0
C      1  0.4609120000000  0.5608440000000  0.4824130000000 1.0
C      1  0.4609120000000  0.4391560000000  0.4824130000000 1.0
C      1  0.4609120000000  0.5608440000000  0.5175870000000 1.0
C      1  0.5684790000000  0.5162890000000  0.5168370000000 1.0
C      1  0.5684790000000  0.4837110000000  0.4831630000000 1.0
C      1  0.5684790000000  0.5162890000000  0.4831630000000 1.0
C      1  0.5684790000000  0.4837110000000  0.5168370000000 1.0
C      1  0.4823830000000  0.4837250000000  0.4227750000000 1.0
C      1  0.4823830000000  0.5162750000000  0.5772250000000 1.0
C      1  0.4823830000000  0.4837250000000  0.5772250000000 1.0
C      1  0.4823830000000  0.5162750000000  0.4227750000000 1.0
C      1  0.5439970000000  0.5292990000000  0.5289420000000 1.0
C      1  0.5439970000000  0.4707010000000  0.4710580000000 1.0
C      1  0.5439970000000  0.5292990000000  0.4710580000000 1.0
C      1  0.5439970000000  0.4707010000000  0.5289420000000 1.0
C      1  0.4655180000000  0.4729800000000  0.5159010000000 1.0
C      1  0.4655180000000  0.5270200000000  0.4840990000000 1.0
C      1  0.4655180000000  0.4729800000000  0.4840990000000 1.0
C      1  0.4655180000000  0.5270200000000  0.5159010000000 1.0
C      1  0.4352470000000  0.4268330000000  0.4736010000000 1.0
C      1  0.4352470000000  0.5731670000000  0.5263990000000 1.0
C      1  0.4352470000000  0.4268330000000  0.5263990000000 1.0
C      1  0.4352470000000  0.5731670000000  0.4736010000000 1.0
END
