TITL C-3985250-725-178 0.00269791550867268 125000 -298.667928658448 0 0 60 (C3) n - 1
REM
REM in /home/nfs/bkarasulu/CARBON/AIRSS/Generating-Clusters/TERSOFF/Higher-Symm/Only-C60
REM
REM
REM
REM
REM
REM ./C.cell (28575a23ae977d3b5fae324c64b13b57)
REM
REM compiler GCC version 9.2.1 20190827 (Red Hat 9.2.1-1)
REM options -cpp -mtune=generic -march=x86-64 -g -O0 -fpre-include=/usr/include/finclude/math-vector-fortran.h
REM seed 1786601821 -2035047976 1220466698 1329359979 1090592311 -1791665360 567314079 367087783 -1713012614 414645810 1188170252 1105545319 -2016261983 1939773488 1074693950 1031121602 1163422445 -909553356 1340564522 2002837315 318244298 -1446084509 -1467383066 -155827781 -156082697 -1763757642 -2090337535 2139438410 -1472773673 818751193 51083883 1873465845 529012959
REM
CELL 1.54180   50.00000   50.00000   50.00000   90.00000   90.00000   90.00000
LATT -1
SFAC C  
C      1  0.4863410000000  0.5505480000000  0.4523900000000 1.0
C      1  0.4655960000000  0.5505460000000  0.5356330000000 1.0
C      1  0.5480580000000  0.5505440000000  0.5119730000000 1.0
C      1  0.4764030000000  0.5109610000000  0.4734850000000 1.0
C      1  0.4888310000000  0.5109620000000  0.5337190000000 1.0
C      1  0.5347940000000  0.5109260000000  0.4928270000000 1.0
C      1  0.4453200000000  0.5325580000000  0.5200900000000 1.0
C      1  0.5447400000000  0.5325760000000  0.5373170000000 1.0
C      1  0.5099390000000  0.5325600000000  0.4425960000000 1.0
C      1  0.4847290000000  0.5051090000000  0.5658210000000 1.0
C      1  0.5646370000000  0.5050340000000  0.4803220000000 1.0
C      1  0.4506700000000  0.5050940000000  0.4538800000000 1.0
C      1  0.5006490000000  0.5041100000000  0.4476320000000 1.0
C      1  0.4543170000000  0.5041020000000  0.5256200000000 1.0
C      1  0.5450200000000  0.5041320000000  0.5267780000000 1.0
C      1  0.5319730000000  0.5427390000000  0.4827020000000 1.0
C      1  0.4690330000000  0.5427510000000  0.4809650000000 1.0
C      1  0.4989940000000  0.5427550000000  0.5363390000000 1.0
C      1  0.5484600000000  0.4885750000000  0.4365110000000 1.0
C      1  0.4208120000000  0.4885480000000  0.4897400000000 1.0
C      1  0.5307310000000  0.4885770000000  0.5737240000000 1.0
C      1  0.4403240000000  0.5361680000000  0.4902690000000 1.0
C      1  0.5214060000000  0.5361780000000  0.5565470000000 1.0
C      1  0.5382620000000  0.5361720000000  0.4531860000000 1.0
C      1  0.5685850000000  0.4851230000000  0.5197460000000 1.0
C      1  0.4827070000000  0.4851040000000  0.4308770000000 1.0
C      1  0.4488110000000  0.4851330000000  0.5495390000000 1.0
C      1  0.5172480000000  0.4478230000000  0.4555440000000 1.0
C      1  0.4528680000000  0.4477870000000  0.5073010000000 1.0
C      1  0.5299610000000  0.4477960000000  0.5371000000000 1.0
C      1  0.5459640000000  0.4643300000000  0.4541320000000 1.0
C      1  0.4373870000000  0.4643910000000  0.4830900000000 1.0
C      1  0.5167110000000  0.4644060000000  0.5627760000000 1.0
C      1  0.4250050000000  0.4958070000000  0.5166950000000 1.0
C      1  0.5519270000000  0.4958290000000  0.5566770000000 1.0
C      1  0.5230360000000  0.4958210000000  0.4267000000000 1.0
C      1  0.5580110000000  0.5128000000000  0.4515000000000 1.0
C      1  0.4289910000000  0.5128020000000  0.4740010000000 1.0
C      1  0.5129900000000  0.5128180000000  0.5744970000000 1.0
C      1  0.4838730000000  0.4587970000000  0.4469490000000 1.0
C      1  0.4622380000000  0.4588290000000  0.5404950000000 1.0
C      1  0.5539260000000  0.4589580000000  0.5124090000000 1.0
C      1  0.4769740000000  0.4407540000000  0.4903330000000 1.0
C      1  0.5032440000000  0.4409160000000  0.5246960000000 1.0
C      1  0.5197260000000  0.4409150000000  0.4848920000000 1.0
C      1  0.4732360000000  0.4901970000000  0.4982620000000 1.0
C      1  0.5118730000000  0.4902040000000  0.5240840000000 1.0
C      1  0.5148420000000  0.4901810000000  0.4777070000000 1.0
C      1  0.5246920000000  0.4673300000000  0.5002900000000 1.0
C      1  0.4878930000000  0.4672920000000  0.4784190000000 1.0
C      1  0.4874320000000  0.4673250000000  0.5209610000000 1.0
C      1  0.5142230000000  0.5624110000000  0.5151440000000 1.0
C      1  0.5060060000000  0.5624180000000  0.4801060000000 1.0
C      1  0.4797670000000  0.5624190000000  0.5047450000000 1.0
C      1  0.5612130000000  0.4720110000000  0.4802680000000 1.0
C      1  0.4523040000000  0.4722020000000  0.4567860000000 1.0
C      1  0.4862970000000  0.4721240000000  0.5632080000000 1.0
C      1  0.4665570000000  0.5315810000000  0.5627420000000 1.0
C      1  0.5710450000000  0.5315720000000  0.4975770000000 1.0
C      1  0.4624000000000  0.5315690000000  0.4396870000000 1.0
END
