TITL C-3985258-5380-112 -5.83230212591781e-07 125000 -334.144677316838 0 0 60 (C3) n - 1
REM
REM in /home/nfs/bkarasulu/CARBON/AIRSS/Generating-Clusters/TERSOFF/Higher-Symm/Only-C60
REM
REM
REM
REM
REM
REM ./C.cell (28575a23ae977d3b5fae324c64b13b57)
REM
REM compiler GCC version 9.2.1 20190827 (Red Hat 9.2.1-1)
REM options -cpp -mtune=generic -march=x86-64 -g -O0 -fpre-include=/usr/include/finclude/math-vector-fortran.h
REM seed -1023604156 -602398571 2118768686 -844392436 -1576211005 2032231018 -713176492 -1087205625 -457700610 -194289153 393017057 -158846373 1430852216 476122753 1442769438 1035003858 -1195439273 -728883352 -2063658902 -1211677143 1886611840 1190803246 1400958581 -106941630 -130155718 -1283931303 1622936315 -1972289628 753704988 589825558 1655698321 -1031070505 1546131665
REM
CELL 1.54180   50.00000   50.00000   50.00000   90.00000   90.00000   90.00000
LATT -1
SFAC C  
C      1  0.5517970000000  0.5417800000000  0.4948480000000 1.0
C      1  0.5517500000000  0.4747090000000  0.4663540000000 1.0
C      1  0.5518360000000  0.4835650000000  0.5387350000000 1.0
C      1  0.4596470000000  0.5703560000000  0.4960730000000 1.0
C      1  0.4596150000000  0.4613860000000  0.4410590000000 1.0
C      1  0.4596910000000  0.4682320000000  0.5629250000000 1.0
C      1  0.5056000000000  0.4586430000000  0.5467840000000 1.0
C      1  0.5055670000000  0.5611980000000  0.5124230000000 1.0
C      1  0.5055200000000  0.4801540000000  0.4407780000000 1.0
C      1  0.5470370000000  0.5071970000000  0.5580030000000 1.0
C      1  0.5469860000000  0.5466430000000  0.4647420000000 1.0
C      1  0.5470040000000  0.4461960000000  0.4771820000000 1.0
C      1  0.4574270000000  0.5265460000000  0.4712580000000 1.0
C      1  0.4574510000000  0.4618080000000  0.4914100000000 1.0
C      1  0.4574640000000  0.5116330000000  0.5373980000000 1.0
C      1  0.5366400000000  0.5559580000000  0.5180980000000 1.0
C      1  0.5365950000000  0.4877040000000  0.4424400000000 1.0
C      1  0.5366650000000  0.4563470000000  0.5393750000000 1.0
C      1  0.4953550000000  0.4363630000000  0.4618790000000 1.0
C      1  0.4954030000000  0.4988110000000  0.5741630000000 1.0
C      1  0.4953440000000  0.5648090000000  0.4639550000000 1.0
C      1  0.4477080000000  0.4824080000000  0.5403320000000 1.0
C      1  0.4476760000000  0.5436960000000  0.4951030000000 1.0
C      1  0.4476680000000  0.4738770000000  0.4646430000000 1.0
C      1  0.4393490000000  0.4666090000000  0.5164300000000 1.0
C      1  0.4393410000000  0.5308920000000  0.5207430000000 1.0
C      1  0.4393130000000  0.5024800000000  0.4629170000000 1.0
C      1  0.4894130000000  0.5659380000000  0.5370590000000 1.0
C      1  0.4893420000000  0.4991180000000  0.4243790000000 1.0
C      1  0.4894380000000  0.4349390000000  0.5385790000000 1.0
C      1  0.5435780000000  0.4382270000000  0.5124270000000 1.0
C      1  0.5435810000000  0.5416980000000  0.5472730000000 1.0
C      1  0.5435190000000  0.5201100000000  0.4402170000000 1.0
C      1  0.5140780000000  0.4404900000000  0.5023820000000 1.0
C      1  0.5140900000000  0.5318410000000  0.5503310000000 1.0
C      1  0.5140350000000  0.5276560000000  0.4472660000000 1.0
C      1  0.5249500000000  0.5671250000000  0.4565830000000 1.0
C      1  0.5249810000000  0.4288640000000  0.4635270000000 1.0
C      1  0.5250160000000  0.5040220000000  0.5798350000000 1.0
C      1  0.4899380000000  0.5275820000000  0.4300530000000 1.0
C      1  0.4900010000000  0.4256120000000  0.5110920000000 1.0
C      1  0.4900010000000  0.5467970000000  0.5588800000000 1.0
C      1  0.4773620000000  0.5026290000000  0.4806980000000 1.0
C      1  0.4773840000000  0.4819570000000  0.5073960000000 1.0
C      1  0.4773790000000  0.5154110000000  0.5119490000000 1.0
C      1  0.5414850000000  0.5033660000000  0.4813590000000 1.0
C      1  0.5415050000000  0.4821710000000  0.5063960000000 1.0
C      1  0.5415260000000  0.5144670000000  0.5122260000000 1.0
C      1  0.5158720000000  0.5098830000000  0.5300040000000 1.0
C      1  0.5158380000000  0.5210450000000  0.4764440000000 1.0
C      1  0.5158420000000  0.4690770000000  0.4935440000000 1.0
C      1  0.4753180000000  0.5433400000000  0.4514210000000 1.0
C      1  0.4753440000000  0.4362340000000  0.4867680000000 1.0
C      1  0.4753730000000  0.5204100000000  0.5618500000000 1.0
C      1  0.4992760000000  0.4827860000000  0.4715700000000 1.0
C      1  0.4993160000000  0.4839930000000  0.5291270000000 1.0
C      1  0.4992920000000  0.5332240000000  0.4993110000000 1.0
C      1  0.4881250000000  0.4547970000000  0.4408400000000 1.0
C      1  0.4882000000000  0.4713670000000  0.5687180000000 1.0
C      1  0.4881520000000  0.5738200000000  0.4904450000000 1.0
END
