TITL C-3985250-725-821 -5.54732856135337e-05 125000 -320.530539269345 0 0 60 (C1) n - 1
REM
REM in /home/nfs/bkarasulu/CARBON/AIRSS/Generating-Clusters/TERSOFF/Higher-Symm/Only-C60
REM
REM
REM
REM
REM
REM ./C.cell (28575a23ae977d3b5fae324c64b13b57)
REM
REM compiler GCC version 9.2.1 20190827 (Red Hat 9.2.1-1)
REM options -cpp -mtune=generic -march=x86-64 -g -O0 -fpre-include=/usr/include/finclude/math-vector-fortran.h
REM seed -351513416 782879785 -2087233911 -281139292 -1063377132 -1219215201 -1401061017 -1847034410 -624071439 472283358 -392110181 -1579900495 -236216348 -1345590760 2121346746 -157286430 731593112 1430003016 47500273 -657079172 -1248597036 -1758325628 -529285123 312360911 818969026 -1577445637 -364522935 1083423048 -1440812984 -1650230891 -726852681 -2016008928 188596585
REM
CELL 1.54180   50.00000   50.00000   50.00000   90.00000   90.00000   90.00000
LATT -1
SFAC C  
C      1  0.4943490000000  0.4464060000000  0.4765770000000 1.0
C      1  0.5640030000000  0.5406200000000  0.5044360000000 1.0
C      1  0.4438350000000  0.4824240000000  0.5475320000000 1.0
C      1  0.4950550000000  0.4801830000000  0.5248580000000 1.0
C      1  0.5303620000000  0.5223490000000  0.4481310000000 1.0
C      1  0.5647160000000  0.4826200000000  0.4904820000000 1.0
C      1  0.4312480000000  0.5187600000000  0.4783170000000 1.0
C      1  0.5075310000000  0.5366610000000  0.4619530000000 1.0
C      1  0.5017840000000  0.4847820000000  0.4477550000000 1.0
C      1  0.5108840000000  0.4841920000000  0.4965240000000 1.0
C      1  0.4877270000000  0.4774790000000  0.5694690000000 1.0
C      1  0.4475020000000  0.4884530000000  0.5182560000000 1.0
C      1  0.4813550000000  0.4774590000000  0.4245740000000 1.0
C      1  0.4909780000000  0.5340770000000  0.5385800000000 1.0
C      1  0.5385310000000  0.5161230000000  0.5271120000000 1.0
C      1  0.4830830000000  0.5650840000000  0.5110580000000 1.0
C      1  0.5665310000000  0.5364140000000  0.5507230000000 1.0
C      1  0.5145330000000  0.5578980000000  0.5074440000000 1.0
C      1  0.4901250000000  0.4888270000000  0.4749010000000 1.0
C      1  0.5217090000000  0.5055650000000  0.5498090000000 1.0
C      1  0.5499790000000  0.4660460000000  0.5090750000000 1.0
C      1  0.4818720000000  0.5187390000000  0.4626870000000 1.0
C      1  0.4247210000000  0.5354530000000  0.5066250000000 1.0
C      1  0.4785980000000  0.5063670000000  0.5729940000000 1.0
C      1  0.4598390000000  0.5138460000000  0.5144720000000 1.0
C      1  0.5079740000000  0.5277090000000  0.4954740000000 1.0
C      1  0.5229940000000  0.4538910000000  0.4974500000000 1.0
C      1  0.5286110000000  0.4935470000000  0.4428470000000 1.0
C      1  0.4653860000000  0.5595700000000  0.4879490000000 1.0
C      1  0.4890000000000  0.5140720000000  0.5162920000000 1.0
C      1  0.4523020000000  0.4459570000000  0.5130190000000 1.0
C      1  0.5514550000000  0.5216730000000  0.4691330000000 1.0
C      1  0.5533410000000  0.4772020000000  0.4566750000000 1.0
C      1  0.5428660000000  0.5492460000000  0.5280500000000 1.0
C      1  0.5556080000000  0.5507430000000  0.4775050000000 1.0
C      1  0.4502880000000  0.5107350000000  0.5586030000000 1.0
C      1  0.5095410000000  0.4399350000000  0.4492370000000 1.0
C      1  0.4601660000000  0.5326640000000  0.4769300000000 1.0
C      1  0.4562170000000  0.4733280000000  0.4466820000000 1.0
C      1  0.4411110000000  0.5032860000000  0.4476710000000 1.0
C      1  0.4459050000000  0.5356170000000  0.5330380000000 1.0
C      1  0.5743650000000  0.5100740000000  0.5060790000000 1.0
C      1  0.4980660000000  0.4503030000000  0.4241120000000 1.0
C      1  0.4648910000000  0.4629910000000  0.5567580000000 1.0
C      1  0.4677070000000  0.4667400000000  0.4742070000000 1.0
C      1  0.5726700000000  0.5043010000000  0.4555560000000 1.0
C      1  0.5493020000000  0.4767050000000  0.5367830000000 1.0
C      1  0.4454080000000  0.4681450000000  0.4948020000000 1.0
C      1  0.4743620000000  0.4509310000000  0.5311390000000 1.0
C      1  0.5009260000000  0.5229850000000  0.5630320000000 1.0
C      1  0.5677490000000  0.5047800000000  0.5378780000000 1.0
C      1  0.5346240000000  0.4520270000000  0.4660750000000 1.0
C      1  0.5261630000000  0.5610260000000  0.4776350000000 1.0
C      1  0.4242550000000  0.4880410000000  0.4832940000000 1.0
C      1  0.4708220000000  0.5105960000000  0.4343320000000 1.0
C      1  0.4703980000000  0.5558210000000  0.5369970000000 1.0
C      1  0.5182530000000  0.4742540000000  0.5506520000000 1.0
C      1  0.4950790000000  0.4297940000000  0.5338170000000 1.0
C      1  0.5323390000000  0.5085130000000  0.4968580000000 1.0
C      1  0.5190070000000  0.4459730000000  0.5290950000000 1.0
END
