TITL C-3985254-1270-1179 0.0020780261685197 125000 -302.683775072367 0 0 60 (C12) n - 1
REM
REM in /home/nfs/bkarasulu/CARBON/AIRSS/Generating-Clusters/TERSOFF/Higher-Symm/Only-C60
REM
REM
REM
REM
REM
REM ./C.cell (28575a23ae977d3b5fae324c64b13b57)
REM
REM compiler GCC version 9.2.1 20190827 (Red Hat 9.2.1-1)
REM options -cpp -mtune=generic -march=x86-64 -g -O0 -fpre-include=/usr/include/finclude/math-vector-fortran.h
REM seed -692439426 -2061574864 -1542598290 -1754190361 -1602760564 1097795940 1839952404 -988017788 -788473652 871040979 -853013081 1453726915 1463193919 1876043361 1102532602 731470180 -507474557 1747391250 1600586387 -439961159 1118458885 1545780380 -505411314 -1718254172 418417828 -1270579512 1028928862 -313681122 1651167079 824315317 -945724986 1204917040 -196250871
REM
CELL 1.54180   50.00000   50.00000   50.00000   90.00000   90.00000   90.00000
LATT -1
SFAC C  
C      1  0.4779330000000  0.5875810000000  0.4923710000000 1.0
C      1  0.4779700000000  0.5795670000000  0.5371910000000 1.0
C      1  0.4779880000000  0.5503700000000  0.5719730000000 1.0
C      1  0.4779330000000  0.5076290000000  0.5875810000000 1.0
C      1  0.4779700000000  0.4628090000000  0.5795670000000 1.0
C      1  0.4779880000000  0.4280270000000  0.5503700000000 1.0
C      1  0.4779330000000  0.4124190000000  0.5076290000000 1.0
C      1  0.4779700000000  0.4204330000000  0.4628090000000 1.0
C      1  0.4779880000000  0.4496300000000  0.4280270000000 1.0
C      1  0.4779330000000  0.4923710000000  0.4124190000000 1.0
C      1  0.4779700000000  0.5371910000000  0.4204330000000 1.0
C      1  0.4779880000000  0.5719730000000  0.4496300000000 1.0
C      1  0.5524050000000  0.4385250000000  0.4892280000000 1.0
C      1  0.5531350000000  0.4525670000000  0.4602530000000 1.0
C      1  0.5525990000000  0.4787310000000  0.4414200000000 1.0
C      1  0.5524050000000  0.5107720000000  0.4385250000000 1.0
C      1  0.5531350000000  0.5397470000000  0.4525670000000 1.0
C      1  0.5525990000000  0.5585800000000  0.4787310000000 1.0
C      1  0.5524050000000  0.5614750000000  0.5107720000000 1.0
C      1  0.5531350000000  0.5474330000000  0.5397470000000 1.0
C      1  0.5525990000000  0.5212690000000  0.5585800000000 1.0
C      1  0.5524050000000  0.4892280000000  0.5614750000000 1.0
C      1  0.5531350000000  0.4602530000000  0.5474330000000 1.0
C      1  0.5525990000000  0.4414200000000  0.5212690000000 1.0
C      1  0.5200250000000  0.5448000000000  0.4465790000000 1.0
C      1  0.5197840000000  0.5656740000000  0.4761820000000 1.0
C      1  0.5197090000000  0.5687900000000  0.5121470000000 1.0
C      1  0.5200250000000  0.5534210000000  0.5448000000000 1.0
C      1  0.5197840000000  0.5238180000000  0.5656740000000 1.0
C      1  0.5197090000000  0.4878530000000  0.5687900000000 1.0
C      1  0.5200250000000  0.4552000000000  0.5534210000000 1.0
C      1  0.5197840000000  0.4343260000000  0.5238180000000 1.0
C      1  0.5197090000000  0.4312100000000  0.4878530000000 1.0
C      1  0.5200250000000  0.4465790000000  0.4552000000000 1.0
C      1  0.5197840000000  0.4761820000000  0.4343260000000 1.0
C      1  0.5197090000000  0.5121470000000  0.4312100000000 1.0
C      1  0.4550030000000  0.4400830000000  0.4720080000000 1.0
C      1  0.4550250000000  0.4620980000000  0.4457630000000 1.0
C      1  0.4549780000000  0.4942300000000  0.4340560000000 1.0
C      1  0.4550030000000  0.5279920000000  0.4400830000000 1.0
C      1  0.4550250000000  0.5542370000000  0.4620980000000 1.0
C      1  0.4549780000000  0.5659440000000  0.4942300000000 1.0
C      1  0.4550030000000  0.5599170000000  0.5279920000000 1.0
C      1  0.4550250000000  0.5379020000000  0.5542370000000 1.0
C      1  0.4549780000000  0.5057700000000  0.5659440000000 1.0
C      1  0.4550030000000  0.4720080000000  0.5599170000000 1.0
C      1  0.4550250000000  0.4457630000000  0.5379020000000 1.0
C      1  0.4549780000000  0.4340560000000  0.5057700000000 1.0
C      1  0.4945360000000  0.5682800000000  0.5573070000000 1.0
C      1  0.4944590000000  0.5304450000000  0.5839010000000 1.0
C      1  0.4944520000000  0.4844840000000  0.5879060000000 1.0
C      1  0.4945360000000  0.4426930000000  0.5682800000000 1.0
C      1  0.4944590000000  0.4160990000000  0.5304450000000 1.0
C      1  0.4944520000000  0.4120940000000  0.4844840000000 1.0
C      1  0.4945360000000  0.4317200000000  0.4426930000000 1.0
C      1  0.4944590000000  0.4695550000000  0.4160990000000 1.0
C      1  0.4944520000000  0.5155160000000  0.4120940000000 1.0
C      1  0.4945360000000  0.5573070000000  0.4317200000000 1.0
C      1  0.4944590000000  0.5839010000000  0.4695550000000 1.0
C      1  0.4944520000000  0.5879060000000  0.5155160000000 1.0
END
