TITL C-3985244-725-729 3.02333100940784e-08 125000 -294.884514710249 0 0 60 (C5) n - 1
REM
REM in /home/nfs/bkarasulu/CARBON/AIRSS/Generating-Clusters/TERSOFF/Higher-Symm/Only-C60
REM
REM
REM
REM
REM
REM ./C.cell (28575a23ae977d3b5fae324c64b13b57)
REM
REM compiler GCC version 9.2.1 20190827 (Red Hat 9.2.1-1)
REM options -cpp -mtune=generic -march=x86-64 -g -O0 -fpre-include=/usr/include/finclude/math-vector-fortran.h
REM seed -1779169695 -1886591988 715523613 -196174548 926369302 -1192193535 -2002814404 -1491151660 1335678767 1841651207 -1100193867 470155279 1021232808 -213586879 57312216 -2057281937 -917796158 -1242947826 -352355092 -251896144 1795273113 -458115108 -1598210307 -987333322 -650289141 1780091952 2022665914 1735061273 1160611627 955879851 377044386 1332430035 -77149360
REM
CELL 1.54180   50.00000   50.00000   50.00000   90.00000   90.00000   90.00000
LATT -1
SFAC C  
C      1  0.5540480000000  0.5107470000000  0.5570560000000 1.0
C      1  0.5064810000000  0.5547230000000  0.5570560000000 1.0
C      1  0.4499580000000  0.5230750000000  0.5570560000000 1.0
C      1  0.4625910000000  0.4595370000000  0.5570560000000 1.0
C      1  0.5269220000000  0.4519180000000  0.5570560000000 1.0
C      1  0.5540480000000  0.5107470000000  0.4429440000000 1.0
C      1  0.5064810000000  0.5547230000000  0.4429440000000 1.0
C      1  0.4499580000000  0.5230750000000  0.4429440000000 1.0
C      1  0.4625910000000  0.4595370000000  0.4429440000000 1.0
C      1  0.5269220000000  0.4519180000000  0.4429440000000 1.0
C      1  0.4359650000000  0.5219020000000  0.5306700000000 1.0
C      1  0.4593820000000  0.4458670000000  0.5306700000000 1.0
C      1  0.5389320000000  0.4446420000000  0.5306700000000 1.0
C      1  0.5646790000000  0.5199200000000  0.5306700000000 1.0
C      1  0.5010420000000  0.5676690000000  0.5306700000000 1.0
C      1  0.4359650000000  0.5219020000000  0.4693300000000 1.0
C      1  0.4593820000000  0.4458670000000  0.4693300000000 1.0
C      1  0.5389320000000  0.4446420000000  0.4693300000000 1.0
C      1  0.5646790000000  0.5199200000000  0.4693300000000 1.0
C      1  0.5010420000000  0.5676690000000  0.4693300000000 1.0
C      1  0.4962760000000  0.4694700000000  0.4345660000000 1.0
C      1  0.5278850000000  0.4870240000000  0.4345660000000 1.0
C      1  0.5209580000000  0.5225100000000  0.4345650000000 1.0
C      1  0.4850680000000  0.5268880000000  0.4345650000000 1.0
C      1  0.4698130000000  0.4941070000000  0.4345660000000 1.0
C      1  0.4962760000000  0.4694700000000  0.5654340000000 1.0
C      1  0.5278850000000  0.4870240000000  0.5654340000000 1.0
C      1  0.5209580000000  0.5225100000000  0.5654350000000 1.0
C      1  0.4850680000000  0.5268880000000  0.5654350000000 1.0
C      1  0.4698130000000  0.4941070000000  0.5654340000000 1.0
C      1  0.4956910000000  0.4734750000000  0.4828070000000 1.0
C      1  0.5238950000000  0.4877050000000  0.4828070000000 1.0
C      1  0.5190770000000  0.5189270000000  0.4828070000000 1.0
C      1  0.4878940000000  0.5239920000000  0.4828070000000 1.0
C      1  0.4734410000000  0.4959010000000  0.4828070000000 1.0
C      1  0.4956910000000  0.4734750000000  0.5171930000000 1.0
C      1  0.5238950000000  0.4877050000000  0.5171930000000 1.0
C      1  0.5190770000000  0.5189270000000  0.5171930000000 1.0
C      1  0.4878940000000  0.5239920000000  0.5171930000000 1.0
C      1  0.4734410000000  0.4959010000000  0.5171930000000 1.0
C      1  0.5307830000000  0.4213520000000  0.4852940000000 1.0
C      1  0.5843120000000  0.5049730000000  0.4852940000000 1.0
C      1  0.5213250000000  0.5817210000000  0.4852940000000 1.0
C      1  0.4288680000000  0.5455350000000  0.4852940000000 1.0
C      1  0.4347130000000  0.4464200000000  0.4852940000000 1.0
C      1  0.5307830000000  0.4213520000000  0.5147060000000 1.0
C      1  0.5843120000000  0.5049730000000  0.5147060000000 1.0
C      1  0.5213250000000  0.5817210000000  0.5147060000000 1.0
C      1  0.4288680000000  0.5455350000000  0.5147060000000 1.0
C      1  0.4347130000000  0.4464200000000  0.5147060000000 1.0
C      1  0.4797570000000  0.5541810000000  0.5156250000000 1.0
C      1  0.4422150000000  0.4974910000000  0.5156250000000 1.0
C      1  0.4845300000000  0.4442680000000  0.5156250000000 1.0
C      1  0.5482240000000  0.4680650000000  0.5156250000000 1.0
C      1  0.5452740000000  0.5359950000000  0.5156250000000 1.0
C      1  0.4797570000000  0.5541810000000  0.4843750000000 1.0
C      1  0.4422150000000  0.4974910000000  0.4843750000000 1.0
C      1  0.4845300000000  0.4442680000000  0.4843750000000 1.0
C      1  0.5482240000000  0.4680650000000  0.4843750000000 1.0
C      1  0.5452740000000  0.5359950000000  0.4843750000000 1.0
END
