TITL C-3985259-1859-83 3.96327242598162e-07 125000 -315.224521664518 0 0 60 (C6h) n - 1
REM
REM in /home/nfs/bkarasulu/CARBON/AIRSS/Generating-Clusters/TERSOFF/Higher-Symm/Only-C60
REM
REM
REM
REM
REM
REM ./C.cell (28575a23ae977d3b5fae324c64b13b57)
REM
REM compiler GCC version 9.2.1 20190827 (Red Hat 9.2.1-1)
REM options -cpp -mtune=generic -march=x86-64 -g -O0 -fpre-include=/usr/include/finclude/math-vector-fortran.h
REM seed -896212909 1986081322 666065584 -356973815 764842442 -964391247 694864529 1801391546 -1897353303 -1370035022 -1828058316 1069924710 -1060389503 -830769586 -896493149 1556174523 -1448754228 -1453060077 -1321321021 -2062269403 -318771077 -1864290594 2094479328 -239269037 -1371131824 808090209 1947620738 1247659478 -452678857 1703333916 1641637241 -1961618176 458303865
REM
CELL 1.54180   50.00000   50.00000   50.00000   90.00000   90.00000   90.00000
LATT -1
SFAC C  
C      1  0.5670460000000  0.5128910000000  0.5159550000000 1.0
C      1  0.5446870000000  0.4483820000000  0.5159550000000 1.0
C      1  0.4776410000000  0.4354910000000  0.5159550000000 1.0
C      1  0.4329540000000  0.4871090000000  0.5159550000000 1.0
C      1  0.4553130000000  0.5516180000000  0.5159550000000 1.0
C      1  0.5223590000000  0.5645090000000  0.5159550000000 1.0
C      1  0.5670460000000  0.5128910000000  0.4840450000000 1.0
C      1  0.5446870000000  0.4483820000000  0.4840450000000 1.0
C      1  0.4776410000000  0.4354910000000  0.4840450000000 1.0
C      1  0.4329540000000  0.4871090000000  0.4840450000000 1.0
C      1  0.4553130000000  0.5516180000000  0.4840450000000 1.0
C      1  0.5223590000000  0.5645090000000  0.4840450000000 1.0
C      1  0.4747640000000  0.4848000000000  0.4234520000000 1.0
C      1  0.4742190000000  0.5142550000000  0.4234520000000 1.0
C      1  0.4994550000000  0.5294550000000  0.4234520000000 1.0
C      1  0.5252360000000  0.5152000000000  0.4234520000000 1.0
C      1  0.5257810000000  0.4857450000000  0.4234520000000 1.0
C      1  0.5005450000000  0.4705450000000  0.4234520000000 1.0
C      1  0.4747640000000  0.4848000000000  0.5765480000000 1.0
C      1  0.4742190000000  0.5142550000000  0.5765480000000 1.0
C      1  0.4994550000000  0.5294550000000  0.5765480000000 1.0
C      1  0.5252360000000  0.5152000000000  0.5765480000000 1.0
C      1  0.5257810000000  0.4857450000000  0.5765480000000 1.0
C      1  0.5005450000000  0.4705450000000  0.5765480000000 1.0
C      1  0.4513880000000  0.5268120000000  0.5631110000000 1.0
C      1  0.4989140000000  0.5555060000000  0.5631110000000 1.0
C      1  0.5475260000000  0.5286930000000  0.5631110000000 1.0
C      1  0.5486120000000  0.4731880000000  0.5631110000000 1.0
C      1  0.5010860000000  0.4444940000000  0.5631110000000 1.0
C      1  0.4524740000000  0.4713070000000  0.5631110000000 1.0
C      1  0.4513880000000  0.5268120000000  0.4368890000000 1.0
C      1  0.4989140000000  0.5555060000000  0.4368890000000 1.0
C      1  0.5475260000000  0.5286930000000  0.4368890000000 1.0
C      1  0.5486120000000  0.4731880000000  0.4368890000000 1.0
C      1  0.5010860000000  0.4444940000000  0.4368890000000 1.0
C      1  0.4524740000000  0.4713070000000  0.4368890000000 1.0
C      1  0.4478180000000  0.5266270000000  0.4657980000000 1.0
C      1  0.4969680000000  0.5585040000000  0.4657980000000 1.0
C      1  0.5491500000000  0.5318780000000  0.4657980000000 1.0
C      1  0.5521820000000  0.4733730000000  0.4657980000000 1.0
C      1  0.5030320000000  0.4414960000000  0.4657980000000 1.0
C      1  0.4508500000000  0.4681220000000  0.4657980000000 1.0
C      1  0.4478180000000  0.5266270000000  0.5342020000000 1.0
C      1  0.4969680000000  0.5585040000000  0.5342020000000 1.0
C      1  0.5491500000000  0.5318780000000  0.5342020000000 1.0
C      1  0.5521820000000  0.4733730000000  0.5342020000000 1.0
C      1  0.5030320000000  0.4414960000000  0.5342020000000 1.0
C      1  0.4508500000000  0.4681220000000  0.5342020000000 1.0
C      1  0.4641040000000  0.5041180000000  0.5172010000000 1.0
C      1  0.4856190000000  0.5331460000000  0.5172010000000 1.0
C      1  0.5215140000000  0.5290270000000  0.5172010000000 1.0
C      1  0.5358960000000  0.4958820000000  0.5172010000000 1.0
C      1  0.5143810000000  0.4668540000000  0.5172010000000 1.0
C      1  0.4784860000000  0.4709730000000  0.5172010000000 1.0
C      1  0.4641040000000  0.5041180000000  0.4827990000000 1.0
C      1  0.4856190000000  0.5331460000000  0.4827990000000 1.0
C      1  0.5215140000000  0.5290270000000  0.4827990000000 1.0
C      1  0.5358960000000  0.4958820000000  0.4827990000000 1.0
C      1  0.5143810000000  0.4668540000000  0.4827990000000 1.0
C      1  0.4784860000000  0.4709730000000  0.4827990000000 1.0
END
