TITL C-3985251-913-275 -0.00890993482038574 125000 -281.750214329946 0 0 60 (D2d) n - 1
REM
REM in /home/nfs/bkarasulu/CARBON/AIRSS/Generating-Clusters/TERSOFF/Higher-Symm/Only-C60
REM
REM
REM
REM
REM
REM ./C.cell (28575a23ae977d3b5fae324c64b13b57)
REM
REM compiler GCC version 9.2.1 20190827 (Red Hat 9.2.1-1)
REM options -cpp -mtune=generic -march=x86-64 -g -O0 -fpre-include=/usr/include/finclude/math-vector-fortran.h
REM seed 630467227 -1772086510 2074676482 1624237325 -1232632385 -1949720018 1808041956 -256007354 578691966 587514005 883771593 -872715981 1433075395 289461213 1295428233 -451172724 1893758579 -814606392 1503117807 -644712164 115402205 -459988851 77288593 501697203 -656303676 639916558 1492794483 -33698626 2090318454 523871249 -325826823 -647857191 -222404583
REM
CELL 1.54180   50.00000   50.00000   50.00000   90.00000   90.00000   90.00000
LATT -1
SFAC C  
C      1  0.5288360000000  0.4848950000000  0.5863300000000 1.0
C      1  0.5288360000000  0.5151050000000  0.4136700000000 1.0
C      1  0.4711640000000  0.5151050000000  0.5863300000000 1.0
C      1  0.4711640000000  0.4848950000000  0.4136700000000 1.0
C      1  0.5288360000000  0.5863300000000  0.4848950000000 1.0
C      1  0.5288360000000  0.4136700000000  0.5151050000000 1.0
C      1  0.4711640000000  0.5863300000000  0.5151050000000 1.0
C      1  0.4711640000000  0.4136700000000  0.4848950000000 1.0
C      1  0.5244390000000  0.5540670000000  0.5334310000000 1.0
C      1  0.5244390000000  0.4459330000000  0.4665690000000 1.0
C      1  0.4755610000000  0.4459330000000  0.5334310000000 1.0
C      1  0.4755610000000  0.5540670000000  0.4665690000000 1.0
C      1  0.5244390000000  0.5334310000000  0.5540670000000 1.0
C      1  0.5244390000000  0.4665690000000  0.4459330000000 1.0
C      1  0.4755610000000  0.5334310000000  0.4459330000000 1.0
C      1  0.4755610000000  0.4665690000000  0.5540670000000 1.0
C      1  0.5350230000000  0.4668940000000  0.5585550000000 1.0
C      1  0.5350230000000  0.5331060000000  0.4414450000000 1.0
C      1  0.4649770000000  0.5331060000000  0.5585550000000 1.0
C      1  0.4649770000000  0.4668940000000  0.4414450000000 1.0
C      1  0.5350230000000  0.5585550000000  0.4668940000000 1.0
C      1  0.5350230000000  0.4414450000000  0.5331060000000 1.0
C      1  0.4649770000000  0.5585550000000  0.5331060000000 1.0
C      1  0.4649770000000  0.4414450000000  0.4668940000000 1.0
C      1  0.4529300000000  0.4643780000000  0.4884890000000 1.0
C      1  0.4529300000000  0.5356220000000  0.5115110000000 1.0
C      1  0.5470700000000  0.5356220000000  0.4884890000000 1.0
C      1  0.5470700000000  0.4643780000000  0.5115110000000 1.0
C      1  0.4529300000000  0.4884890000000  0.4643780000000 1.0
C      1  0.4529300000000  0.5115110000000  0.5356220000000 1.0
C      1  0.5470700000000  0.4884890000000  0.5356220000000 1.0
C      1  0.5470700000000  0.5115110000000  0.4643780000000 1.0
C      1  0.4494140000000  0.4814480000000  0.5420870000000 1.0
C      1  0.4494140000000  0.5185520000000  0.4579130000000 1.0
C      1  0.5505860000000  0.5185520000000  0.5420870000000 1.0
C      1  0.5505860000000  0.4814480000000  0.4579130000000 1.0
C      1  0.4494140000000  0.5420870000000  0.4814480000000 1.0
C      1  0.4494140000000  0.4579130000000  0.5185520000000 1.0
C      1  0.5505860000000  0.5420870000000  0.5185520000000 1.0
C      1  0.5505860000000  0.4579130000000  0.4814480000000 1.0
C      1  0.4967260000000  0.4463720000000  0.4793390000000 1.0
C      1  0.4967260000000  0.5536280000000  0.5206610000000 1.0
C      1  0.5032740000000  0.5536280000000  0.4793390000000 1.0
C      1  0.5032740000000  0.4463720000000  0.5206610000000 1.0
C      1  0.4967260000000  0.4793390000000  0.4463720000000 1.0
C      1  0.4967260000000  0.5206610000000  0.5536280000000 1.0
C      1  0.5032740000000  0.4793390000000  0.5536280000000 1.0
C      1  0.5032740000000  0.5206610000000  0.4463720000000 1.0
C      1  0.4832800000000  0.4982440000000  0.4756640000000 1.0
C      1  0.4832800000000  0.5017560000000  0.5243360000000 1.0
C      1  0.5167200000000  0.5017560000000  0.4756640000000 1.0
C      1  0.5167200000000  0.4982440000000  0.5243360000000 1.0
C      1  0.4832800000000  0.4756640000000  0.4982440000000 1.0
C      1  0.4832800000000  0.5243360000000  0.5017560000000 1.0
C      1  0.5167200000000  0.4756640000000  0.5017560000000 1.0
C      1  0.5167200000000  0.5243360000000  0.4982440000000 1.0
C      1  0.5000000000000  0.5000000000000  0.4198800000000 1.0
C      1  0.5000000000000  0.5000000000000  0.5801200000000 1.0
C      1  0.5000000000000  0.4198800000000  0.5000000000000 1.0
C      1  0.5000000000000  0.5801200000000  0.5000000000000 1.0
END
