TITL C-3985254-1270-1868 -0.000120467038727869 125000 -333.965909263171 0 0 60 (D4) n - 1
REM
REM in /home/nfs/bkarasulu/CARBON/AIRSS/Generating-Clusters/TERSOFF/Higher-Symm/Only-C60
REM
REM
REM
REM
REM
REM ./C.cell (28575a23ae977d3b5fae324c64b13b57)
REM
REM compiler GCC version 9.2.1 20190827 (Red Hat 9.2.1-1)
REM options -cpp -mtune=generic -march=x86-64 -g -O0 -fpre-include=/usr/include/finclude/math-vector-fortran.h
REM seed 1348224690 2111225157 -126909236 -415408414 983193422 649734557 1322015674 1972227889 378468440 -431043766 -1758866315 -1312476509 1512359209 1254358454 -644001971 -1806329417 269827868 1102586493 -470211759 -1915847833 -1191229749 -1208653254 -105868020 703303580 -1089766802 1197652560 1380599345 -1901716594 -735266055 -1829219177 -1699695779 2057123980 -97856995
REM
CELL 1.54180   50.00000   50.00000   50.00000   90.00000   90.00000   90.00000
LATT -1
SFAC C  
C      1  0.5423260000000  0.4916030000000  0.5263730000000 1.0
C      1  0.4736330000000  0.4915180000000  0.5423030000000 1.0
C      1  0.4576740000000  0.4916030000000  0.4736270000000 1.0
C      1  0.5263670000000  0.4915180000000  0.4576970000000 1.0
C      1  0.4576850000000  0.5094070000000  0.5263560000000 1.0
C      1  0.5263780000000  0.5095000000000  0.5423210000000 1.0
C      1  0.5423150000000  0.5094070000000  0.4736440000000 1.0
C      1  0.4736220000000  0.5095000000000  0.4576790000000 1.0
C      1  0.5370770000000  0.4428090000000  0.4652940000000 1.0
C      1  0.5345200000000  0.4429600000000  0.5369010000000 1.0
C      1  0.4629230000000  0.4428090000000  0.5347060000000 1.0
C      1  0.4654800000000  0.4429600000000  0.4630990000000 1.0
C      1  0.4627940000000  0.5582610000000  0.4651810000000 1.0
C      1  0.4656270000000  0.5579810000000  0.5367400000000 1.0
C      1  0.5372060000000  0.5582610000000  0.5348190000000 1.0
C      1  0.5343730000000  0.5579810000000  0.4632600000000 1.0
C      1  0.5391770000000  0.5335730000000  0.5509440000000 1.0
C      1  0.4493290000000  0.5335650000000  0.5390490000000 1.0
C      1  0.4608230000000  0.5335730000000  0.4490560000000 1.0
C      1  0.5506710000000  0.5335650000000  0.4609510000000 1.0
C      1  0.4608650000000  0.4674280000000  0.5508680000000 1.0
C      1  0.5507600000000  0.4674650000000  0.5391010000000 1.0
C      1  0.5391350000000  0.4674280000000  0.4491320000000 1.0
C      1  0.4492400000000  0.4674650000000  0.4608990000000 1.0
C      1  0.5074990000000  0.5276180000000  0.4290970000000 1.0
C      1  0.5710080000000  0.5276020000000  0.5075270000000 1.0
C      1  0.4925010000000  0.5276180000000  0.5709030000000 1.0
C      1  0.4289910000000  0.5276020000000  0.4924730000000 1.0
C      1  0.4924930000000  0.4734060000000  0.4290770000000 1.0
C      1  0.4290510000000  0.4734040000000  0.5075130000000 1.0
C      1  0.5075070000000  0.4734060000000  0.5709230000000 1.0
C      1  0.5709490000000  0.4734040000000  0.4924870000000 1.0
C      1  0.5139770000000  0.5704750000000  0.5511600000000 1.0
C      1  0.4489750000000  0.5704000000000  0.5138900000000 1.0
C      1  0.4860230000000  0.5704750000000  0.4488400000000 1.0
C      1  0.5510250000000  0.5704000000000  0.4861100000000 1.0
C      1  0.4860650000000  0.4305590000000  0.5511140000000 1.0
C      1  0.5510340000000  0.4305990000000  0.5139170000000 1.0
C      1  0.5139350000000  0.4305590000000  0.4488860000000 1.0
C      1  0.4489660000000  0.4305990000000  0.4860830000000 1.0
C      1  0.4427550000000  0.5548920000000  0.4895210000000 1.0
C      1  0.5103850000000  0.5548430000000  0.4429390000000 1.0
C      1  0.5572440000000  0.5548910000000  0.5104790000000 1.0
C      1  0.4896150000000  0.5548430000000  0.5570610000000 1.0
C      1  0.5571240000000  0.4461580000000  0.4895630000000 1.0
C      1  0.4895850000000  0.4461720000000  0.4429030000000 1.0
C      1  0.4428760000000  0.4461580000000  0.5104370000000 1.0
C      1  0.5104150000000  0.4461720000000  0.5570970000000 1.0
C      1  0.5149050000000  0.4552900000000  0.5161410000000 1.0
C      1  0.4835520000000  0.4554970000000  0.5151850000000 1.0
C      1  0.4850950000000  0.4552900000000  0.4838590000000 1.0
C      1  0.5164480000000  0.4554970000000  0.4848150000000 1.0
C      1  0.4852900000000  0.5458690000000  0.5159050000000 1.0
C      1  0.5166320000000  0.5453280000000  0.5153990000000 1.0
C      1  0.5147100000000  0.5458690000000  0.4840950000000 1.0
C      1  0.4833700000000  0.5453280000000  0.4846010000000 1.0
C      1  0.5562000000000  0.5005120000000  0.5000050000000 1.0
C      1  0.4438000000000  0.5005120000000  0.4999950000000 1.0
C      1  0.4999990000000  0.5005080000000  0.4438150000000 1.0
C      1  0.5000010000000  0.5005080000000  0.5561850000000 1.0
END
