TITL C-3985253-1688-162 -0.00274601316572228 125000 -283.561361943312 0 0 60 (C5) n - 1
REM
REM in /home/nfs/bkarasulu/CARBON/AIRSS/Generating-Clusters/TERSOFF/Higher-Symm/Only-C60
REM
REM
REM
REM
REM
REM ./C.cell (28575a23ae977d3b5fae324c64b13b57)
REM
REM compiler GCC version 9.2.1 20190827 (Red Hat 9.2.1-1)
REM options -cpp -mtune=generic -march=x86-64 -g -O0 -fpre-include=/usr/include/finclude/math-vector-fortran.h
REM seed 99644614 808324913 -1855419513 1246576865 1265299620 2138658130 -1644460191 -1305185793 -946310729 -1266029741 -278980570 -15979182 -238771909 590833621 -544371926 1599463664 -1318087455 1351246771 1434154455 -977349967 1710036151 774282420 918054794 -1347229469 -1524618110 -916201376 -1323525106 1673398026 -515838582 583963689 563165851 -1822625401 2077181457
REM
CELL 1.54180   50.00000   50.00000   50.00000   90.00000   90.00000   90.00000
LATT -1
SFAC C  
C      1  0.4703180000000  0.5411390000000  0.4968320000000 1.0
C      1  0.4518460000000  0.4844620000000  0.4967410000000 1.0
C      1  0.4998710000000  0.4494840000000  0.4966800000000 1.0
C      1  0.5480970000000  0.4841560000000  0.4966720000000 1.0
C      1  0.5300870000000  0.5409560000000  0.4967880000000 1.0
C      1  0.4703180000000  0.4588610000000  0.4968320000000 1.0
C      1  0.4518460000000  0.5155380000000  0.4967410000000 1.0
C      1  0.4998710000000  0.5505160000000  0.4966800000000 1.0
C      1  0.5480970000000  0.5158440000000  0.4966720000000 1.0
C      1  0.5300870000000  0.4590440000000  0.4967880000000 1.0
C      1  0.5654900000000  0.4730330000000  0.5235290000000 1.0
C      1  0.5459460000000  0.5541220000000  0.5236220000000 1.0
C      1  0.4627230000000  0.5603950000000  0.5236180000000 1.0
C      1  0.4311350000000  0.4832290000000  0.5235280000000 1.0
C      1  0.4945930000000  0.4294750000000  0.5234840000000 1.0
C      1  0.5654900000000  0.5269670000000  0.5235290000000 1.0
C      1  0.5459460000000  0.4458780000000  0.5236220000000 1.0
C      1  0.4627230000000  0.4396050000000  0.5236180000000 1.0
C      1  0.4311350000000  0.5167710000000  0.5235280000000 1.0
C      1  0.4945930000000  0.5705250000000  0.5234840000000 1.0
C      1  0.5298430000000  0.4577060000000  0.5492130000000 1.0
C      1  0.5493070000000  0.5152600000000  0.5491570000000 1.0
C      1  0.5007340000000  0.5515630000000  0.5491980000000 1.0
C      1  0.4510900000000  0.5166550000000  0.5492340000000 1.0
C      1  0.4690050000000  0.4586030000000  0.5492760000000 1.0
C      1  0.5298430000000  0.5422940000000  0.5492130000000 1.0
C      1  0.5493070000000  0.4847400000000  0.5491570000000 1.0
C      1  0.5007340000000  0.4484370000000  0.5491980000000 1.0
C      1  0.4510900000000  0.4833450000000  0.5492340000000 1.0
C      1  0.4690050000000  0.5413970000000  0.5492760000000 1.0
C      1  0.4509880000000  0.4419800000000  0.4736410000000 1.0
C      1  0.5400420000000  0.4353790000000  0.4736450000000 1.0
C      1  0.5737580000000  0.5180400000000  0.4735400000000 1.0
C      1  0.5056280000000  0.5756070000000  0.4735220000000 1.0
C      1  0.4297920000000  0.5287220000000  0.4735780000000 1.0
C      1  0.4509880000000  0.5580200000000  0.4736410000000 1.0
C      1  0.5400420000000  0.5646210000000  0.4736450000000 1.0
C      1  0.5737580000000  0.4819600000000  0.4735400000000 1.0
C      1  0.5056280000000  0.4243930000000  0.4735220000000 1.0
C      1  0.4297920000000  0.4712780000000  0.4735780000000 1.0
C      1  0.5126400000000  0.4103520000000  0.5046940000000 1.0
C      1  0.5892320000000  0.4843150000000  0.5047520000000 1.0
C      1  0.5424770000000  0.5802670000000  0.5047950000000 1.0
C      1  0.4369010000000  0.5651910000000  0.5047850000000 1.0
C      1  0.4185300000000  0.4602360000000  0.5047480000000 1.0
C      1  0.5126400000000  0.5896480000000  0.5046940000000 1.0
C      1  0.5892320000000  0.5156850000000  0.5047520000000 1.0
C      1  0.5424770000000  0.4197330000000  0.5047950000000 1.0
C      1  0.4369010000000  0.4348090000000  0.5047850000000 1.0
C      1  0.4185300000000  0.5397640000000  0.5047480000000 1.0
C      1  0.5480780000000  0.5160820000000  0.4521370000000 1.0
C      1  0.4995540000000  0.5506040000000  0.4520080000000 1.0
C      1  0.4516610000000  0.5152730000000  0.4520650000000 1.0
C      1  0.4704480000000  0.4587100000000  0.4522270000000 1.0
C      1  0.5301870000000  0.4591180000000  0.4522910000000 1.0
C      1  0.5480780000000  0.4839180000000  0.4521370000000 1.0
C      1  0.4995540000000  0.4493960000000  0.4520080000000 1.0
C      1  0.4516610000000  0.4847270000000  0.4520650000000 1.0
C      1  0.4704480000000  0.5412900000000  0.4522270000000 1.0
C      1  0.5301870000000  0.5408820000000  0.4522910000000 1.0
END
