TITL C-3985259-1859-1280 0.000203922423764718 125000 -316.089182031144 0 0 60 (C1) n - 1
REM
REM in /home/nfs/bkarasulu/CARBON/AIRSS/Generating-Clusters/TERSOFF/Higher-Symm/Only-C60
REM
REM
REM
REM
REM
REM ./C.cell (28575a23ae977d3b5fae324c64b13b57)
REM
REM compiler GCC version 9.2.1 20190827 (Red Hat 9.2.1-1)
REM options -cpp -mtune=generic -march=x86-64 -g -O0 -fpre-include=/usr/include/finclude/math-vector-fortran.h
REM seed -1929193460 197481978 221853548 526240085 -1715988327 -1848187803 -1018365158 -2034365793 -607512884 705579117 -2130419158 -475466646 -209959880 1821029798 -1685074333 -571949424 681220898 535082938 -1030000321 -2021993394 -1983395323 -2084436393 1361259458 -810438437 1918306323 -1257014039 607714289 1572076517 189247979 -1569327692 -2134701423 105675927 22581975
REM
CELL 1.54180   50.00000   50.00000   50.00000   90.00000   90.00000   90.00000
LATT -1
SFAC C  
C      1  0.4911810000000  0.4824880000000  0.4463970000000 1.0
C      1  0.5097530000000  0.4643420000000  0.4329190000000 1.0
C      1  0.4327160000000  0.4698940000000  0.4853860000000 1.0
C      1  0.4512360000000  0.5469260000000  0.4985090000000 1.0
C      1  0.5103830000000  0.5838370000000  0.4995550000000 1.0
C      1  0.5405030000000  0.5021060000000  0.5351460000000 1.0
C      1  0.5185910000000  0.5574410000000  0.4549210000000 1.0
C      1  0.5008560000000  0.4973440000000  0.4928490000000 1.0
C      1  0.5457630000000  0.4419570000000  0.4745990000000 1.0
C      1  0.4621380000000  0.4510000000000  0.5392540000000 1.0
C      1  0.5090830000000  0.4610580000000  0.5233770000000 1.0
C      1  0.4864360000000  0.4838930000000  0.5298550000000 1.0
C      1  0.4498710000000  0.4935690000000  0.4705250000000 1.0
C      1  0.4604620000000  0.5736070000000  0.5053800000000 1.0
C      1  0.4687900000000  0.4433650000000  0.4570470000000 1.0
C      1  0.4794410000000  0.5611590000000  0.5493340000000 1.0
C      1  0.5155820000000  0.4578750000000  0.5547340000000 1.0
C      1  0.4662710000000  0.4921510000000  0.5662270000000 1.0
C      1  0.5046910000000  0.5248910000000  0.4785220000000 1.0
C      1  0.4362740000000  0.5313390000000  0.5226170000000 1.0
C      1  0.5574320000000  0.4564110000000  0.5236520000000 1.0
C      1  0.5659700000000  0.5088030000000  0.5172900000000 1.0
C      1  0.5156230000000  0.4361080000000  0.4777410000000 1.0
C      1  0.5413590000000  0.5099710000000  0.4398080000000 1.0
C      1  0.4775090000000  0.5243130000000  0.5236910000000 1.0
C      1  0.4477110000000  0.4798790000000  0.5455350000000 1.0
C      1  0.4716640000000  0.4418980000000  0.5110220000000 1.0
C      1  0.4714860000000  0.5345380000000  0.4779050000000 1.0
C      1  0.5021020000000  0.5354670000000  0.5590900000000 1.0
C      1  0.5578520000000  0.4644030000000  0.4940490000000 1.0
C      1  0.4715230000000  0.5204970000000  0.5561070000000 1.0
C      1  0.5375110000000  0.5170220000000  0.4814230000000 1.0
C      1  0.5532290000000  0.4513540000000  0.4475160000000 1.0
C      1  0.5230870000000  0.5379550000000  0.5183480000000 1.0
C      1  0.4986750000000  0.4416480000000  0.4526690000000 1.0
C      1  0.4192820000000  0.4820270000000  0.5077160000000 1.0
C      1  0.5274680000000  0.5659510000000  0.4824320000000 1.0
C      1  0.5624630000000  0.5495710000000  0.5267760000000 1.0
C      1  0.4959610000000  0.5438490000000  0.5149040000000 1.0
C      1  0.4623870000000  0.5180430000000  0.4554240000000 1.0
C      1  0.4878390000000  0.4763320000000  0.4747470000000 1.0
C      1  0.5369930000000  0.4758760000000  0.4391170000000 1.0
C      1  0.4850630000000  0.4613710000000  0.5650150000000 1.0
C      1  0.5237180000000  0.4857940000000  0.5109280000000 1.0
C      1  0.5651750000000  0.5131270000000  0.4631420000000 1.0
C      1  0.5085090000000  0.5039160000000  0.5455390000000 1.0
C      1  0.5438060000000  0.5448770000000  0.4971710000000 1.0
C      1  0.4492420000000  0.5430520000000  0.5490860000000 1.0
C      1  0.5372650000000  0.4829520000000  0.4715950000000 1.0
C      1  0.4874930000000  0.5108170000000  0.4390720000000 1.0
C      1  0.4517010000000  0.4685640000000  0.4479890000000 1.0
C      1  0.5433350000000  0.4716140000000  0.5452170000000 1.0
C      1  0.4664560000000  0.4983630000000  0.5033650000000 1.0
C      1  0.5022430000000  0.4380990000000  0.5059930000000 1.0
C      1  0.5362320000000  0.5353330000000  0.5470670000000 1.0
C      1  0.4383410000000  0.4983590000000  0.5226880000000 1.0
C      1  0.5150110000000  0.5267190000000  0.4458640000000 1.0
C      1  0.5720570000000  0.4953270000000  0.4913960000000 1.0
C      1  0.4871660000000  0.5737270000000  0.5181410000000 1.0
C      1  0.4620410000000  0.4558320000000  0.4866160000000 1.0
END
