TITL C-3985247-764-589 -0.00116360787740765 125000 -327.705289004458 0 0 60 (C1) n - 1
REM
REM in /home/nfs/bkarasulu/CARBON/AIRSS/Generating-Clusters/TERSOFF/Higher-Symm/Only-C60
REM
REM
REM
REM
REM
REM ./C.cell (28575a23ae977d3b5fae324c64b13b57)
REM
REM compiler GCC version 9.2.1 20190827 (Red Hat 9.2.1-1)
REM options -cpp -mtune=generic -march=x86-64 -g -O0 -fpre-include=/usr/include/finclude/math-vector-fortran.h
REM seed 2007073688 1807790695 1020363139 2060681762 493454217 -246403589 1317112513 1322869498 -27588170 1101162289 829702900 198020509 1942699063 48249516 -480684835 -1267950999 -1747250997 -1408462343 -1222735766 545391067 2077306644 2088649509 44670773 -280722448 1237130756 1916687436 98188813 179381702 480519492 14176289 2038847265 -1691976877 1652376665
REM
CELL 1.54180   50.00000   50.00000   50.00000   90.00000   90.00000   90.00000
LATT -1
SFAC C  
C      1  0.5472740000000  0.5486230000000  0.5297150000000 1.0
C      1  0.5462860000000  0.5027720000000  0.4399270000000 1.0
C      1  0.5413130000000  0.4462790000000  0.5285440000000 1.0
C      1  0.4623990000000  0.5080430000000  0.4449650000000 1.0
C      1  0.4614870000000  0.4493220000000  0.5212370000000 1.0
C      1  0.4613560000000  0.5436160000000  0.5345220000000 1.0
C      1  0.5128640000000  0.5404260000000  0.5341680000000 1.0
C      1  0.5147310000000  0.5072260000000  0.4491670000000 1.0
C      1  0.5117330000000  0.4562290000000  0.5189240000000 1.0
C      1  0.4219830000000  0.5281440000000  0.5088000000000 1.0
C      1  0.4224970000000  0.4936600000000  0.4708510000000 1.0
C      1  0.4217060000000  0.4780890000000  0.5197260000000 1.0
C      1  0.5572190000000  0.4979880000000  0.4826040000000 1.0
C      1  0.5543860000000  0.4827290000000  0.5124890000000 1.0
C      1  0.5428090000000  0.5243500000000  0.4957360000000 1.0
C      1  0.4566210000000  0.4605020000000  0.4905360000000 1.0
C      1  0.4557110000000  0.5109860000000  0.5397040000000 1.0
C      1  0.4566250000000  0.5282280000000  0.4710640000000 1.0
C      1  0.5644610000000  0.4567210000000  0.4794260000000 1.0
C      1  0.5652510000000  0.4995610000000  0.5493950000000 1.0
C      1  0.5660580000000  0.5463570000000  0.4685960000000 1.0
C      1  0.5467720000000  0.5343580000000  0.4502440000000 1.0
C      1  0.5449330000000  0.4422820000000  0.4960100000000 1.0
C      1  0.5469210000000  0.5219700000000  0.5503160000000 1.0
C      1  0.4802750000000  0.4806460000000  0.4923960000000 1.0
C      1  0.4802300000000  0.5025550000000  0.5213170000000 1.0
C      1  0.4803600000000  0.5161520000000  0.4879220000000 1.0
C      1  0.4901310000000  0.4725750000000  0.5595800000000 1.0
C      1  0.4915380000000  0.5631150000000  0.4952330000000 1.0
C      1  0.4916530000000  0.4637250000000  0.4484480000000 1.0
C      1  0.5155590000000  0.5367790000000  0.4566280000000 1.0
C      1  0.5140590000000  0.4440800000000  0.4898950000000 1.0
C      1  0.5161190000000  0.5176630000000  0.5554760000000 1.0
C      1  0.5033380000000  0.4685320000000  0.4763020000000 1.0
C      1  0.5003260000000  0.4960140000000  0.5431850000000 1.0
C      1  0.5015900000000  0.5370190000000  0.4827290000000 1.0
C      1  0.5214800000000  0.5172720000000  0.5138200000000 1.0
C      1  0.5242490000000  0.4909710000000  0.4752610000000 1.0
C      1  0.5227030000000  0.4856830000000  0.5093640000000 1.0
C      1  0.5406530000000  0.5810580000000  0.4924360000000 1.0
C      1  0.5421580000000  0.4538650000000  0.4355120000000 1.0
C      1  0.5407840000000  0.4645690000000  0.5738650000000 1.0
C      1  0.4670190000000  0.4502040000000  0.4627270000000 1.0
C      1  0.4639060000000  0.4917340000000  0.5636370000000 1.0
C      1  0.4656850000000  0.5579060000000  0.4766550000000 1.0
C      1  0.4363840000000  0.5514130000000  0.5201410000000 1.0
C      1  0.4371670000000  0.4919660000000  0.4451700000000 1.0
C      1  0.4360600000000  0.4569420000000  0.5347080000000 1.0
C      1  0.5552630000000  0.5540940000000  0.4974430000000 1.0
C      1  0.5569030000000  0.4754340000000  0.4540270000000 1.0
C      1  0.5558660000000  0.4693310000000  0.5459340000000 1.0
C      1  0.4280970000000  0.5056730000000  0.5276290000000 1.0
C      1  0.4287510000000  0.5211070000000  0.4810970000000 1.0
C      1  0.4286800000000  0.4730440000000  0.4908960000000 1.0
C      1  0.5113300000000  0.5845670000000  0.4907800000000 1.0
C      1  0.5126260000000  0.4492670000000  0.4328790000000 1.0
C      1  0.5111140000000  0.4649810000000  0.5794050000000 1.0
C      1  0.4887870000000  0.4938950000000  0.4411110000000 1.0
C      1  0.4876970000000  0.4540180000000  0.5350390000000 1.0
C      1  0.4880670000000  0.5536900000000  0.5246850000000 1.0
END
