TITL C-3985244-725-62 2.22919478903647e-07 125000 -336.793780399508 0 0 60 (C4h) n - 1
REM
REM in /home/nfs/bkarasulu/CARBON/AIRSS/Generating-Clusters/TERSOFF/Higher-Symm/Only-C60
REM
REM
REM
REM
REM
REM ./C.cell (28575a23ae977d3b5fae324c64b13b57)
REM
REM compiler GCC version 9.2.1 20190827 (Red Hat 9.2.1-1)
REM options -cpp -mtune=generic -march=x86-64 -g -O0 -fpre-include=/usr/include/finclude/math-vector-fortran.h
REM seed 1615459145 -1733204286 1496101147 -281002361 -2059910810 1992110147 -2034689140 -724496544 1664315250 -1987355269 2086160636 -1207679147 1573452491 -2098044611 -925046322 159240696 -752908942 -2074926804 -443322280 -399854586 -475269922 1720240338 -1342036830 -370255034 2099074477 -1352083262 42915349 839189642 30636083 -532257783 1698175558 -160229833 -12787937
REM
CELL 1.54180   50.00000   50.00000   50.00000   90.00000   90.00000   90.00000
LATT -1
SFAC C  
C      1  0.5182020000000  0.5149310000000  0.4348830000000 1.0
C      1  0.5149310000000  0.4817980000000  0.4348830000000 1.0
C      1  0.4817980000000  0.4850690000000  0.4348830000000 1.0
C      1  0.4850690000000  0.5182020000000  0.4348830000000 1.0
C      1  0.5182020000000  0.5149310000000  0.5632700000000 1.0
C      1  0.5149310000000  0.4817980000000  0.5632700000000 1.0
C      1  0.4817980000000  0.4850690000000  0.5632700000000 1.0
C      1  0.4850690000000  0.5182020000000  0.5632700000000 1.0
C      1  0.5336030000000  0.4591060000000  0.4422760000000 1.0
C      1  0.4591060000000  0.4663970000000  0.4422760000000 1.0
C      1  0.4663970000000  0.5408940000000  0.4422760000000 1.0
C      1  0.5408940000000  0.5336030000000  0.4422760000000 1.0
C      1  0.5336020000000  0.4591060000000  0.5558770000000 1.0
C      1  0.4591060000000  0.4663980000000  0.5558770000000 1.0
C      1  0.4663980000000  0.5408940000000  0.5558770000000 1.0
C      1  0.5408940000000  0.5336020000000  0.5558770000000 1.0
C      1  0.5450740000000  0.5458790000000  0.5281300000000 1.0
C      1  0.5458790000000  0.4549260000000  0.5281300000000 1.0
C      1  0.4549260000000  0.4541210000000  0.5281300000000 1.0
C      1  0.4541210000000  0.5450740000000  0.5281300000000 1.0
C      1  0.5450740000000  0.5458800000000  0.4700230000000 1.0
C      1  0.5458800000000  0.4549260000000  0.4700230000000 1.0
C      1  0.4549260000000  0.4541200000000  0.4700230000000 1.0
C      1  0.4541200000000  0.5450740000000  0.4700230000000 1.0
C      1  0.5251240000000  0.5269760000000  0.5142140000000 1.0
C      1  0.5269760000000  0.4748760000000  0.5142140000000 1.0
C      1  0.4748760000000  0.4730240000000  0.5142140000000 1.0
C      1  0.4730240000000  0.5251240000000  0.5142140000000 1.0
C      1  0.5251240000000  0.5269760000000  0.4839390000000 1.0
C      1  0.5269760000000  0.4748760000000  0.4839390000000 1.0
C      1  0.4748760000000  0.4730240000000  0.4839390000000 1.0
C      1  0.4730240000000  0.5251240000000  0.4839390000000 1.0
C      1  0.4258890000000  0.5364540000000  0.5248050000000 1.0
C      1  0.5364540000000  0.5741110000000  0.5248050000000 1.0
C      1  0.5741110000000  0.4635460000000  0.5248050000000 1.0
C      1  0.4635460000000  0.4258890000000  0.5248050000000 1.0
C      1  0.4258890000000  0.5364540000000  0.4733480000000 1.0
C      1  0.5364540000000  0.5741110000000  0.4733480000000 1.0
C      1  0.5741110000000  0.4635460000000  0.4733480000000 1.0
C      1  0.4635460000000  0.4258890000000  0.4733480000000 1.0
C      1  0.5410500000000  0.4292880000000  0.5135610000000 1.0
C      1  0.4292880000000  0.4589500000000  0.5135610000000 1.0
C      1  0.4589500000000  0.5707120000000  0.5135610000000 1.0
C      1  0.5707120000000  0.5410500000000  0.5135610000000 1.0
C      1  0.5410500000000  0.4292880000000  0.4845920000000 1.0
C      1  0.4292880000000  0.4589500000000  0.4845920000000 1.0
C      1  0.4589500000000  0.5707120000000  0.4845920000000 1.0
C      1  0.5707120000000  0.5410500000000  0.4845920000000 1.0
C      1  0.4659000000000  0.4989430000000  0.4729570000000 1.0
C      1  0.4989430000000  0.5341000000000  0.4729570000000 1.0
C      1  0.5341000000000  0.5010570000000  0.4729570000000 1.0
C      1  0.5010570000000  0.4659000000000  0.4729570000000 1.0
C      1  0.4659000000000  0.4989430000000  0.5251960000000 1.0
C      1  0.4989430000000  0.5341000000000  0.5251960000000 1.0
C      1  0.5341000000000  0.5010570000000  0.5251960000000 1.0
C      1  0.5010570000000  0.4659000000000  0.5251960000000 1.0
C      1  0.4129310000000  0.5324980000000  0.4990760000000 1.0
C      1  0.5324980000000  0.5870690000000  0.4990760000000 1.0
C      1  0.5870690000000  0.4675020000000  0.4990760000000 1.0
C      1  0.4675020000000  0.4129310000000  0.4990760000000 1.0
END
