TITL C-3985245-9316-931 -2.3772326247007e-07 125000 -302.482995865798 0 0 60 (Td) n - 1
REM
REM in /home/nfs/bkarasulu/CARBON/AIRSS/Generating-Clusters/TERSOFF/Higher-Symm/Only-C60
REM
REM
REM
REM
REM
REM ./C.cell (28575a23ae977d3b5fae324c64b13b57)
REM
REM compiler GCC version 9.2.1 20190827 (Red Hat 9.2.1-1)
REM options -cpp -mtune=generic -march=x86-64 -g -O0 -fpre-include=/usr/include/finclude/math-vector-fortran.h
REM seed 137297389 -44732776 1870858798 162185527 -781876904 -572254339 -352633573 -1121327274 -1174832809 -1324582056 -863377511 -1527856975 -826861113 1439095225 1047393405 421219218 -1937782771 314275356 -1050338691 -1753429518 749661861 321808949 -1728590295 170143475 -966849978 -1690471582 1663246659 -359104655 174025814 167098373 -1053839386 -1047869809 -1968909768
REM
CELL 1.54180   50.00000   50.00000   50.00000   90.00000   90.00000   90.00000
LATT -1
SFAC C  
C      1  0.4249660000000  0.5065370000000  0.5298550000000 1.0
C      1  0.5298550000000  0.4249660000000  0.5065370000000 1.0
C      1  0.5065370000000  0.5298550000000  0.4249660000000 1.0
C      1  0.5750340000000  0.5065370000000  0.4701450000000 1.0
C      1  0.4249660000000  0.4934630000000  0.4701450000000 1.0
C      1  0.5750340000000  0.4934630000000  0.5298550000000 1.0
C      1  0.4701450000000  0.4249660000000  0.4934630000000 1.0
C      1  0.5298550000000  0.5750340000000  0.4934630000000 1.0
C      1  0.4701450000000  0.5750340000000  0.5065370000000 1.0
C      1  0.4934630000000  0.5298550000000  0.5750340000000 1.0
C      1  0.5065370000000  0.4701450000000  0.5750340000000 1.0
C      1  0.4934630000000  0.4701450000000  0.4249660000000 1.0
C      1  0.5298550000000  0.5065370000000  0.4249660000000 1.0
C      1  0.5065370000000  0.4249660000000  0.5298550000000 1.0
C      1  0.4249660000000  0.5298550000000  0.5065370000000 1.0
C      1  0.4701450000000  0.5065370000000  0.5750340000000 1.0
C      1  0.4701450000000  0.4934630000000  0.4249660000000 1.0
C      1  0.5298550000000  0.4934630000000  0.5750340000000 1.0
C      1  0.4934630000000  0.4249660000000  0.4701450000000 1.0
C      1  0.4934630000000  0.5750340000000  0.5298550000000 1.0
C      1  0.5065370000000  0.5750340000000  0.4701450000000 1.0
C      1  0.5750340000000  0.5298550000000  0.4934630000000 1.0
C      1  0.5750340000000  0.4701450000000  0.5065370000000 1.0
C      1  0.4249660000000  0.4701450000000  0.4934630000000 1.0
C      1  0.5234750000000  0.4995300000000  0.4558530000000 1.0
C      1  0.4558530000000  0.5234750000000  0.4995300000000 1.0
C      1  0.4995300000000  0.4558530000000  0.5234750000000 1.0
C      1  0.4765250000000  0.4995300000000  0.5441470000000 1.0
C      1  0.5234750000000  0.5004700000000  0.5441470000000 1.0
C      1  0.4765250000000  0.5004700000000  0.4558530000000 1.0
C      1  0.5441470000000  0.5234750000000  0.5004700000000 1.0
C      1  0.4558530000000  0.4765250000000  0.5004700000000 1.0
C      1  0.5441470000000  0.4765250000000  0.4995300000000 1.0
C      1  0.5004700000000  0.4558530000000  0.4765250000000 1.0
C      1  0.4995300000000  0.5441470000000  0.4765250000000 1.0
C      1  0.5004700000000  0.5441470000000  0.5234750000000 1.0
C      1  0.4558530000000  0.4995300000000  0.5234750000000 1.0
C      1  0.4995300000000  0.5234750000000  0.4558530000000 1.0
C      1  0.5234750000000  0.4558530000000  0.4995300000000 1.0
C      1  0.5441470000000  0.4995300000000  0.4765250000000 1.0
C      1  0.5441470000000  0.5004700000000  0.5234750000000 1.0
C      1  0.4558530000000  0.5004700000000  0.4765250000000 1.0
C      1  0.5004700000000  0.5234750000000  0.5441470000000 1.0
C      1  0.5004700000000  0.4765250000000  0.4558530000000 1.0
C      1  0.4995300000000  0.4765250000000  0.5441470000000 1.0
C      1  0.4765250000000  0.4558530000000  0.5004700000000 1.0
C      1  0.4765250000000  0.5441470000000  0.4995300000000 1.0
C      1  0.5234750000000  0.5441470000000  0.5004700000000 1.0
C      1  0.5119320000000  0.4880680000000  0.4057430000000 1.0
C      1  0.4057430000000  0.5119320000000  0.4880680000000 1.0
C      1  0.4880680000000  0.4057430000000  0.5119320000000 1.0
C      1  0.4880680000000  0.4880680000000  0.5942570000000 1.0
C      1  0.5119320000000  0.5119320000000  0.5942570000000 1.0
C      1  0.4880680000000  0.5119320000000  0.4057430000000 1.0
C      1  0.5942570000000  0.5119320000000  0.5119320000000 1.0
C      1  0.4057430000000  0.4880680000000  0.5119320000000 1.0
C      1  0.5942570000000  0.4880680000000  0.4880680000000 1.0
C      1  0.5119320000000  0.4057430000000  0.4880680000000 1.0
C      1  0.4880680000000  0.5942570000000  0.4880680000000 1.0
C      1  0.5119320000000  0.5942570000000  0.5119320000000 1.0
END
