TITL C-3985259-1859-222 2.84439277200094e-06 125000 -318.849607278754 0 0 60 (C6) n - 1
REM
REM in /home/nfs/bkarasulu/CARBON/AIRSS/Generating-Clusters/TERSOFF/Higher-Symm/Only-C60
REM
REM
REM
REM
REM
REM ./C.cell (28575a23ae977d3b5fae324c64b13b57)
REM
REM compiler GCC version 9.2.1 20190827 (Red Hat 9.2.1-1)
REM options -cpp -mtune=generic -march=x86-64 -g -O0 -fpre-include=/usr/include/finclude/math-vector-fortran.h
REM seed 249897429 -1505489604 -857631725 -161258470 1697796709 1505216197 1033817615 1774053883 -1722591877 1855003444 194025101 -768320726 1123505423 1187240544 342203989 -2113788229 2077627802 -1834927780 634166457 1016147089 967033849 -611636030 1695682628 -1229594573 359093262 -1445855459 -56044229 1454699642 50589412 -1929580624 -526002093 -505260103 1745553651
REM
CELL 1.54180   50.00000   50.00000   50.00000   90.00000   90.00000   90.00000
LATT -1
SFAC C  
C      1  0.4462650000000  0.4621480000000  0.5277160000000 1.0
C      1  0.4403510000000  0.5276100000000  0.5277160000000 1.0
C      1  0.4940870000000  0.5654620000000  0.5277160000000 1.0
C      1  0.5537350000000  0.5378520000000  0.5277160000000 1.0
C      1  0.5596490000000  0.4723900000000  0.5277160000000 1.0
C      1  0.5059140000000  0.4345370000000  0.5277160000000 1.0
C      1  0.5633050000000  0.5192110000000  0.5022970000000 1.0
C      1  0.5482890000000  0.4547820000000  0.5022970000000 1.0
C      1  0.4849850000000  0.4355710000000  0.5022970000000 1.0
C      1  0.4366960000000  0.4807890000000  0.5022970000000 1.0
C      1  0.4517110000000  0.5452180000000  0.5022970000000 1.0
C      1  0.5150150000000  0.5644290000000  0.5022970000000 1.0
C      1  0.5505900000000  0.5041140000000  0.5398840000000 1.0
C      1  0.5288580000000  0.4582450000000  0.5398840000000 1.0
C      1  0.4782670000000  0.4541310000000  0.5398840000000 1.0
C      1  0.4494100000000  0.4958860000000  0.5398830000000 1.0
C      1  0.4711420000000  0.5417550000000  0.5398840000000 1.0
C      1  0.5217320000000  0.5458690000000  0.5398840000000 1.0
C      1  0.5510980000000  0.4671810000000  0.4750710000000 1.0
C      1  0.4971270000000  0.4393380000000  0.4750710000000 1.0
C      1  0.4460290000000  0.4721570000000  0.4750710000000 1.0
C      1  0.4489020000000  0.5328190000000  0.4750710000000 1.0
C      1  0.5028730000000  0.5606620000000  0.4750710000000 1.0
C      1  0.5539720000000  0.5278430000000  0.4750710000000 1.0
C      1  0.5030230000000  0.5419980000000  0.4299640000000 1.0
C      1  0.5378830000000  0.5183810000000  0.4299640000000 1.0
C      1  0.5348600000000  0.4763830000000  0.4299640000000 1.0
C      1  0.4969770000000  0.4580020000000  0.4299640000000 1.0
C      1  0.4621170000000  0.4816190000000  0.4299640000000 1.0
C      1  0.4651400000000  0.5236170000000  0.4299640000000 1.0
C      1  0.4225770000000  0.5199260000000  0.4788820000000 1.0
C      1  0.4785440000000  0.5770130000000  0.4788820000000 1.0
C      1  0.5559670000000  0.5570880000000  0.4788820000000 1.0
C      1  0.5774230000000  0.4800740000000  0.4788820000000 1.0
C      1  0.5214550000000  0.4229870000000  0.4788820000000 1.0
C      1  0.4440320000000  0.4429130000000  0.4788830000000 1.0
C      1  0.4253640000000  0.5074910000000  0.5056180000000 1.0
C      1  0.4691690000000  0.5683820000000  0.5056180000000 1.0
C      1  0.5438050000000  0.5608920000000  0.5056180000000 1.0
C      1  0.5746360000000  0.4925100000000  0.5056180000000 1.0
C      1  0.5308310000000  0.4316180000000  0.5056180000000 1.0
C      1  0.4561950000000  0.4391080000000  0.5056180000000 1.0
C      1  0.4875410000000  0.4744340000000  0.5179130000000 1.0
C      1  0.4716290000000  0.4980070000000  0.5179130000000 1.0
C      1  0.4840890000000  0.5235730000000  0.5179130000000 1.0
C      1  0.5124590000000  0.5255660000000  0.5179130000000 1.0
C      1  0.5283710000000  0.5019930000000  0.5179130000000 1.0
C      1  0.5159110000000  0.4764270000000  0.5179130000000 1.0
C      1  0.5298400000000  0.5024020000000  0.5631670000000 1.0
C      1  0.5170000000000  0.4753590000000  0.5631680000000 1.0
C      1  0.4871590000000  0.4729570000000  0.5631670000000 1.0
C      1  0.4701600000000  0.4975980000000  0.5631670000000 1.0
C      1  0.4830000000000  0.5246420000000  0.5631670000000 1.0
C      1  0.5128400000000  0.5270430000000  0.5631670000000 1.0
C      1  0.5279250000000  0.4813080000000  0.4594880000000 1.0
C      1  0.4977750000000  0.4664700000000  0.4594880000000 1.0
C      1  0.4698500000000  0.4851620000000  0.4594880000000 1.0
C      1  0.4720750000000  0.5186920000000  0.4594880000000 1.0
C      1  0.5022250000000  0.5335300000000  0.4594880000000 1.0
C      1  0.5301510000000  0.5148370000000  0.4594880000000 1.0
END
