TITL C-3985253-1688-523 -0.00379373212838619 125000 -306.798296892451 0 0 60 (D3) n - 1
REM
REM in /home/nfs/bkarasulu/CARBON/AIRSS/Generating-Clusters/TERSOFF/Higher-Symm/Only-C60
REM
REM
REM
REM
REM
REM ./C.cell (28575a23ae977d3b5fae324c64b13b57)
REM
REM compiler GCC version 9.2.1 20190827 (Red Hat 9.2.1-1)
REM options -cpp -mtune=generic -march=x86-64 -g -O0 -fpre-include=/usr/include/finclude/math-vector-fortran.h
REM seed -580364220 -1540328386 1379628321 -2086685659 -2109461120 -945420931 -60164801 1366793049 2117876580 52122349 1961331592 -1054611617 1093292180 -455996141 -1219091444 -1946926598 1041586707 -886290511 -34040995 671836919 -561734858 1449396946 1321588478 91957086 627021678 1790454180 1999624669 -2015285740 -1280176926 -1446033014 246802193 -90772347 -1875418784
REM
CELL 1.54180   50.00000   50.00000   50.00000   90.00000   90.00000   90.00000
LATT -1
SFAC C  
C      1  0.5067930000000  0.4723960000000  0.4311110000000 1.0
C      1  0.5562710000000  0.4723880000000  0.5403300000000 1.0
C      1  0.4368850000000  0.4723910000000  0.5285540000000 1.0
C      1  0.4932070000000  0.5276040000000  0.4311110000000 1.0
C      1  0.4437290000000  0.5276120000000  0.5403300000000 1.0
C      1  0.5631150000000  0.5276090000000  0.5285540000000 1.0
C      1  0.5346990000000  0.4596040000000  0.5204860000000 1.0
C      1  0.4648690000000  0.4595910000000  0.5197780000000 1.0
C      1  0.5003940000000  0.4595650000000  0.4597040000000 1.0
C      1  0.4653010000000  0.5403960000000  0.5204860000000 1.0
C      1  0.5351310000000  0.5404080000000  0.5197770000000 1.0
C      1  0.4996060000000  0.5404350000000  0.4597040000000 1.0
C      1  0.4541950000000  0.4524130000000  0.4778590000000 1.0
C      1  0.5420380000000  0.4524780000000  0.4714380000000 1.0
C      1  0.5037360000000  0.4524570000000  0.5507200000000 1.0
C      1  0.5458050000000  0.5475870000000  0.4778590000000 1.0
C      1  0.4579620000000  0.5475220000000  0.4714380000000 1.0
C      1  0.4962640000000  0.5475440000000  0.5507200000000 1.0
C      1  0.5309890000000  0.5522080000000  0.4507600000000 1.0
C      1  0.5271510000000  0.5521700000000  0.5514450000000 1.0
C      1  0.4418260000000  0.5521670000000  0.4977750000000 1.0
C      1  0.4690110000000  0.4477920000000  0.4507600000000 1.0
C      1  0.4728490000000  0.4478300000000  0.5514450000000 1.0
C      1  0.5581740000000  0.4478330000000  0.4977750000000 1.0
C      1  0.4546110000000  0.4787930000000  0.5555380000000 1.0
C      1  0.4745680000000  0.4787660000000  0.4329420000000 1.0
C      1  0.5708270000000  0.4787580000000  0.5115380000000 1.0
C      1  0.5453890000000  0.5212070000000  0.5555380000000 1.0
C      1  0.5254320000000  0.5212340000000  0.4329420000000 1.0
C      1  0.4291730000000  0.5212420000000  0.5115380000000 1.0
C      1  0.4915680000000  0.4858130000000  0.4772690000000 1.0
C      1  0.5238880000000  0.4858180000000  0.5040840000000 1.0
C      1  0.4845050000000  0.4858360000000  0.5186660000000 1.0
C      1  0.5084320000000  0.5141870000000  0.4772690000000 1.0
C      1  0.4761120000000  0.5141820000000  0.5040840000000 1.0
C      1  0.5154950000000  0.5141640000000  0.5186660000000 1.0
C      1  0.4843290000000  0.4233560000000  0.5275000000000 1.0
C      1  0.4839880000000  0.4233110000000  0.4726710000000 1.0
C      1  0.5317070000000  0.4233350000000  0.4998150000000 1.0
C      1  0.5156710000000  0.5766440000000  0.5275000000000 1.0
C      1  0.5160120000000  0.5766890000000  0.4726710000000 1.0
C      1  0.4682930000000  0.5766650000000  0.4998150000000 1.0
C      1  0.5363480000000  0.4920930000000  0.5515360000000 1.0
C      1  0.4370630000000  0.4920900000000  0.5056760000000 1.0
C      1  0.5264470000000  0.4921090000000  0.4427910000000 1.0
C      1  0.4636520000000  0.5079070000000  0.5515360000000 1.0
C      1  0.5629370000000  0.5079100000000  0.5056760000000 1.0
C      1  0.4735530000000  0.5078910000000  0.4427910000000 1.0
C      1  0.5082940000000  0.4809430000000  0.5450740000000 1.0
C      1  0.4566960000000  0.4809260000000  0.4846190000000 1.0
C      1  0.5348360000000  0.4809600000000  0.4703360000000 1.0
C      1  0.4917060000000  0.5190560000000  0.5450740000000 1.0
C      1  0.5433040000000  0.5190740000000  0.4846190000000 1.0
C      1  0.4651640000000  0.5190400000000  0.4703360000000 1.0
C      1  0.4673980000000  0.4316030000000  0.4999810000000 1.0
C      1  0.5163200000000  0.4315980000000  0.4717900000000 1.0
C      1  0.5162870000000  0.4316320000000  0.5282140000000 1.0
C      1  0.5326020000000  0.5683970000000  0.4999810000000 1.0
C      1  0.4836800000000  0.5684020000000  0.4717900000000 1.0
C      1  0.4837130000000  0.5683680000000  0.5282140000000 1.0
END
