TITL C-3985248-2097-213 1.45744864376487e-05 125000 -296.516642317692 0 0 60 (C5) n - 1
REM
REM in /home/nfs/bkarasulu/CARBON/AIRSS/Generating-Clusters/TERSOFF/Higher-Symm/Only-C60
REM
REM
REM
REM
REM
REM ./C.cell (28575a23ae977d3b5fae324c64b13b57)
REM
REM compiler GCC version 9.2.1 20190827 (Red Hat 9.2.1-1)
REM options -cpp -mtune=generic -march=x86-64 -g -O0 -fpre-include=/usr/include/finclude/math-vector-fortran.h
REM seed 29950893 1619370772 1930620128 -1135317766 974549707 -1254716358 -775954926 2053078 -684968852 -890511375 -935146398 -1706095626 -1083711988 -639521888 212144304 -1045098839 -807917759 1684819780 -1234815832 1077366046 -1236608307 245048378 848611202 -1296179289 -858588154 1289188075 1756648352 -484538876 -392040906 1238842526 695085658 1368442905 -559324361
REM
CELL 1.54180   50.00000   50.00000   50.00000   90.00000   90.00000   90.00000
LATT -1
SFAC C  
C      1  0.5039580000000  0.5327620000000  0.5693180000000 1.0
C      1  0.5671480000000  0.5327620000000  0.5176560000000 1.0
C      1  0.5375410000000  0.5327610000000  0.4415950000000 1.0
C      1  0.4560550000000  0.5327620000000  0.4462480000000 1.0
C      1  0.4352980000000  0.5327620000000  0.5251840000000 1.0
C      1  0.4648490000000  0.5473410000000  0.4743070000000 1.0
C      1  0.4647010000000  0.5473420000000  0.5254910000000 1.0
C      1  0.5133360000000  0.5473420000000  0.5414490000000 1.0
C      1  0.5435410000000  0.5473410000000  0.5001250000000 1.0
C      1  0.5135740000000  0.5473410000000  0.4586300000000 1.0
C      1  0.5199520000000  0.4807500000000  0.4858260000000 1.0
C      1  0.4926860000000  0.4807500000000  0.4766440000000 1.0
C      1  0.4755280000000  0.4807510000000  0.4997380000000 1.0
C      1  0.4921890000000  0.4807520000000  0.5231930000000 1.0
C      1  0.5196450000000  0.4807510000000  0.5145950000000 1.0
C      1  0.4418260000000  0.5181410000000  0.4971440000000 1.0
C      1  0.4793070000000  0.5181410000000  0.5544440000000 1.0
C      1  0.5453850000000  0.5181410000000  0.5365040000000 1.0
C      1  0.5487420000000  0.5181410000000  0.4681170000000 1.0
C      1  0.4847400000000  0.5181410000000  0.4437910000000 1.0
C      1  0.5788780000000  0.4990270000000  0.5199100000000 1.0
C      1  0.5433100000000  0.4990280000000  0.4311350000000 1.0
C      1  0.4478890000000  0.4990280000000  0.4375300000000 1.0
C      1  0.4244840000000  0.4990280000000  0.5302560000000 1.0
C      1  0.5054390000000  0.4990270000000  0.5811700000000 1.0
C      1  0.5531500000000  0.4550670000000  0.4995300000000 1.0
C      1  0.5159770000000  0.4550670000000  0.4493050000000 1.0
C      1  0.4567240000000  0.4550670000000  0.4691390000000 1.0
C      1  0.4572770000000  0.4550680000000  0.5316210000000 1.0
C      1  0.5168710000000  0.4550680000000  0.5504030000000 1.0
C      1  0.5418140000000  0.4677450000000  0.4704210000000 1.0
C      1  0.4847900000000  0.4677450000000  0.4510910000000 1.0
C      1  0.4487860000000  0.4677450000000  0.4993520000000 1.0
C      1  0.4835580000000  0.4677460000000  0.5485070000000 1.0
C      1  0.5410520000000  0.4677460000000  0.5306270000000 1.0
C      1  0.4983190000000  0.5220590000000  0.4721950000000 1.0
C      1  0.4730360000000  0.5220600000000  0.4930060000000 1.0
C      1  0.4850160000000  0.5220610000000  0.5234840000000 1.0
C      1  0.5177040000000  0.5220600000000  0.5215090000000 1.0
C      1  0.5259260000000  0.5220590000000  0.4898100000000 1.0
C      1  0.4292830000000  0.4902010000000  0.5003710000000 1.0
C      1  0.4785000000000  0.4902010000000  0.5673700000000 1.0
C      1  0.5574290000000  0.4902010000000  0.5412660000000 1.0
C      1  0.5569930000000  0.4902010000000  0.4581330000000 1.0
C      1  0.4777940000000  0.4902010000000  0.4328590000000 1.0
C      1  0.5078200000000  0.4377410000000  0.4753280000000 1.0
C      1  0.4789520000000  0.4377410000000  0.4849390000000 1.0
C      1  0.4791720000000  0.4377410000000  0.5153630000000 1.0
C      1  0.5081750000000  0.4377410000000  0.5245560000000 1.0
C      1  0.5258810000000  0.4377410000000  0.4998130000000 1.0
C      1  0.4693760000000  0.5723530000000  0.4997310000000 1.0
C      1  0.4902810000000  0.5723530000000  0.5290430000000 1.0
C      1  0.5246180000000  0.5723530000000  0.5182180000000 1.0
C      1  0.5249340000000  0.5723530000000  0.4822170000000 1.0
C      1  0.4907930000000  0.5723530000000  0.4707910000000 1.0
C      1  0.5236750000000  0.4768100000000  0.4265180000000 1.0
C      1  0.4374310000000  0.4768100000000  0.4547770000000 1.0
C      1  0.4376550000000  0.4768100000000  0.5455320000000 1.0
C      1  0.5240380000000  0.4768100000000  0.5733640000000 1.0
C      1  0.5772010000000  0.4768100000000  0.4998090000000 1.0
END
