TITL C-3985259-1859-984 -5.88100529269775e-08 125000 -331.12233916811 0 0 60 (C2v) n - 1
REM
REM in /home/nfs/bkarasulu/CARBON/AIRSS/Generating-Clusters/TERSOFF/Higher-Symm/Only-C60
REM
REM
REM
REM
REM
REM ./C.cell (28575a23ae977d3b5fae324c64b13b57)
REM
REM compiler GCC version 9.2.1 20190827 (Red Hat 9.2.1-1)
REM options -cpp -mtune=generic -march=x86-64 -g -O0 -fpre-include=/usr/include/finclude/math-vector-fortran.h
REM seed -580102781 -671565630 985267497 -32634724 -1371318767 -146394787 805413504 640399573 368134161 -1531187225 -341584651 1171688194 -1325896674 2050475111 -612267160 1078819236 1985400263 2072677191 -1210882661 -112604463 -519695632 703661850 755195060 -902694523 -2073985998 -311344703 -2077004738 -327650519 1408946056 -225928739 393651150 1768582129 1978729917
REM
CELL 1.54180   50.00000   50.00000   50.00000   90.00000   90.00000   90.00000
LATT -1
SFAC C  
C      1  0.4588730000000  0.4837040000000  0.4825890000000 1.0
C      1  0.4588730000000  0.5162960000000  0.5174110000000 1.0
C      1  0.4588730000000  0.5162960000000  0.4825890000000 1.0
C      1  0.4588730000000  0.4837040000000  0.5174110000000 1.0
C      1  0.5100440000000  0.5209530000000  0.5152080000000 1.0
C      1  0.5100440000000  0.4790470000000  0.4847920000000 1.0
C      1  0.5100440000000  0.4790470000000  0.5152080000000 1.0
C      1  0.5100440000000  0.5209530000000  0.4847920000000 1.0
C      1  0.5572560000000  0.5449590000000  0.4855290000000 1.0
C      1  0.5572560000000  0.4550410000000  0.5144710000000 1.0
C      1  0.5572560000000  0.4550410000000  0.4855290000000 1.0
C      1  0.5572560000000  0.5449590000000  0.5144710000000 1.0
C      1  0.5380640000000  0.5636780000000  0.4712490000000 1.0
C      1  0.5380640000000  0.4363220000000  0.5287510000000 1.0
C      1  0.5380640000000  0.4363220000000  0.4712490000000 1.0
C      1  0.5380640000000  0.5636780000000  0.5287510000000 1.0
C      1  0.5251690000000  0.5482550000000  0.5505190000000 1.0
C      1  0.5251690000000  0.4517450000000  0.4494810000000 1.0
C      1  0.5251690000000  0.4517450000000  0.5505190000000 1.0
C      1  0.5251690000000  0.5482550000000  0.4494810000000 1.0
C      1  0.4638770000000  0.5768380000000  0.4850020000000 1.0
C      1  0.4638770000000  0.4231620000000  0.5149980000000 1.0
C      1  0.4638770000000  0.4231620000000  0.4850020000000 1.0
C      1  0.4638770000000  0.5768380000000  0.5149980000000 1.0
C      1  0.5609540000000  0.4827710000000  0.4708880000000 1.0
C      1  0.5609540000000  0.5172290000000  0.5291120000000 1.0
C      1  0.5609540000000  0.5172290000000  0.4708880000000 1.0
C      1  0.5609540000000  0.4827710000000  0.5291120000000 1.0
C      1  0.4847120000000  0.5283300000000  0.4728450000000 1.0
C      1  0.4847120000000  0.4716700000000  0.5271550000000 1.0
C      1  0.4847120000000  0.4716700000000  0.4728450000000 1.0
C      1  0.4847120000000  0.5283300000000  0.5271550000000 1.0
C      1  0.4338630000000  0.4639210000000  0.4842600000000 1.0
C      1  0.4338630000000  0.5360790000000  0.5157400000000 1.0
C      1  0.4338630000000  0.5360790000000  0.4842600000000 1.0
C      1  0.4338630000000  0.4639210000000  0.5157400000000 1.0
C      1  0.5303220000000  0.4831270000000  0.4593210000000 1.0
C      1  0.5303220000000  0.5168730000000  0.5406790000000 1.0
C      1  0.5303220000000  0.5168730000000  0.4593210000000 1.0
C      1  0.5303220000000  0.4831270000000  0.5406790000000 1.0
C      1  0.4405000000000  0.5628420000000  0.4739760000000 1.0
C      1  0.4405000000000  0.4371580000000  0.5260240000000 1.0
C      1  0.4405000000000  0.4371580000000  0.4739760000000 1.0
C      1  0.4405000000000  0.5628420000000  0.5260240000000 1.0
C      1  0.4893700000000  0.5720780000000  0.4710190000000 1.0
C      1  0.4893700000000  0.4279220000000  0.5289810000000 1.0
C      1  0.4893700000000  0.4279220000000  0.4710190000000 1.0
C      1  0.4893700000000  0.5720780000000  0.5289810000000 1.0
C      1  0.5019030000000  0.5159720000000  0.4365880000000 1.0
C      1  0.5019030000000  0.4840280000000  0.5634120000000 1.0
C      1  0.5019030000000  0.4840280000000  0.4365880000000 1.0
C      1  0.5019030000000  0.5159720000000  0.5634120000000 1.0
C      1  0.4897830000000  0.5480970000000  0.5517910000000 1.0
C      1  0.4897830000000  0.4519030000000  0.4482090000000 1.0
C      1  0.4897830000000  0.4519030000000  0.5517910000000 1.0
C      1  0.4897830000000  0.5480970000000  0.4482090000000 1.0
C      1  0.5153090000000  0.5764960000000  0.4854210000000 1.0
C      1  0.5153090000000  0.4235040000000  0.5145790000000 1.0
C      1  0.5153090000000  0.4235040000000  0.4854210000000 1.0
C      1  0.5153090000000  0.5764960000000  0.5145790000000 1.0
END
