TITL C-3985254-1270-1648 0.000216166184003129 125000 -317.163850226206 0 0 60 (C2) n - 1
REM
REM in /home/nfs/bkarasulu/CARBON/AIRSS/Generating-Clusters/TERSOFF/Higher-Symm/Only-C60
REM
REM
REM
REM
REM
REM ./C.cell (28575a23ae977d3b5fae324c64b13b57)
REM
REM compiler GCC version 9.2.1 20190827 (Red Hat 9.2.1-1)
REM options -cpp -mtune=generic -march=x86-64 -g -O0 -fpre-include=/usr/include/finclude/math-vector-fortran.h
REM seed 1126133998 -1924013340 -1363290815 -1957237895 680653585 -1361699413 2064054470 1586654030 -1955703479 -463724966 -1843944311 -2016569183 1256532039 172285563 -1668890538 1650919294 583664386 -1556224102 581502633 -565156609 1233037485 1100936324 503520765 1103194221 -201332307 1014284745 122764021 240847559 1607991978 163617347 -1768768300 1918008672 -1945282751
REM
CELL 1.54180   50.00000   50.00000   50.00000   90.00000   90.00000   90.00000
LATT -1
SFAC C  
C      1  0.4718930000000  0.4605010000000  0.4767520000000 1.0
C      1  0.4718930000000  0.5394990000000  0.5232480000000 1.0
C      1  0.4659730000000  0.4936290000000  0.4829840000000 1.0
C      1  0.4659730000000  0.5063710000000  0.5170160000000 1.0
C      1  0.4349000000000  0.4946720000000  0.4760620000000 1.0
C      1  0.4349000000000  0.5053280000000  0.5239380000000 1.0
C      1  0.5146160000000  0.5672010000000  0.5182640000000 1.0
C      1  0.5146160000000  0.4327990000000  0.4817360000000 1.0
C      1  0.5268500000000  0.4986230000000  0.5384740000000 1.0
C      1  0.5268500000000  0.5013770000000  0.4615260000000 1.0
C      1  0.4481310000000  0.4490140000000  0.4916410000000 1.0
C      1  0.4481310000000  0.5509860000000  0.5083590000000 1.0
C      1  0.4778830000000  0.4852240000000  0.5439010000000 1.0
C      1  0.4778830000000  0.5147760000000  0.4560990000000 1.0
C      1  0.4254620000000  0.4702620000000  0.4919150000000 1.0
C      1  0.4254620000000  0.5297380000000  0.5080850000000 1.0
C      1  0.5423220000000  0.5593500000000  0.5123030000000 1.0
C      1  0.5423220000000  0.4406500000000  0.4876970000000 1.0
C      1  0.4803110000000  0.5433250000000  0.4624080000000 1.0
C      1  0.4803110000000  0.4566750000000  0.5375920000000 1.0
C      1  0.4959070000000  0.4960690000000  0.5667310000000 1.0
C      1  0.4959070000000  0.5039310000000  0.4332690000000 1.0
C      1  0.4820530000000  0.4577120000000  0.4482860000000 1.0
C      1  0.4820530000000  0.5422880000000  0.5517140000000 1.0
C      1  0.4965490000000  0.5465840000000  0.5085720000000 1.0
C      1  0.4965490000000  0.4534160000000  0.4914280000000 1.0
C      1  0.5084390000000  0.5208550000000  0.5022320000000 1.0
C      1  0.5084390000000  0.4791450000000  0.4977680000000 1.0
C      1  0.5719630000000  0.5149550000000  0.4813730000000 1.0
C      1  0.5719630000000  0.4850450000000  0.5186270000000 1.0
C      1  0.5535930000000  0.4623950000000  0.4705370000000 1.0
C      1  0.5535930000000  0.5376050000000  0.5294630000000 1.0
C      1  0.5728200000000  0.5186630000000  0.5152690000000 1.0
C      1  0.5728200000000  0.4813370000000  0.4847310000000 1.0
C      1  0.5290680000000  0.5428320000000  0.4438760000000 1.0
C      1  0.5290680000000  0.4571680000000  0.5561240000000 1.0
C      1  0.5037230000000  0.5249290000000  0.5626650000000 1.0
C      1  0.5037230000000  0.4750710000000  0.4373350000000 1.0
C      1  0.5368880000000  0.4523640000000  0.5151680000000 1.0
C      1  0.5368880000000  0.5476360000000  0.4848320000000 1.0
C      1  0.5345870000000  0.5251780000000  0.5505910000000 1.0
C      1  0.5345870000000  0.4748220000000  0.4494090000000 1.0
C      1  0.4998300000000  0.5027740000000  0.4771430000000 1.0
C      1  0.4998300000000  0.4972260000000  0.5228570000000 1.0
C      1  0.4224410000000  0.4781820000000  0.5208670000000 1.0
C      1  0.4224410000000  0.5218180000000  0.4791330000000 1.0
C      1  0.4570600000000  0.5606920000000  0.4791390000000 1.0
C      1  0.4570600000000  0.4393080000000  0.5208610000000 1.0
C      1  0.5394260000000  0.4866850000000  0.5121820000000 1.0
C      1  0.5394260000000  0.5133150000000  0.4878180000000 1.0
C      1  0.4868900000000  0.4190870000000  0.5202930000000 1.0
C      1  0.4868900000000  0.5809130000000  0.4797070000000 1.0
C      1  0.5097170000000  0.5576410000000  0.4666380000000 1.0
C      1  0.5097170000000  0.4423590000000  0.5333620000000 1.0
C      1  0.5174120000000  0.4772050000000  0.5744100000000 1.0
C      1  0.5174120000000  0.5227950000000  0.4255900000000 1.0
C      1  0.5587000000000  0.4614450000000  0.5396520000000 1.0
C      1  0.5587000000000  0.5385550000000  0.4603480000000 1.0
C      1  0.4345930000000  0.4554010000000  0.5358830000000 1.0
C      1  0.4345930000000  0.5445990000000  0.4641170000000 1.0
END
