TITL C-3985247-764-789 6.62702790184491e-09 125000 -332.293867025301 0 0 60 (C2) n - 1
REM
REM in /home/nfs/bkarasulu/CARBON/AIRSS/Generating-Clusters/TERSOFF/Higher-Symm/Only-C60
REM
REM
REM
REM
REM
REM ./C.cell (28575a23ae977d3b5fae324c64b13b57)
REM
REM compiler GCC version 9.2.1 20190827 (Red Hat 9.2.1-1)
REM options -cpp -mtune=generic -march=x86-64 -g -O0 -fpre-include=/usr/include/finclude/math-vector-fortran.h
REM seed -49624622 1829541497 1274738082 1453301778 -325384384 1959216982 1359624402 1581692610 -1007036828 -911726814 374795760 -1157509784 -1736808168 279417049 716348623 648232098 891731371 1848736169 1033477502 -334895555 -766842266 -239875202 -1737413852 -1596575508 -1505929127 671752450 1083911887 1469520049 351569941 2144235920 -269798129 1910211614 1909954378
REM
CELL 1.54180   50.00000   50.00000   50.00000   90.00000   90.00000   90.00000
LATT -1
SFAC C  
C      1  0.5073240000000  0.4421650000000  0.5568500000000 1.0
C      1  0.5074200000000  0.4310640000000  0.4643700000000 1.0
C      1  0.5075030000000  0.5130550000000  0.4216540000000 1.0
C      1  0.5073750000000  0.5801620000000  0.4880690000000 1.0
C      1  0.5074670000000  0.5347560000000  0.5692990000000 1.0
C      1  0.4926760000000  0.5578350000000  0.5568500000000 1.0
C      1  0.4925800000000  0.5689360000000  0.4643700000000 1.0
C      1  0.4924970000000  0.4869450000000  0.4216540000000 1.0
C      1  0.4926250000000  0.4198380000000  0.4880690000000 1.0
C      1  0.4925330000000  0.4652440000000  0.5692990000000 1.0
C      1  0.4247580000000  0.5251190000000  0.5049900000000 1.0
C      1  0.4247040000000  0.5030170000000  0.5254270000000 1.0
C      1  0.4247650000000  0.4767120000000  0.5107180000000 1.0
C      1  0.4246930000000  0.4825820000000  0.4812030000000 1.0
C      1  0.4247200000000  0.5124920000000  0.4776270000000 1.0
C      1  0.5752420000000  0.4748810000000  0.5049900000000 1.0
C      1  0.5752960000000  0.4969830000000  0.5254270000000 1.0
C      1  0.5752350000000  0.5232880000000  0.5107180000000 1.0
C      1  0.5753070000000  0.5174180000000  0.4812030000000 1.0
C      1  0.5752800000000  0.4875080000000  0.4776270000000 1.0
C      1  0.4830110000000  0.4951900000000  0.4535240000000 1.0
C      1  0.4829330000000  0.5420480000000  0.4815730000000 1.0
C      1  0.4831760000000  0.5315340000000  0.5351910000000 1.0
C      1  0.4829320000000  0.4768710000000  0.5395660000000 1.0
C      1  0.4832140000000  0.4539160000000  0.4899750000000 1.0
C      1  0.5169890000000  0.5048100000000  0.4535240000000 1.0
C      1  0.5170670000000  0.4579520000000  0.4815730000000 1.0
C      1  0.5168240000000  0.4684660000000  0.5351910000000 1.0
C      1  0.5170680000000  0.5231290000000  0.5395660000000 1.0
C      1  0.5167860000000  0.5460840000000  0.4899750000000 1.0
C      1  0.4898830000000  0.4465050000000  0.4455760000000 1.0
C      1  0.4901320000000  0.5353750000000  0.4324060000000 1.0
C      1  0.4900940000000  0.5753080000000  0.5127490000000 1.0
C      1  0.4899440000000  0.5112010000000  0.5754480000000 1.0
C      1  0.4901070000000  0.4316260000000  0.5339490000000 1.0
C      1  0.5101170000000  0.5534950000000  0.4455760000000 1.0
C      1  0.5098680000000  0.4646250000000  0.4324060000000 1.0
C      1  0.5099060000000  0.4246920000000  0.5127490000000 1.0
C      1  0.5100560000000  0.4887990000000  0.5754480000000 1.0
C      1  0.5098930000000  0.5683740000000  0.5339490000000 1.0
C      1  0.4705180000000  0.5056580000000  0.5489230000000 1.0
C      1  0.4707310000000  0.4550870000000  0.5202610000000 1.0
C      1  0.4705180000000  0.4666480000000  0.4635830000000 1.0
C      1  0.4706110000000  0.5241640000000  0.4571400000000 1.0
C      1  0.4707010000000  0.5482970000000  0.5099890000000 1.0
C      1  0.5294820000000  0.4943420000000  0.5489230000000 1.0
C      1  0.5292690000000  0.5449130000000  0.5202610000000 1.0
C      1  0.5294820000000  0.5333520000000  0.4635830000000 1.0
C      1  0.5293890000000  0.4758360000000  0.4571400000000 1.0
C      1  0.5292990000000  0.4517030000000  0.5099890000000 1.0
C      1  0.5588930000000  0.4940720000000  0.5493460000000 1.0
C      1  0.5587770000000  0.4512440000000  0.5097640000000 1.0
C      1  0.5588230000000  0.4757960000000  0.4565900000000 1.0
C      1  0.5589170000000  0.5338170000000  0.4635080000000 1.0
C      1  0.5587420000000  0.5451930000000  0.5207320000000 1.0
C      1  0.4411070000000  0.5059280000000  0.5493460000000 1.0
C      1  0.4412230000000  0.5487560000000  0.5097640000000 1.0
C      1  0.4411770000000  0.5242040000000  0.4565900000000 1.0
C      1  0.4410830000000  0.4661830000000  0.4635080000000 1.0
C      1  0.4412580000000  0.4548070000000  0.5207320000000 1.0
END
