TITL C-3985244-725-702 -0.00140479867364262 125000 -335.567185344862 0 0 60 (C2) n - 1
REM
REM in /home/nfs/bkarasulu/CARBON/AIRSS/Generating-Clusters/TERSOFF/Higher-Symm/Only-C60
REM
REM
REM
REM
REM
REM ./C.cell (28575a23ae977d3b5fae324c64b13b57)
REM
REM compiler GCC version 9.2.1 20190827 (Red Hat 9.2.1-1)
REM options -cpp -mtune=generic -march=x86-64 -g -O0 -fpre-include=/usr/include/finclude/math-vector-fortran.h
REM seed -1290750344 -1155399400 597304417 1562452857 -807650155 -1397763415 371396955 331717680 529092072 -1913852714 -1265562509 -1266123246 -846144431 -1571179869 -521786525 2133724167 520036481 -1477023229 -1297693655 -869127859 -715815537 -1635914596 2107625239 1291666028 1116179836 -363594740 -267136048 655092089 815843233 -1884181283 1163838699 1000815511 -188481965
REM
CELL 1.54180   50.00000   50.00000   50.00000   90.00000   90.00000   90.00000
LATT -1
SFAC C  
C      1  0.5162130000000  0.4967340000000  0.4378100000000 1.0
C      1  0.4837870000000  0.5032660000000  0.4378090000000 1.0
C      1  0.4510170000000  0.4596030000000  0.5341360000000 1.0
C      1  0.5489780000000  0.5403940000000  0.5341330000000 1.0
C      1  0.5414870000000  0.4824610000000  0.4258890000000 1.0
C      1  0.4585130000000  0.5175390000000  0.4258890000000 1.0
C      1  0.5571250000000  0.4840720000000  0.4967040000000 1.0
C      1  0.4428750000000  0.5159290000000  0.4967050000000 1.0
C      1  0.5461050000000  0.5156130000000  0.5509680000000 1.0
C      1  0.4539030000000  0.4843920000000  0.5509700000000 1.0
C      1  0.5301660000000  0.5509350000000  0.4584980000000 1.0
C      1  0.4698340000000  0.4490650000000  0.4585030000000 1.0
C      1  0.4704560000000  0.4365370000000  0.5419580000000 1.0
C      1  0.5295490000000  0.5634870000000  0.5419820000000 1.0
C      1  0.4620800000000  0.5564930000000  0.5142180000000 1.0
C      1  0.5379240000000  0.4435060000000  0.5142150000000 1.0
C      1  0.5100590000000  0.5805840000000  0.5190400000000 1.0
C      1  0.4899390000000  0.4193900000000  0.5190370000000 1.0
C      1  0.4775250000000  0.5135310000000  0.5290150000000 1.0
C      1  0.5224830000000  0.4864700000000  0.5290150000000 1.0
C      1  0.5119640000000  0.5368720000000  0.5146180000000 1.0
C      1  0.4880310000000  0.4631290000000  0.5146130000000 1.0
C      1  0.5133550000000  0.5086190000000  0.5059750000000 1.0
C      1  0.4866490000000  0.4913640000000  0.5060010000000 1.0
C      1  0.5156000000000  0.4748360000000  0.4631560000000 1.0
C      1  0.4844000000000  0.5251640000000  0.4631550000000 1.0
C      1  0.5191910000000  0.5120850000000  0.5621340000000 1.0
C      1  0.4808080000000  0.4879160000000  0.5621370000000 1.0
C      1  0.4648790000000  0.4797020000000  0.4544770000000 1.0
C      1  0.5351210000000  0.5202970000000  0.4544760000000 1.0
C      1  0.4813150000000  0.5710500000000  0.5312440000000 1.0
C      1  0.5186800000000  0.4289640000000  0.5312400000000 1.0
C      1  0.4880670000000  0.4827810000000  0.4756050000000 1.0
C      1  0.5119320000000  0.5172170000000  0.4755980000000 1.0
C      1  0.4557290000000  0.4414370000000  0.4865140000000 1.0
C      1  0.5442730000000  0.5585630000000  0.4865130000000 1.0
C      1  0.4965860000000  0.5580900000000  0.4697000000000 1.0
C      1  0.5034160000000  0.4419100000000  0.4697030000000 1.0
C      1  0.5044600000000  0.4742210000000  0.5515990000000 1.0
C      1  0.4955360000000  0.5258070000000  0.5516200000000 1.0
C      1  0.5624420000000  0.5099690000000  0.4610820000000 1.0
C      1  0.4375580000000  0.4900320000000  0.4610820000000 1.0
C      1  0.5672350000000  0.5124190000000  0.4915660000000 1.0
C      1  0.4327660000000  0.4875800000000  0.4915660000000 1.0
C      1  0.5470290000000  0.4695610000000  0.4730720000000 1.0
C      1  0.4529710000000  0.5304400000000  0.4730710000000 1.0
C      1  0.5342170000000  0.4430010000000  0.4836020000000 1.0
C      1  0.4657830000000  0.5569990000000  0.4836020000000 1.0
C      1  0.5151500000000  0.5607430000000  0.4964350000000 1.0
C      1  0.4848480000000  0.4392450000000  0.4964400000000 1.0
C      1  0.4995380000000  0.5548360000000  0.5504780000000 1.0
C      1  0.5004520000000  0.4451500000000  0.5504710000000 1.0
C      1  0.5573710000000  0.5381940000000  0.5046670000000 1.0
C      1  0.4426310000000  0.4618070000000  0.5046670000000 1.0
C      1  0.4507200000000  0.5269880000000  0.5232260000000 1.0
C      1  0.5492810000000  0.4730130000000  0.5232260000000 1.0
C      1  0.4378850000000  0.5189740000000  0.4479740000000 1.0
C      1  0.5621140000000  0.4810260000000  0.4479740000000 1.0
C      1  0.4388270000000  0.5087130000000  0.5446130000000 1.0
C      1  0.5611730000000  0.4912860000000  0.5446150000000 1.0
END
