TITL C-3985250-725-201 -5.19063660069829e-06 125000 -322.726539047735 0 0 60 (C2) n - 1
REM
REM in /home/nfs/bkarasulu/CARBON/AIRSS/Generating-Clusters/TERSOFF/Higher-Symm/Only-C60
REM
REM
REM
REM
REM
REM ./C.cell (28575a23ae977d3b5fae324c64b13b57)
REM
REM compiler GCC version 9.2.1 20190827 (Red Hat 9.2.1-1)
REM options -cpp -mtune=generic -march=x86-64 -g -O0 -fpre-include=/usr/include/finclude/math-vector-fortran.h
REM seed 2073925697 1000549860 149463143 -1114902388 896284366 -1415585324 1807101221 -2126471639 30661190 -1102162049 1274958408 -745235833 2031460800 -1348696854 -1017192578 -1377741424 1143602407 640476617 -473495781 -224246688 -1428409968 2026869424 930751295 1544352238 924601154 -631802991 -941594332 -264630092 -1091245223 1482567234 -258662119 -997997026 -1711064342
REM
CELL 1.54180   50.00000   50.00000   50.00000   90.00000   90.00000   90.00000
LATT -1
SFAC C  
C      1  0.5035930000000  0.5223380000000  0.4253650000000 1.0
C      1  0.5035930000000  0.4776620000000  0.5746350000000 1.0
C      1  0.4562930000000  0.5623930000000  0.5193060000000 1.0
C      1  0.4562930000000  0.4376070000000  0.4806940000000 1.0
C      1  0.5540490000000  0.5348860000000  0.4627770000000 1.0
C      1  0.5540490000000  0.4651140000000  0.5372230000000 1.0
C      1  0.5334750000000  0.5572350000000  0.4435150000000 1.0
C      1  0.5334750000000  0.4427650000000  0.5564850000000 1.0
C      1  0.5046130000000  0.4303990000000  0.4766370000000 1.0
C      1  0.5046130000000  0.5696010000000  0.5233630000000 1.0
C      1  0.5088590000000  0.5024880000000  0.4473830000000 1.0
C      1  0.5088590000000  0.4975120000000  0.5526170000000 1.0
C      1  0.5528870000000  0.5522260000000  0.4938610000000 1.0
C      1  0.5528870000000  0.4477740000000  0.5061390000000 1.0
C      1  0.4847510000000  0.4787720000000  0.4411320000000 1.0
C      1  0.4847510000000  0.5212280000000  0.5588680000000 1.0
C      1  0.5265780000000  0.4762840000000  0.4427570000000 1.0
C      1  0.5265780000000  0.5237160000000  0.5572430000000 1.0
C      1  0.5152100000000  0.5541910000000  0.4719200000000 1.0
C      1  0.5152100000000  0.4458090000000  0.5280800000000 1.0
C      1  0.5666020000000  0.5048430000000  0.4595030000000 1.0
C      1  0.5666020000000  0.4951570000000  0.5404970000000 1.0
C      1  0.4633790000000  0.4994910000000  0.5450160000000 1.0
C      1  0.4633790000000  0.5005090000000  0.4549840000000 1.0
C      1  0.5503310000000  0.4785380000000  0.4602190000000 1.0
C      1  0.5503310000000  0.5214620000000  0.5397810000000 1.0
C      1  0.4784690000000  0.4221740000000  0.4904030000000 1.0
C      1  0.4784690000000  0.5778260000000  0.5095970000000 1.0
C      1  0.4792320000000  0.4197980000000  0.5204480000000 1.0
C      1  0.4792320000000  0.5802020000000  0.4795520000000 1.0
C      1  0.4253320000000  0.5050750000000  0.4856640000000 1.0
C      1  0.4253320000000  0.4949250000000  0.5143360000000 1.0
C      1  0.5392710000000  0.4673010000000  0.4858540000000 1.0
C      1  0.5392710000000  0.5326990000000  0.5141460000000 1.0
C      1  0.5273130000000  0.4272180000000  0.5045080000000 1.0
C      1  0.5273130000000  0.5727820000000  0.4954920000000 1.0
C      1  0.4550330000000  0.5345900000000  0.5111200000000 1.0
C      1  0.4550330000000  0.4654100000000  0.4888800000000 1.0
C      1  0.4411660000000  0.5310930000000  0.4846460000000 1.0
C      1  0.4411660000000  0.4689070000000  0.5153540000000 1.0
C      1  0.5247780000000  0.5217910000000  0.4688230000000 1.0
C      1  0.5247780000000  0.4782090000000  0.5311770000000 1.0
C      1  0.5036440000000  0.5508590000000  0.4318060000000 1.0
C      1  0.5036440000000  0.4491410000000  0.5681940000000 1.0
C      1  0.4828800000000  0.5555870000000  0.4595910000000 1.0
C      1  0.4828800000000  0.4444130000000  0.5404090000000 1.0
C      1  0.4420520000000  0.5143230000000  0.5300030000000 1.0
C      1  0.4420520000000  0.4856770000000  0.4699970000000 1.0
C      1  0.5083400000000  0.5403950000000  0.5140660000000 1.0
C      1  0.5083400000000  0.4596050000000  0.4859340000000 1.0
C      1  0.5047780000000  0.4490710000000  0.4455640000000 1.0
C      1  0.5047780000000  0.5509290000000  0.5544360000000 1.0
C      1  0.4875320000000  0.5041110000000  0.4766010000000 1.0
C      1  0.4875320000000  0.4958890000000  0.5233990000000 1.0
C      1  0.5338460000000  0.4873080000000  0.5044370000000 1.0
C      1  0.5338460000000  0.5126920000000  0.4955630000000 1.0
C      1  0.4600760000000  0.4666210000000  0.5389650000000 1.0
C      1  0.4600760000000  0.5333790000000  0.4610350000000 1.0
C      1  0.4856350000000  0.4774120000000  0.4941220000000 1.0
C      1  0.4856350000000  0.5225880000000  0.5058780000000 1.0
END
