TITL C-3985256-5419-62 0.0212740983178665 125000 -301.618687289627 0 0 60 (D3) n - 1
REM
REM in /home/nfs/bkarasulu/CARBON/AIRSS/Generating-Clusters/TERSOFF/Higher-Symm/Only-C60
REM
REM
REM
REM
REM
REM ./C.cell (28575a23ae977d3b5fae324c64b13b57)
REM
REM compiler GCC version 9.2.1 20190827 (Red Hat 9.2.1-1)
REM options -cpp -mtune=generic -march=x86-64 -g -O0 -fpre-include=/usr/include/finclude/math-vector-fortran.h
REM seed -43043881 1624016515 -570738404 -1286816632 -495197525 -370359372 -1862000483 445501974 -929193352 861488348 800166979 -1100490021 1776111834 -523649952 -1569054064 -1108114536 371166123 1154498330 -575800566 -200771477 1425583346 -1234109501 -1215539652 -750094602 -1367266173 -196072167 -849839261 -1264136942 320333077 1451435802 -1864617872 -455187598 97091721
REM
CELL 1.54180   50.00000   50.00000   50.00000   90.00000   90.00000   90.00000
LATT -1
SFAC C  
C      1  0.5274490000000  0.5143810000000  0.5231890000000 1.0
C      1  0.4738570000000  0.5166260000000  0.5231800000000 1.0
C      1  0.4987260000000  0.4690460000000  0.5232050000000 1.0
C      1  0.4725510000000  0.5143810000000  0.4768110000000 1.0
C      1  0.5261430000000  0.5166260000000  0.4768200000000 1.0
C      1  0.5012740000000  0.4690460000000  0.4767950000000 1.0
C      1  0.4634790000000  0.4913000000000  0.4497260000000 1.0
C      1  0.5256390000000  0.4727080000000  0.4496940000000 1.0
C      1  0.5107000000000  0.5359750000000  0.4497560000000 1.0
C      1  0.5365210000000  0.4913000000000  0.5502740000000 1.0
C      1  0.4743610000000  0.4727080000000  0.5503060000000 1.0
C      1  0.4893000000000  0.5359750000000  0.5502440000000 1.0
C      1  0.5555620000000  0.4749540000000  0.5299190000000 1.0
C      1  0.4939040000000  0.5606150000000  0.5299400000000 1.0
C      1  0.4508680000000  0.4645500000000  0.5296000000000 1.0
C      1  0.4444380000000  0.4749540000000  0.4700810000000 1.0
C      1  0.5060960000000  0.5606150000000  0.4700600000000 1.0
C      1  0.5491320000000  0.4645500000000  0.4704000000000 1.0
C      1  0.4744890000000  0.5655840000000  0.4776160000000 1.0
C      1  0.4561700000000  0.4453600000000  0.4778430000000 1.0
C      1  0.5695280000000  0.4892770000000  0.4777060000000 1.0
C      1  0.5255110000000  0.5655840000000  0.5223840000000 1.0
C      1  0.5438300000000  0.4453600000000  0.5221570000000 1.0
C      1  0.4304720000000  0.4892770000000  0.5222940000000 1.0
C      1  0.5085930000000  0.4276440000000  0.4869970000000 1.0
C      1  0.5583620000000  0.5436410000000  0.4869810000000 1.0
C      1  0.4329980000000  0.5287560000000  0.4869940000000 1.0
C      1  0.4914070000000  0.4276440000000  0.5130030000000 1.0
C      1  0.4416380000000  0.5436410000000  0.5130190000000 1.0
C      1  0.5670020000000  0.5287560000000  0.5130060000000 1.0
C      1  0.5105260000000  0.4405060000000  0.5347040000000 1.0
C      1  0.5462770000000  0.5388940000000  0.5347110000000 1.0
C      1  0.4432020000000  0.5206240000000  0.5346840000000 1.0
C      1  0.4894740000000  0.4405060000000  0.4652960000000 1.0
C      1  0.4537230000000  0.5388940000000  0.4652890000000 1.0
C      1  0.5567980000000  0.5206240000000  0.4653160000000 1.0
C      1  0.4677930000000  0.4958360000000  0.5699060000000 1.0
C      1  0.5196410000000  0.4742400000000  0.5697780000000 1.0
C      1  0.5124470000000  0.5299150000000  0.5698470000000 1.0
C      1  0.5322070000000  0.4958360000000  0.4300940000000 1.0
C      1  0.4803590000000  0.4742400000000  0.4302220000000 1.0
C      1  0.4875530000000  0.5299150000000  0.4301530000000 1.0
C      1  0.5738040000000  0.4948980000000  0.5100320000000 1.0
C      1  0.4675200000000  0.5665050000000  0.5100880000000 1.0
C      1  0.4585680000000  0.4385890000000  0.5100610000000 1.0
C      1  0.4261960000000  0.4948980000000  0.4899680000000 1.0
C      1  0.5324800000000  0.5665050000000  0.4899120000000 1.0
C      1  0.5414320000000  0.4385890000000  0.4899390000000 1.0
C      1  0.5394460000000  0.5238100000000  0.4378570000000 1.0
C      1  0.4596720000000  0.5222600000000  0.4378410000000 1.0
C      1  0.5008930000000  0.4539510000000  0.4378110000000 1.0
C      1  0.4605540000000  0.5238100000000  0.5621430000000 1.0
C      1  0.5403280000000  0.5222600000000  0.5621590000000 1.0
C      1  0.4991070000000  0.4539510000000  0.5621890000000 1.0
C      1  0.5208020000000  0.4728990000000  0.5006110000000 1.0
C      1  0.5134610000000  0.5313700000000  0.5005520000000 1.0
C      1  0.4662060000000  0.4952870000000  0.5005780000000 1.0
C      1  0.4791980000000  0.4728990000000  0.4993890000000 1.0
C      1  0.4865390000000  0.5313700000000  0.4994480000000 1.0
C      1  0.5337940000000  0.4952870000000  0.4994220000000 1.0
END
