TITL C-3985254-1270-2039 -0.00185825104171123 125000 -245.784084868125 0 0 60 (D6d) n - 1
REM
REM in /home/nfs/bkarasulu/CARBON/AIRSS/Generating-Clusters/TERSOFF/Higher-Symm/Only-C60
REM
REM
REM
REM
REM
REM ./C.cell (28575a23ae977d3b5fae324c64b13b57)
REM
REM compiler GCC version 9.2.1 20190827 (Red Hat 9.2.1-1)
REM options -cpp -mtune=generic -march=x86-64 -g -O0 -fpre-include=/usr/include/finclude/math-vector-fortran.h
REM seed 977718581 -1725967583 117889070 -936431767 -1409404044 466267839 -84843910 1199438629 -1134068004 1375091363 -2047842196 1954211488 1256687868 -157308054 -1504603843 235356119 1272920135 263805331 -1556844149 -1403500038 -1137403165 -891236469 -1137928593 -409614553 -233205388 -1591749211 -1739386637 -752879505 1468179640 1774183795 1661446536 1702203331 1186095313
REM
CELL 1.54180   50.00000   50.00000   50.00000   90.00000   90.00000   90.00000
LATT -1
SFAC C  
C      1  0.4585570000000  0.4826610000000  0.4380230000000 1.0
C      1  0.4585800000000  0.5450030000000  0.4539980000000 1.0
C      1  0.4585800000000  0.5623400000000  0.5159730000000 1.0
C      1  0.4585570000000  0.5173390000000  0.5619770000000 1.0
C      1  0.4585800000000  0.4549970000000  0.5460020000000 1.0
C      1  0.4585800000000  0.4376600000000  0.4840270000000 1.0
C      1  0.4585570000000  0.4826610000000  0.5619770000000 1.0
C      1  0.4585800000000  0.5450030000000  0.5460020000000 1.0
C      1  0.4585800000000  0.5623400000000  0.4840270000000 1.0
C      1  0.4585570000000  0.5173390000000  0.4380230000000 1.0
C      1  0.4585800000000  0.4549970000000  0.4539980000000 1.0
C      1  0.4585800000000  0.4376600000000  0.5159730000000 1.0
C      1  0.4827590000000  0.5662650000000  0.5577110000000 1.0
C      1  0.4827590000000  0.4831530000000  0.5862430000000 1.0
C      1  0.4827590000000  0.4168890000000  0.5285310000000 1.0
C      1  0.4827590000000  0.4337350000000  0.4422890000000 1.0
C      1  0.4827590000000  0.5168470000000  0.4137570000000 1.0
C      1  0.4827590000000  0.5831110000000  0.4714690000000 1.0
C      1  0.4827590000000  0.5662650000000  0.4422890000000 1.0
C      1  0.4827590000000  0.4831530000000  0.4137570000000 1.0
C      1  0.4827590000000  0.4168890000000  0.4714690000000 1.0
C      1  0.4827590000000  0.4337350000000  0.5577110000000 1.0
C      1  0.4827590000000  0.5168470000000  0.5862430000000 1.0
C      1  0.4827590000000  0.5831110000000  0.5285310000000 1.0
C      1  0.5000880000000  0.5562520000000  0.5150680000000 1.0
C      1  0.5001160000000  0.5150760000000  0.5562470000000 1.0
C      1  0.5000780000000  0.4588250000000  0.5411820000000 1.0
C      1  0.5000880000000  0.4437480000000  0.4849320000000 1.0
C      1  0.5001160000000  0.4849240000000  0.4437530000000 1.0
C      1  0.5000780000000  0.5411750000000  0.4588180000000 1.0
C      1  0.5000880000000  0.5562520000000  0.4849320000000 1.0
C      1  0.5001160000000  0.5150760000000  0.4437530000000 1.0
C      1  0.5000780000000  0.4588250000000  0.4588180000000 1.0
C      1  0.5000880000000  0.4437480000000  0.5150680000000 1.0
C      1  0.5001160000000  0.4849240000000  0.5562470000000 1.0
C      1  0.5000780000000  0.5411750000000  0.5411820000000 1.0
C      1  0.5415250000000  0.4375770000000  0.4824930000000 1.0
C      1  0.5415190000000  0.4839510000000  0.4371880000000 1.0
C      1  0.5415360000000  0.5463740000000  0.4546930000000 1.0
C      1  0.5415250000000  0.5624230000000  0.5175070000000 1.0
C      1  0.5415190000000  0.5160490000000  0.5628120000000 1.0
C      1  0.5415360000000  0.4536260000000  0.5453070000000 1.0
C      1  0.5415250000000  0.4375770000000  0.5175070000000 1.0
C      1  0.5415190000000  0.4839510000000  0.5628120000000 1.0
C      1  0.5415360000000  0.5463740000000  0.5453070000000 1.0
C      1  0.5415250000000  0.5624230000000  0.4824930000000 1.0
C      1  0.5415190000000  0.5160490000000  0.4371880000000 1.0
C      1  0.5415360000000  0.4536260000000  0.4546930000000 1.0
C      1  0.5170480000000  0.5864800000000  0.4831630000000 1.0
C      1  0.5170480000000  0.5578220000000  0.5664760000000 1.0
C      1  0.5170480000000  0.4713410000000  0.5833120000000 1.0
C      1  0.5170480000000  0.4135200000000  0.5168370000000 1.0
C      1  0.5170480000000  0.4421780000000  0.4335240000000 1.0
C      1  0.5170480000000  0.5286590000000  0.4166880000000 1.0
C      1  0.5170480000000  0.5864800000000  0.5168370000000 1.0
C      1  0.5170480000000  0.5578220000000  0.4335240000000 1.0
C      1  0.5170480000000  0.4713410000000  0.4166880000000 1.0
C      1  0.5170480000000  0.4135200000000  0.4831630000000 1.0
C      1  0.5170480000000  0.4421780000000  0.5664760000000 1.0
C      1  0.5170480000000  0.5286590000000  0.5833120000000 1.0
END
