TITL C-3985250-725-1251 7.01713201203942e-06 125000 -329.725164416529 0 0 60 (C3) n - 1
REM
REM in /home/nfs/bkarasulu/CARBON/AIRSS/Generating-Clusters/TERSOFF/Higher-Symm/Only-C60
REM
REM
REM
REM
REM
REM ./C.cell (28575a23ae977d3b5fae324c64b13b57)
REM
REM compiler GCC version 9.2.1 20190827 (Red Hat 9.2.1-1)
REM options -cpp -mtune=generic -march=x86-64 -g -O0 -fpre-include=/usr/include/finclude/math-vector-fortran.h
REM seed -1964143028 377196394 1710357399 -2106149432 -1674419610 -186471793 1532043451 -399936175 -1960199224 -1495527549 1201628641 -980414997 -1091487984 466801888 -1711669748 1351005291 -2067762375 202163127 205236096 -1067883566 -321038241 -1203227626 -2003696217 944261732 434357979 946949749 2008213773 -2115217247 -205015678 -1871766659 2039915027 -910239040 593578665
REM
CELL 1.54180   50.00000   50.00000   50.00000   90.00000   90.00000   90.00000
LATT -1
SFAC C  
C      1  0.5567750000000  0.5241800000000  0.4530300000000 1.0
C      1  0.5122900000000  0.5241800000000  0.5726540000000 1.0
C      1  0.4309350000000  0.5241810000000  0.4743160000000 1.0
C      1  0.4820370000000  0.4590720000000  0.4691670000000 1.0
C      1  0.5356830000000  0.4590720000000  0.4998610000000 1.0
C      1  0.4822790000000  0.4590720000000  0.5309730000000 1.0
C      1  0.5319150000000  0.4494690000000  0.5486350000000 1.0
C      1  0.4419230000000  0.4494700000000  0.5033220000000 1.0
C      1  0.5261610000000  0.4494690000000  0.4480430000000 1.0
C      1  0.5134850000000  0.4736750000000  0.4798790000000 1.0
C      1  0.5106830000000  0.4736750000000  0.5217390000000 1.0
C      1  0.4758320000000  0.4736750000000  0.4983820000000 1.0
C      1  0.4793640000000  0.5819910000000  0.5027730000000 1.0
C      1  0.5079170000000  0.5819910000000  0.4807410000000 1.0
C      1  0.5127210000000  0.5819910000000  0.5164850000000 1.0
C      1  0.5402700000000  0.5553780000000  0.4837390000000 1.0
C      1  0.4939480000000  0.5553780000000  0.5430050000000 1.0
C      1  0.4657830000000  0.5553780000000  0.4732560000000 1.0
C      1  0.4658040000000  0.4362720000000  0.5184370000000 1.0
C      1  0.5011300000000  0.4362710000000  0.4611670000000 1.0
C      1  0.5330650000000  0.4362710000000  0.5203960000000 1.0
C      1  0.5503480000000  0.4801900000000  0.5448770000000 1.0
C      1  0.4359620000000  0.4801910000000  0.5211640000000 1.0
C      1  0.5136900000000  0.4801900000000  0.4339590000000 1.0
C      1  0.4935680000000  0.5155400000000  0.4766220000000 1.0
C      1  0.5234620000000  0.5155400000000  0.5061180000000 1.0
C      1  0.4829710000000  0.5155400000000  0.5172590000000 1.0
C      1  0.4725900000000  0.5414730000000  0.5281910000000 1.0
C      1  0.4892910000000  0.5414730000000  0.4621660000000 1.0
C      1  0.5381200000000  0.5414730000000  0.5096430000000 1.0
C      1  0.5563650000000  0.4774520000000  0.5140600000000 1.0
C      1  0.4596410000000  0.4774530000000  0.5417830000000 1.0
C      1  0.4839940000000  0.4774530000000  0.4441570000000 1.0
C      1  0.5169580000000  0.5571120000000  0.4620650000000 1.0
C      1  0.5243740000000  0.5571120000000  0.5336540000000 1.0
C      1  0.4586680000000  0.5571120000000  0.5042810000000 1.0
C      1  0.5017340000000  0.4131440000000  0.4794300000000 1.0
C      1  0.5169460000000  0.4131440000000  0.5117880000000 1.0
C      1  0.4813180000000  0.4131440000000  0.5087830000000 1.0
C      1  0.4971660000000  0.5059080000000  0.5564000000000 1.0
C      1  0.4525730000000  0.5059090000000  0.4693460000000 1.0
C      1  0.5502610000000  0.5059080000000  0.4742550000000 1.0
C      1  0.5085550000000  0.5023090000000  0.5281700000000 1.0
C      1  0.4713270000000  0.5023090000000  0.4933240000000 1.0
C      1  0.5201180000000  0.5023090000000  0.4785060000000 1.0
C      1  0.5547530000000  0.5147270000000  0.5464860000000 1.0
C      1  0.4323660000000  0.5147280000000  0.5241750000000 1.0
C      1  0.5128810000000  0.5147280000000  0.4293390000000 1.0
C      1  0.4850350000000  0.5246520000000  0.4364860000000 1.0
C      1  0.5624870000000  0.5246520000000  0.5187970000000 1.0
C      1  0.4524780000000  0.5246520000000  0.5447160000000 1.0
C      1  0.4675970000000  0.5019870000000  0.5568850000000 1.0
C      1  0.4669370000000  0.5019870000000  0.4434960000000 1.0
C      1  0.5654650000000  0.5019870000000  0.4996190000000 1.0
C      1  0.5324980000000  0.5354950000000  0.4413510000000 1.0
C      1  0.5345430000000  0.5354950000000  0.5574690000000 1.0
C      1  0.4329600000000  0.5354960000000  0.5011800000000 1.0
C      1  0.5466810000000  0.4499730000000  0.4701070000000 1.0
C      1  0.5025480000000  0.4499730000000  0.5553740000000 1.0
C      1  0.4507700000000  0.4499730000000  0.4745200000000 1.0
END
