TITL C-3985257-5396-209 -0.0046964044405814 125000 -330.771757536979 0 0 60 (C1) n - 1
REM
REM in /home/nfs/bkarasulu/CARBON/AIRSS/Generating-Clusters/TERSOFF/Higher-Symm/Only-C60
REM
REM
REM
REM
REM
REM ./C.cell (28575a23ae977d3b5fae324c64b13b57)
REM
REM compiler GCC version 9.2.1 20190827 (Red Hat 9.2.1-1)
REM options -cpp -mtune=generic -march=x86-64 -g -O0 -fpre-include=/usr/include/finclude/math-vector-fortran.h
REM seed 1182827520 380979010 1505182265 1177566430 1499357602 2116232105 -617026786 615375634 -1689113384 -894548639 936172729 171343453 -1652962847 2036466837 -1982388166 -28860003 1295263212 -1751150605 -1259973407 663100695 -758097436 -312432712 -110198004 1087231684 1799202845 821774229 -145878011 2020135495 869178466 -1782718334 -1330420215 -955144986 -351515273
REM
CELL 1.54180   50.00000   50.00000   50.00000   90.00000   90.00000   90.00000
LATT -1
SFAC C  
C      1  0.4593880000000  0.5478260000000  0.4785660000000 1.0
C      1  0.5611190000000  0.5113060000000  0.4781160000000 1.0
C      1  0.4782890000000  0.4415830000000  0.4786460000000 1.0
C      1  0.5473540000000  0.4771270000000  0.5286730000000 1.0
C      1  0.4560860000000  0.4703320000000  0.5299430000000 1.0
C      1  0.4958930000000  0.5527710000000  0.5289420000000 1.0
C      1  0.4634920000000  0.4441120000000  0.5417350000000 1.0
C      1  0.4700040000000  0.5590500000000  0.5417040000000 1.0
C      1  0.5654810000000  0.4964920000000  0.5417170000000 1.0
C      1  0.4977650000000  0.4636330000000  0.5083250000000 1.0
C      1  0.4697860000000  0.5204580000000  0.5084120000000 1.0
C      1  0.5324510000000  0.5159060000000  0.5082060000000 1.0
C      1  0.4841470000000  0.4596120000000  0.4529520000000 1.0
C      1  0.4709500000000  0.5339620000000  0.4522210000000 1.0
C      1  0.5419650000000  0.5070760000000  0.4527830000000 1.0
C      1  0.5446460000000  0.5622940000000  0.5061580000000 1.0
C      1  0.5312780000000  0.4297630000000  0.5063200000000 1.0
C      1  0.4235790000000  0.5077470000000  0.5070960000000 1.0
C      1  0.4458840000000  0.5154990000000  0.5515340000000 1.0
C      1  0.5399770000000  0.5394690000000  0.5504350000000 1.0
C      1  0.5134210000000  0.4457910000000  0.5500040000000 1.0
C      1  0.4652660000000  0.4683700000000  0.5000880000000 1.0
C      1  0.4895230000000  0.5461140000000  0.4992080000000 1.0
C      1  0.5451850000000  0.4857180000000  0.4988100000000 1.0
C      1  0.5284870000000  0.5638620000000  0.5321630000000 1.0
C      1  0.5407630000000  0.4430450000000  0.5323080000000 1.0
C      1  0.4311240000000  0.4934110000000  0.5330690000000 1.0
C      1  0.5496310000000  0.4641150000000  0.4746320000000 1.0
C      1  0.4445450000000  0.4751320000000  0.4756070000000 1.0
C      1  0.5055460000000  0.5604780000000  0.4747740000000 1.0
C      1  0.4470750000000  0.5416380000000  0.5367070000000 1.0
C      1  0.5622800000000  0.5251210000000  0.5363880000000 1.0
C      1  0.4900270000000  0.4329630000000  0.5362890000000 1.0
C      1  0.4700150000000  0.4949040000000  0.5488050000000 1.0
C      1  0.5108520000000  0.5283700000000  0.5459810000000 1.0
C      1  0.5181820000000  0.4763770000000  0.5441490000000 1.0
C      1  0.5114020000000  0.4609180000000  0.4393240000000 1.0
C      1  0.4578520000000  0.5096050000000  0.4392440000000 1.0
C      1  0.5270190000000  0.5296600000000  0.4389900000000 1.0
C      1  0.5584990000000  0.5346130000000  0.5056310000000 1.0
C      1  0.5002120000000  0.4316310000000  0.5055590000000 1.0
C      1  0.4405120000000  0.5336870000000  0.5059350000000 1.0
C      1  0.5313490000000  0.5712120000000  0.4820440000000 1.0
C      1  0.5458790000000  0.4365400000000  0.4822720000000 1.0
C      1  0.4221030000000  0.4915220000000  0.4832450000000 1.0
C      1  0.5019970000000  0.5434480000000  0.4501750000000 1.0
C      1  0.5357130000000  0.4756580000000  0.4504030000000 1.0
C      1  0.4597670000000  0.4808220000000  0.4501870000000 1.0
C      1  0.5148670000000  0.4801250000000  0.4918340000000 1.0
C      1  0.4759320000000  0.4969200000000  0.4929900000000 1.0
C      1  0.5093060000000  0.5225000000000  0.4922400000000 1.0
C      1  0.4978770000000  0.5003410000000  0.6344230000000 1.0
C      1  0.4900810000000  0.5016490000000  0.6065070000000 1.0
C      1  0.5080780000000  0.4980360000000  0.5842200000000 1.0
C      1  0.4941120000000  0.5047850000000  0.3947980000000 1.0
C      1  0.5022880000000  0.4982880000000  0.3679940000000 1.0
C      1  0.4998590000000  0.4998000000000  0.4756320000000 1.0
C      1  0.4981590000000  0.5001250000000  0.4466680000000 1.0
C      1  0.5088820000000  0.4975410000000  0.4189710000000 1.0
C      1  0.5004940000000  0.5001040000000  0.5546890000000 1.0
END
