TITL C-3985254-1270-1176 5.85855422148476e-07 125000 -307.846386219298 0 0 60 (C4) n - 1
REM
REM in /home/nfs/bkarasulu/CARBON/AIRSS/Generating-Clusters/TERSOFF/Higher-Symm/Only-C60
REM
REM
REM
REM
REM
REM ./C.cell (28575a23ae977d3b5fae324c64b13b57)
REM
REM compiler GCC version 9.2.1 20190827 (Red Hat 9.2.1-1)
REM options -cpp -mtune=generic -march=x86-64 -g -O0 -fpre-include=/usr/include/finclude/math-vector-fortran.h
REM seed 1600606988 -1608003254 -1163373410 1424006665 -1988047731 -1077894035 395218820 -277402924 -149870230 -1109439787 96563188 -2134915235 1079861432 -1065242909 -1252061302 184193997 -142183810 -807815303 -625039348 -15445087 516609347 1703640631 1474259674 -862979253 1948247202 1403675421 1442849659 -972275003 2045064604 1844226633 -470437539 -424018049 -595169033
REM
CELL 1.54180   50.00000   50.00000   50.00000   90.00000   90.00000   90.00000
LATT -1
SFAC C  
C      1  0.4702170000000  0.5218530000000  0.5294190000000 1.0
C      1  0.4781470000000  0.4702170000000  0.5294190000000 1.0
C      1  0.5297830000000  0.4781470000000  0.5294190000000 1.0
C      1  0.5218530000000  0.5297830000000  0.5294190000000 1.0
C      1  0.5569430000000  0.4622630000000  0.5241860000000 1.0
C      1  0.5377370000000  0.5569430000000  0.5241860000000 1.0
C      1  0.4430570000000  0.5377370000000  0.5241860000000 1.0
C      1  0.4622630000000  0.4430570000000  0.5241860000000 1.0
C      1  0.4868310000000  0.4284500000000  0.5150770000000 1.0
C      1  0.5715500000000  0.4868310000000  0.5150770000000 1.0
C      1  0.5131690000000  0.5715500000000  0.5150770000000 1.0
C      1  0.4284500000000  0.5131690000000  0.5150770000000 1.0
C      1  0.4926810000000  0.5573100000000  0.4927220000000 1.0
C      1  0.4426900000000  0.4926810000000  0.4927220000000 1.0
C      1  0.5073190000000  0.4426900000000  0.4927220000000 1.0
C      1  0.5573100000000  0.5073190000000  0.4927220000000 1.0
C      1  0.4781120000000  0.4881980000000  0.4995290000000 1.0
C      1  0.5118020000000  0.4781120000000  0.4995290000000 1.0
C      1  0.5218880000000  0.5118020000000  0.4995290000000 1.0
C      1  0.4881980000000  0.5218880000000  0.4995290000000 1.0
C      1  0.4877680000000  0.5504060000000  0.4401080000000 1.0
C      1  0.4495940000000  0.4877680000000  0.4401080000000 1.0
C      1  0.5122320000000  0.4495940000000  0.4401080000000 1.0
C      1  0.5504060000000  0.5122320000000  0.4401080000000 1.0
C      1  0.5488760000000  0.5685130000000  0.5491030000000 1.0
C      1  0.4314870000000  0.5488760000000  0.5491030000000 1.0
C      1  0.4511240000000  0.4314870000000  0.5491030000000 1.0
C      1  0.5685130000000  0.4511240000000  0.5491030000000 1.0
C      1  0.4340700000000  0.4790960000000  0.4634440000000 1.0
C      1  0.5209040000000  0.4340700000000  0.4634440000000 1.0
C      1  0.5659300000000  0.5209040000000  0.4634440000000 1.0
C      1  0.4790960000000  0.5659300000000  0.4634440000000 1.0
C      1  0.4619160000000  0.4939830000000  0.5403750000000 1.0
C      1  0.5060170000000  0.4619160000000  0.5403750000000 1.0
C      1  0.5380840000000  0.5060170000000  0.5403750000000 1.0
C      1  0.4939830000000  0.5380840000000  0.5403750000000 1.0
C      1  0.5502650000000  0.5467000000000  0.4751740000000 1.0
C      1  0.4533000000000  0.5502650000000  0.4751740000000 1.0
C      1  0.4497350000000  0.4533000000000  0.4751740000000 1.0
C      1  0.5467000000000  0.4497350000000  0.4751740000000 1.0
C      1  0.5748360000000  0.5285730000000  0.5120290000000 1.0
C      1  0.4714270000000  0.5748360000000  0.5120290000000 1.0
C      1  0.4251640000000  0.4714270000000  0.5120290000000 1.0
C      1  0.5285730000000  0.4251640000000  0.5120290000000 1.0
C      1  0.5689330000000  0.5101650000000  0.5373670000000 1.0
C      1  0.4898350000000  0.5689330000000  0.5373670000000 1.0
C      1  0.4310670000000  0.4898350000000  0.5373670000000 1.0
C      1  0.5101650000000  0.4310670000000  0.5373670000000 1.0
C      1  0.4725010000000  0.5254860000000  0.4725980000000 1.0
C      1  0.4745140000000  0.4725010000000  0.4725980000000 1.0
C      1  0.5274990000000  0.4745140000000  0.4725980000000 1.0
C      1  0.5254860000000  0.5274990000000  0.4725980000000 1.0
C      1  0.5583460000000  0.5519360000000  0.5036460000000 1.0
C      1  0.4480640000000  0.5583460000000  0.5036460000000 1.0
C      1  0.4416540000000  0.4480640000000  0.5036460000000 1.0
C      1  0.5519360000000  0.4416540000000  0.5036460000000 1.0
C      1  0.4797500000000  0.4886600000000  0.4452240000000 1.0
C      1  0.5113400000000  0.4797500000000  0.4452240000000 1.0
C      1  0.5202500000000  0.5113400000000  0.4452240000000 1.0
C      1  0.4886600000000  0.5202500000000  0.4452240000000 1.0
END
