TITL C-3985254-1270-2 -1.67354967524196e-06 125000 -349.471632397734 0 0 60 (S4) n - 1
REM
REM in /home/nfs/bkarasulu/CARBON/AIRSS/Generating-Clusters/TERSOFF/Higher-Symm/Only-C60
REM
REM
REM
REM
REM
REM ./C.cell (28575a23ae977d3b5fae324c64b13b57)
REM
REM compiler GCC version 9.2.1 20190827 (Red Hat 9.2.1-1)
REM options -cpp -mtune=generic -march=x86-64 -g -O0 -fpre-include=/usr/include/finclude/math-vector-fortran.h
REM seed -1139924433 91512326 108299083 1806802418 1970311480 1408441266 481002078 1428702046 1685660119 586019596 -1704927769 -579422511 1984851640 95369033 956461892 1686277224 1651206254 1544189439 -1611850102 1676532272 1294021720 1078944352 2055874805 421861932 -1272325344 40323466 1004873673 -676517507 -497550369 1463178447 1850802746 1891498383 1833123876
REM
CELL 1.54180   50.00000   50.00000   50.00000   90.00000   90.00000   90.00000
LATT -1
SFAC C  
C      1  0.5045500000000  0.4786530000000  0.5142280000000 1.0
C      1  0.4786530000000  0.4954500000000  0.4857720000000 1.0
C      1  0.4954500000000  0.5213470000000  0.5142280000000 1.0
C      1  0.5213470000000  0.5045500000000  0.4857720000000 1.0
C      1  0.4941490000000  0.5569290000000  0.4596470000000 1.0
C      1  0.5569290000000  0.5058510000000  0.5403530000000 1.0
C      1  0.5058510000000  0.4430710000000  0.4596470000000 1.0
C      1  0.4430710000000  0.4941490000000  0.5403530000000 1.0
C      1  0.5379270000000  0.5587960000000  0.5423600000000 1.0
C      1  0.5587960000000  0.4620730000000  0.4576400000000 1.0
C      1  0.4620730000000  0.4412040000000  0.5423600000000 1.0
C      1  0.4412040000000  0.5379270000000  0.4576400000000 1.0
C      1  0.4991250000000  0.4298830000000  0.5102410000000 1.0
C      1  0.4298830000000  0.5008750000000  0.4897590000000 1.0
C      1  0.5008750000000  0.5701170000000  0.5102410000000 1.0
C      1  0.5701170000000  0.4991250000000  0.4897590000000 1.0
C      1  0.4831600000000  0.4787570000000  0.5349350000000 1.0
C      1  0.4787570000000  0.5168400000000  0.4650650000000 1.0
C      1  0.5168400000000  0.5212430000000  0.5349350000000 1.0
C      1  0.5212430000000  0.4831600000000  0.4650650000000 1.0
C      1  0.4876440000000  0.4917050000000  0.5627080000000 1.0
C      1  0.4917050000000  0.5123560000000  0.4372920000000 1.0
C      1  0.5123560000000  0.5082950000000  0.5627080000000 1.0
C      1  0.5082950000000  0.4876440000000  0.4372920000000 1.0
C      1  0.5520880000000  0.5082860000000  0.4414690000000 1.0
C      1  0.5082860000000  0.4479120000000  0.5585310000000 1.0
C      1  0.4479120000000  0.4917140000000  0.4414690000000 1.0
C      1  0.4917140000000  0.5520880000000  0.5585310000000 1.0
C      1  0.5086640000000  0.5383860000000  0.4399180000000 1.0
C      1  0.5383860000000  0.4913360000000  0.5600820000000 1.0
C      1  0.4913360000000  0.4616140000000  0.4399180000000 1.0
C      1  0.4616140000000  0.5086640000000  0.5600820000000 1.0
C      1  0.5334650000000  0.4678940000000  0.5179030000000 1.0
C      1  0.4678940000000  0.4665350000000  0.4820970000000 1.0
C      1  0.4665350000000  0.5321060000000  0.5179030000000 1.0
C      1  0.5321060000000  0.5334650000000  0.4820970000000 1.0
C      1  0.5098690000000  0.5652010000000  0.5384020000000 1.0
C      1  0.5652010000000  0.4901310000000  0.4615980000000 1.0
C      1  0.4901310000000  0.4347990000000  0.5384020000000 1.0
C      1  0.4347990000000  0.5098690000000  0.4615980000000 1.0
C      1  0.4654900000000  0.5073130000000  0.4233120000000 1.0
C      1  0.5073130000000  0.5345100000000  0.5766880000000 1.0
C      1  0.5345100000000  0.4926870000000  0.4233120000000 1.0
C      1  0.4926870000000  0.4654900000000  0.5766880000000 1.0
C      1  0.4891480000000  0.4435440000000  0.4845810000000 1.0
C      1  0.4435440000000  0.5108520000000  0.5154190000000 1.0
C      1  0.5108520000000  0.5564560000000  0.4845810000000 1.0
C      1  0.5564560000000  0.4891480000000  0.5154190000000 1.0
C      1  0.4468890000000  0.4628470000000  0.5016610000000 1.0
C      1  0.4628470000000  0.5531110000000  0.4983390000000 1.0
C      1  0.5531110000000  0.5371530000000  0.5016610000000 1.0
C      1  0.5371530000000  0.4468890000000  0.4983390000000 1.0
C      1  0.5332420000000  0.4532460000000  0.4701980000000 1.0
C      1  0.4532460000000  0.4667580000000  0.5298020000000 1.0
C      1  0.4667580000000  0.5467540000000  0.4701980000000 1.0
C      1  0.5467540000000  0.5332420000000  0.5298020000000 1.0
C      1  0.5372500000000  0.5322240000000  0.4516250000000 1.0
C      1  0.5322240000000  0.4627500000000  0.5483750000000 1.0
C      1  0.4627500000000  0.4677760000000  0.4516250000000 1.0
C      1  0.4677760000000  0.5372500000000  0.5483750000000 1.0
END
