TITL C-3985253-1688-492 0.000645541695873878 125000 -301.489103553771 0 0 60 (Ci) n - 1
REM
REM in /home/nfs/bkarasulu/CARBON/AIRSS/Generating-Clusters/TERSOFF/Higher-Symm/Only-C60
REM
REM
REM
REM
REM
REM ./C.cell (28575a23ae977d3b5fae324c64b13b57)
REM
REM compiler GCC version 9.2.1 20190827 (Red Hat 9.2.1-1)
REM options -cpp -mtune=generic -march=x86-64 -g -O0 -fpre-include=/usr/include/finclude/math-vector-fortran.h
REM seed -571482708 1839020522 409397586 499187451 -902738828 1079874260 -378082288 1525456792 1296501926 -1237667720 -332567604 624122146 -2021162180 661672936 607668837 -937040664 1863321140 1194763418 1286234275 -985545171 1649017104 -190784378 -1475376137 -411900414 210395257 -274626544 4076380 1026536887 701661315 -32377907 -550016748 -606765450 983053307
REM
CELL 1.54180   50.00000   50.00000   50.00000   90.00000   90.00000   90.00000
LATT -1
SFAC C  
C      1  0.5660490000000  0.5174540000000  0.5118180000000 1.0
C      1  0.4339510000000  0.4825450000000  0.4881820000000 1.0
C      1  0.4380200000000  0.5157700000000  0.4918590000000 1.0
C      1  0.5619790000000  0.4842310000000  0.5081410000000 1.0
C      1  0.5267020000000  0.4429950000000  0.4597810000000 1.0
C      1  0.4732980000000  0.5570050000000  0.5402200000000 1.0
C      1  0.4784800000000  0.5491570000000  0.4486550000000 1.0
C      1  0.5215200000000  0.4508440000000  0.5513450000000 1.0
C      1  0.4993170000000  0.3992850000000  0.4758350000000 1.0
C      1  0.5006830000000  0.6007150000000  0.5241650000000 1.0
C      1  0.5295460000000  0.4922250000000  0.5113870000000 1.0
C      1  0.4704550000000  0.5077750000000  0.4886130000000 1.0
C      1  0.4899180000000  0.5133070000000  0.5253320000000 1.0
C      1  0.5100820000000  0.4866930000000  0.4746680000000 1.0
C      1  0.4756540000000  0.4457560000000  0.4803100000000 1.0
C      1  0.5243460000000  0.5542440000000  0.5196900000000 1.0
C      1  0.5531720000000  0.4848500000000  0.4501720000000 1.0
C      1  0.4468270000000  0.5151510000000  0.5498270000000 1.0
C      1  0.4522090000000  0.4690030000000  0.4690390000000 1.0
C      1  0.5477910000000  0.5309970000000  0.5309600000000 1.0
C      1  0.4337590000000  0.5033470000000  0.5254170000000 1.0
C      1  0.5662430000000  0.4966570000000  0.4745830000000 1.0
C      1  0.5150640000000  0.4994850000000  0.5380090000000 1.0
C      1  0.4849360000000  0.5005150000000  0.4619910000000 1.0
C      1  0.4565630000000  0.5214570000000  0.4396170000000 1.0
C      1  0.5434370000000  0.4785430000000  0.5603830000000 1.0
C      1  0.5090240000000  0.5038030000000  0.4365030000000 1.0
C      1  0.4909760000000  0.4961970000000  0.5634970000000 1.0
C      1  0.5023840000000  0.4282110000000  0.4773290000000 1.0
C      1  0.4976160000000  0.5717890000000  0.5226710000000 1.0
C      1  0.5223480000000  0.5295320000000  0.4381410000000 1.0
C      1  0.4776520000000  0.4704680000000  0.5618590000000 1.0
C      1  0.5089400000000  0.5505540000000  0.4531490000000 1.0
C      1  0.4910590000000  0.4494470000000  0.5468500000000 1.0
C      1  0.5184790000000  0.5148080000000  0.4892170000000 1.0
C      1  0.4815210000000  0.4851920000000  0.5107830000000 1.0
C      1  0.4885470000000  0.4606880000000  0.4497440000000 1.0
C      1  0.5114530000000  0.5393120000000  0.5502550000000 1.0
C      1  0.4435390000000  0.5344940000000  0.4667330000000 1.0
C      1  0.5564610000000  0.4655060000000  0.5332660000000 1.0
C      1  0.5093050000000  0.4707010000000  0.5008000000000 1.0
C      1  0.4906950000000  0.5292990000000  0.4992000000000 1.0
C      1  0.5214540000000  0.4415440000000  0.5014160000000 1.0
C      1  0.4785450000000  0.5584560000000  0.4985840000000 1.0
C      1  0.4635040000000  0.4861480000000  0.4434220000000 1.0
C      1  0.5364960000000  0.5138520000000  0.5565780000000 1.0
C      1  0.4624790000000  0.5591020000000  0.4722600000000 1.0
C      1  0.5375210000000  0.4408980000000  0.5277400000000 1.0
C      1  0.5248130000000  0.5604620000000  0.4839810000000 1.0
C      1  0.4751870000000  0.4395380000000  0.5160190000000 1.0
C      1  0.5657970000000  0.5268410000000  0.4821100000000 1.0
C      1  0.4342020000000  0.4731590000000  0.5178890000000 1.0
C      1  0.5682700000000  0.4579480000000  0.4907160000000 1.0
C      1  0.4317310000000  0.5420460000000  0.5092850000000 1.0
C      1  0.5376060000000  0.5333160000000  0.4785470000000 1.0
C      1  0.4623960000000  0.4666840000000  0.5214540000000 1.0
C      1  0.4525240000000  0.5604910000000  0.5170170000000 1.0
C      1  0.5474770000000  0.4395100000000  0.4829840000000 1.0
C      1  0.4772480000000  0.5272050000000  0.5512420000000 1.0
C      1  0.5227520000000  0.4727960000000  0.4487580000000 1.0
END
