TITL C-3985247-764-7 -3.44813229415544e-07 125000 -331.503149508191 0 0 60 (D2d) n - 1
REM
REM in /home/nfs/bkarasulu/CARBON/AIRSS/Generating-Clusters/TERSOFF/Higher-Symm/Only-C60
REM
REM
REM
REM
REM
REM ./C.cell (28575a23ae977d3b5fae324c64b13b57)
REM
REM compiler GCC version 9.2.1 20190827 (Red Hat 9.2.1-1)
REM options -cpp -mtune=generic -march=x86-64 -g -O0 -fpre-include=/usr/include/finclude/math-vector-fortran.h
REM seed -195093007 1288654053 2039877066 287549093 -2129441108 -381621251 -291386210 670465299 1112612494 1988673710 65466664 -271470728 1799383233 1574290958 -1330990099 -669113354 1150882345 1220359080 696238135 1928286716 135353239 495471835 2031905996 69795508 -679898053 -1320758240 935081434 1424774314 -1607278043 1772023691 1529221248 753310881 -241691277
REM
CELL 1.54180   50.00000   50.00000   50.00000   90.00000   90.00000   90.00000
LATT -1
SFAC C  
C      1  0.5191380000000  0.5654980000000  0.5236500000000 1.0
C      1  0.4808620000000  0.4345020000000  0.5236500000000 1.0
C      1  0.4808620000000  0.5654980000000  0.4763500000000 1.0
C      1  0.5191380000000  0.4345020000000  0.4763500000000 1.0
C      1  0.5654980000000  0.5191380000000  0.5236500000000 1.0
C      1  0.4345020000000  0.4808620000000  0.5236500000000 1.0
C      1  0.5654980000000  0.4808620000000  0.4763500000000 1.0
C      1  0.4345020000000  0.5191380000000  0.4763500000000 1.0
C      1  0.4938280000000  0.5287490000000  0.4608700000000 1.0
C      1  0.5061720000000  0.4712510000000  0.4608700000000 1.0
C      1  0.5061720000000  0.5287490000000  0.5391300000000 1.0
C      1  0.4938280000000  0.4712510000000  0.5391300000000 1.0
C      1  0.5287490000000  0.4938280000000  0.4608700000000 1.0
C      1  0.4712510000000  0.5061720000000  0.4608700000000 1.0
C      1  0.5287490000000  0.5061720000000  0.5391300000000 1.0
C      1  0.4712510000000  0.4938280000000  0.5391300000000 1.0
C      1  0.4725210000000  0.5745100000000  0.5029700000000 1.0
C      1  0.5274790000000  0.4254900000000  0.5029700000000 1.0
C      1  0.5274790000000  0.5745100000000  0.4970300000000 1.0
C      1  0.4725210000000  0.4254900000000  0.4970300000000 1.0
C      1  0.5745100000000  0.4725210000000  0.5029700000000 1.0
C      1  0.4254900000000  0.5274790000000  0.5029700000000 1.0
C      1  0.5745100000000  0.5274790000000  0.4970300000000 1.0
C      1  0.4254900000000  0.4725210000000  0.4970300000000 1.0
C      1  0.4459090000000  0.4714980000000  0.4497770000000 1.0
C      1  0.5540910000000  0.5285020000000  0.4497770000000 1.0
C      1  0.5540910000000  0.4714980000000  0.5502230000000 1.0
C      1  0.4459090000000  0.5285020000000  0.5502230000000 1.0
C      1  0.4714980000000  0.4459090000000  0.4497770000000 1.0
C      1  0.5285020000000  0.5540910000000  0.4497770000000 1.0
C      1  0.4714980000000  0.5540910000000  0.5502230000000 1.0
C      1  0.5285020000000  0.4459090000000  0.5502230000000 1.0
C      1  0.5106380000000  0.4676650000000  0.5635220000000 1.0
C      1  0.4893620000000  0.5323350000000  0.5635220000000 1.0
C      1  0.4893620000000  0.4676650000000  0.4364780000000 1.0
C      1  0.5106380000000  0.5323350000000  0.4364780000000 1.0
C      1  0.4676650000000  0.5106380000000  0.5635220000000 1.0
C      1  0.5323350000000  0.4893620000000  0.5635220000000 1.0
C      1  0.4676650000000  0.4893620000000  0.4364780000000 1.0
C      1  0.5323350000000  0.5106380000000  0.4364780000000 1.0
C      1  0.4920010000000  0.5285030000000  0.5124740000000 1.0
C      1  0.5079990000000  0.4714970000000  0.5124740000000 1.0
C      1  0.5079990000000  0.5285030000000  0.4875260000000 1.0
C      1  0.4920010000000  0.4714970000000  0.4875260000000 1.0
C      1  0.5285030000000  0.4920010000000  0.5124740000000 1.0
C      1  0.4714970000000  0.5079990000000  0.5124740000000 1.0
C      1  0.5285030000000  0.5079990000000  0.4875260000000 1.0
C      1  0.4714970000000  0.4920010000000  0.4875260000000 1.0
C      1  0.4869250000000  0.5674120000000  0.5274000000000 1.0
C      1  0.5130750000000  0.4325880000000  0.5274000000000 1.0
C      1  0.5130750000000  0.5674120000000  0.4726000000000 1.0
C      1  0.4869250000000  0.4325880000000  0.4726000000000 1.0
C      1  0.5674120000000  0.4869250000000  0.5274000000000 1.0
C      1  0.4325880000000  0.5130750000000  0.5274000000000 1.0
C      1  0.5674120000000  0.5130750000000  0.4726000000000 1.0
C      1  0.4325880000000  0.4869250000000  0.4726000000000 1.0
C      1  0.5396920000000  0.4603080000000  0.4623010000000 1.0
C      1  0.4603080000000  0.4603080000000  0.5376990000000 1.0
C      1  0.4603080000000  0.5396920000000  0.4623010000000 1.0
C      1  0.5396920000000  0.5396920000000  0.5376990000000 1.0
END
