TITL C-3985250-725-152 0.000294764483368536 125000 -317.900039913235 0 0 60 (C3) n - 1
REM
REM in /home/nfs/bkarasulu/CARBON/AIRSS/Generating-Clusters/TERSOFF/Higher-Symm/Only-C60
REM
REM
REM
REM
REM
REM ./C.cell (28575a23ae977d3b5fae324c64b13b57)
REM
REM compiler GCC version 9.2.1 20190827 (Red Hat 9.2.1-1)
REM options -cpp -mtune=generic -march=x86-64 -g -O0 -fpre-include=/usr/include/finclude/math-vector-fortran.h
REM seed 1184696714 1164046508 449848035 1810356087 548121834 1806262417 -1764707400 -1162842940 -246852677 -44745864 -2126947065 1513879872 1632528106 883260425 -58159241 1334961135 547608588 1451992674 1495526447 -270571326 2098894374 -33773111 1008064765 -1841241004 1091190189 346512638 -785944029 -2009595954 -1294434636 -735168768 1291954434 400712045 1476848490
REM
CELL 1.54180   50.00000   50.00000   50.00000   90.00000   90.00000   90.00000
LATT -1
SFAC C  
C      1  0.5187660000000  0.4934510000000  0.4192900000000 1.0
C      1  0.4849490000000  0.4870100000000  0.4192910000000 1.0
C      1  0.4962790000000  0.5195170000000  0.4192880000000 1.0
C      1  0.5379480000000  0.5601480000000  0.5071620000000 1.0
C      1  0.5331170000000  0.4370650000000  0.5071750000000 1.0
C      1  0.4289370000000  0.5027890000000  0.5071700000000 1.0
C      1  0.4255690000000  0.4741340000000  0.4937320000000 1.0
C      1  0.5148160000000  0.5773930000000  0.4937150000000 1.0
C      1  0.5596170000000  0.4484750000000  0.4937330000000 1.0
C      1  0.4896110000000  0.5283110000000  0.5693470000000 1.0
C      1  0.5297100000000  0.4948530000000  0.5693510000000 1.0
C      1  0.4806850000000  0.4768540000000  0.5693530000000 1.0
C      1  0.4672090000000  0.4599050000000  0.5495820000000 1.0
C      1  0.4816700000000  0.5484530000000  0.5495740000000 1.0
C      1  0.5511240000000  0.4916560000000  0.5495770000000 1.0
C      1  0.5234680000000  0.5209250000000  0.4960140000000 1.0
C      1  0.5063870000000  0.4692120000000  0.4960180000000 1.0
C      1  0.4701430000000  0.5098620000000  0.4960170000000 1.0
C      1  0.5234610000000  0.4538210000000  0.4466950000000 1.0
C      1  0.4482790000000  0.5027630000000  0.4466930000000 1.0
C      1  0.5282560000000  0.5434010000000  0.4466880000000 1.0
C      1  0.4564620000000  0.5415120000000  0.5349220000000 1.0
C      1  0.5577170000000  0.5169560000000  0.5349220000000 1.0
C      1  0.4858260000000  0.4415440000000  0.5349310000000 1.0
C      1  0.4551510000000  0.5505620000000  0.5060670000000 1.0
C      1  0.5662140000000  0.5135600000000  0.5060690000000 1.0
C      1  0.4786380000000  0.4358790000000  0.5060770000000 1.0
C      1  0.5183920000000  0.5014100000000  0.4718720000000 1.0
C      1  0.4920240000000  0.4833620000000  0.4718740000000 1.0
C      1  0.4895790000000  0.5152210000000  0.4718720000000 1.0
C      1  0.5412800000000  0.4710200000000  0.5309620000000 1.0
C      1  0.4542590000000  0.4787430000000  0.5309640000000 1.0
C      1  0.5044610000000  0.5502440000000  0.5309560000000 1.0
C      1  0.5004280000000  0.4802640000000  0.5279120000000 1.0
C      1  0.4826900000000  0.5095020000000  0.5279100000000 1.0
C      1  0.5168820000000  0.5102440000000  0.5279070000000 1.0
C      1  0.4425350000000  0.5086660000000  0.5400790000000 1.0
C      1  0.5362370000000  0.5454410000000  0.5400730000000 1.0
C      1  0.5212320000000  0.4459020000000  0.5400840000000 1.0
C      1  0.5305810000000  0.4835180000000  0.4448840000000 1.0
C      1  0.4704370000000  0.4817470000000  0.4448850000000 1.0
C      1  0.4989770000000  0.5347190000000  0.4448810000000 1.0
C      1  0.4998680000000  0.4425560000000  0.4617540000000 1.0
C      1  0.4503200000000  0.5288300000000  0.4617470000000 1.0
C      1  0.5498090000000  0.5286020000000  0.4617450000000 1.0
C      1  0.4688620000000  0.4518700000000  0.4570880000000 1.0
C      1  0.4738890000000  0.5510250000000  0.4570780000000 1.0
C      1  0.5572460000000  0.4970930000000  0.4570820000000 1.0
C      1  0.5615830000000  0.4837940000000  0.4863740000000 1.0
C      1  0.4551750000000  0.4547670000000  0.4863780000000 1.0
C      1  0.4832440000000  0.5614350000000  0.4863680000000 1.0
C      1  0.5053870000000  0.4384810000000  0.4913200000000 1.0
C      1  0.4440290000000  0.5260940000000  0.4913140000000 1.0
C      1  0.5505840000000  0.5354220000000  0.4913110000000 1.0
C      1  0.5101830000000  0.4729580000000  0.5606290000000 1.0
C      1  0.4714870000000  0.5047120000000  0.5606260000000 1.0
C      1  0.5183350000000  0.5223460000000  0.5606230000000 1.0
C      1  0.5351040000000  0.4807570000000  0.5043320000000 1.0
C      1  0.4657800000000  0.4792220000000  0.5043330000000 1.0
C      1  0.4991140000000  0.5400240000000  0.5043280000000 1.0
END
