TITL C-3985251-913-11 1.71973362043376e-05 125000 -302.191495576203 0 0 60 (C2v) n - 1
REM
REM in /home/nfs/bkarasulu/CARBON/AIRSS/Generating-Clusters/TERSOFF/Higher-Symm/Only-C60
REM
REM
REM
REM
REM
REM ./C.cell (28575a23ae977d3b5fae324c64b13b57)
REM
REM compiler GCC version 9.2.1 20190827 (Red Hat 9.2.1-1)
REM options -cpp -mtune=generic -march=x86-64 -g -O0 -fpre-include=/usr/include/finclude/math-vector-fortran.h
REM seed 1058410575 -1465304261 -762496905 -715368597 -785963876 -301812285 -822293756 1866959272 -1666288738 -1174163011 91526286 131124568 941829287 38629944 -1277546639 -1231065301 321800545 1083498412 -2072143466 260556488 305449679 -1572189875 1732004754 27329421 1439067079 -83441750 -2045656128 -1652708354 101252672 -272771024 -720517326 1302555760 547647507
REM
CELL 1.54180   50.00000   50.00000   50.00000   90.00000   90.00000   90.00000
LATT -1
SFAC C  
C      1  0.5307830000000  0.4671210000000  0.4621270000000 1.0
C      1  0.4692170000000  0.5328790000000  0.4621270000000 1.0
C      1  0.4692170000000  0.4671210000000  0.4621270000000 1.0
C      1  0.5307830000000  0.5328790000000  0.4621270000000 1.0
C      1  0.4405080000000  0.4597560000000  0.4759570000000 1.0
C      1  0.5594920000000  0.5402440000000  0.4759580000000 1.0
C      1  0.5594920000000  0.4597570000000  0.4759560000000 1.0
C      1  0.4405080000000  0.5402440000000  0.4759570000000 1.0
C      1  0.4179940000000  0.5180980000000  0.4735860000000 1.0
C      1  0.5820060000000  0.4819020000000  0.4735860000000 1.0
C      1  0.5820060000000  0.5180980000000  0.4735860000000 1.0
C      1  0.4179940000000  0.4819020000000  0.4735860000000 1.0
C      1  0.4847340000000  0.5479280000000  0.5031540000000 1.0
C      1  0.5152630000000  0.4520730000000  0.5031540000000 1.0
C      1  0.5152630000000  0.5479270000000  0.5031540000000 1.0
C      1  0.4847370000000  0.4520730000000  0.5031540000000 1.0
C      1  0.4201060000000  0.5145520000000  0.5048070000000 1.0
C      1  0.5798940000000  0.4854480000000  0.5048070000000 1.0
C      1  0.5798940000000  0.5145520000000  0.5048070000000 1.0
C      1  0.4201060000000  0.4854480000000  0.5048070000000 1.0
C      1  0.4833260000000  0.4249920000000  0.4841880000000 1.0
C      1  0.5166740000000  0.5750080000000  0.4841880000000 1.0
C      1  0.5166740000000  0.4249920000000  0.4841880000000 1.0
C      1  0.4833260000000  0.5750080000000  0.4841880000000 1.0
C      1  0.5287630000000  0.4819980000000  0.4938710000000 1.0
C      1  0.4712370000000  0.5180020000000  0.4938710000000 1.0
C      1  0.4712370000000  0.4819980000000  0.4938710000000 1.0
C      1  0.5287630000000  0.5180020000000  0.4938710000000 1.0
C      1  0.5181730000000  0.5183370000000  0.5576890000000 1.0
C      1  0.4818270000000  0.4816630000000  0.5576890000000 1.0
C      1  0.4818270000000  0.5183370000000  0.5576890000000 1.0
C      1  0.5181730000000  0.4816630000000  0.5576890000000 1.0
C      1  0.5154570000000  0.4499300000000  0.5513030000000 1.0
C      1  0.4845430000000  0.5500700000000  0.5513030000000 1.0
C      1  0.4845430000000  0.4499300000000  0.5513030000000 1.0
C      1  0.5154570000000  0.5500700000000  0.5513030000000 1.0
C      1  0.4437720000000  0.4445350000000  0.5085320000000 1.0
C      1  0.5562280000000  0.5554650000000  0.5085310000000 1.0
C      1  0.5562270000000  0.4445350000000  0.5085320000000 1.0
C      1  0.4437750000000  0.5554650000000  0.5085310000000 1.0
C      1  0.5293430000000  0.4388500000000  0.5270240000000 1.0
C      1  0.4706570000000  0.5611500000000  0.5270230000000 1.0
C      1  0.4706570000000  0.4388500000000  0.5270240000000 1.0
C      1  0.5293430000000  0.5611500000000  0.5270230000000 1.0
C      1  0.5164080000000  0.5154990000000  0.4420190000000 1.0
C      1  0.4835920000000  0.4845010000000  0.4420190000000 1.0
C      1  0.4835910000000  0.5155000000000  0.4420190000000 1.0
C      1  0.5164090000000  0.4845000000000  0.4420190000000 1.0
C      1  0.5539740000000  0.4748080000000  0.5150620000000 1.0
C      1  0.4460260000000  0.5251920000000  0.5150620000000 1.0
C      1  0.4460260000000  0.4748080000000  0.5150620000000 1.0
C      1  0.5539740000000  0.5251920000000  0.5150620000000 1.0
C      1  0.5159080000000  0.5586900000000  0.4581780000000 1.0
C      1  0.4840910000000  0.4413100000000  0.4581780000000 1.0
C      1  0.4840910000000  0.5586900000000  0.4581780000000 1.0
C      1  0.5159090000000  0.4413100000000  0.4581780000000 1.0
C      1  0.5470760000000  0.5148970000000  0.5425040000000 1.0
C      1  0.4529240000000  0.4851030000000  0.5425040000000 1.0
C      1  0.4529240000000  0.5148970000000  0.5425040000000 1.0
C      1  0.5470760000000  0.4851030000000  0.5425040000000 1.0
END
