TITL C-3985247-764-72 2.91276800672432e-06 125000 -312.015267862989 0 0 60 (C4h) n - 1
REM
REM in /home/nfs/bkarasulu/CARBON/AIRSS/Generating-Clusters/TERSOFF/Higher-Symm/Only-C60
REM
REM
REM
REM
REM
REM ./C.cell (28575a23ae977d3b5fae324c64b13b57)
REM
REM compiler GCC version 9.2.1 20190827 (Red Hat 9.2.1-1)
REM options -cpp -mtune=generic -march=x86-64 -g -O0 -fpre-include=/usr/include/finclude/math-vector-fortran.h
REM seed -361876441 1345167521 -2075636876 1961157418 470475859 160056624 1359160488 1834037908 1961474431 1394681273 -1095028755 -306253828 479597288 1273620671 758013946 1753777197 -2144651804 473760341 -541464961 -1804904861 956046449 -879329202 -752296812 -362886785 1743023087 1188637188 -1015132797 -1250280121 658469388 1551426866 1639749815 1338440990 674552264
REM
CELL 1.54180   50.00000   50.00000   50.00000   90.00000   90.00000   90.00000
LATT -1
SFAC C  
C      1  0.4686890000000  0.4646590000000  0.5642010000000 1.0
C      1  0.4686890000000  0.5642010000000  0.5353410000000 1.0
C      1  0.4686890000000  0.5353410000000  0.4357990000000 1.0
C      1  0.4686890000000  0.4357990000000  0.4646590000000 1.0
C      1  0.5312600000000  0.4646590000000  0.5642010000000 1.0
C      1  0.5312600000000  0.5642010000000  0.5353410000000 1.0
C      1  0.5312600000000  0.5353410000000  0.4357990000000 1.0
C      1  0.5312600000000  0.4357990000000  0.4646590000000 1.0
C      1  0.5439630000000  0.4654030000000  0.4981210000000 1.0
C      1  0.5439630000000  0.4981210000000  0.5345970000000 1.0
C      1  0.5439630000000  0.5345970000000  0.5018790000000 1.0
C      1  0.5439630000000  0.5018790000000  0.4654030000000 1.0
C      1  0.4559860000000  0.4654030000000  0.4981210000000 1.0
C      1  0.4559860000000  0.4981210000000  0.5345970000000 1.0
C      1  0.4559860000000  0.5345970000000  0.5018790000000 1.0
C      1  0.4559860000000  0.5018790000000  0.4654030000000 1.0
C      1  0.4747050000000  0.5718770000000  0.4811300000000 1.0
C      1  0.4747050000000  0.4811300000000  0.4281230000000 1.0
C      1  0.4747050000000  0.4281230000000  0.5188700000000 1.0
C      1  0.4747050000000  0.5188700000000  0.5718770000000 1.0
C      1  0.5252430000000  0.5718760000000  0.4811300000000 1.0
C      1  0.5252430000000  0.4811300000000  0.4281240000000 1.0
C      1  0.5252430000000  0.4281240000000  0.5188700000000 1.0
C      1  0.5252430000000  0.5188700000000  0.5718760000000 1.0
C      1  0.5151910000000  0.5421210000000  0.5499790000000 1.0
C      1  0.5151910000000  0.5499790000000  0.4578790000000 1.0
C      1  0.5151910000000  0.4578790000000  0.4500210000000 1.0
C      1  0.5151910000000  0.4500210000000  0.5421210000000 1.0
C      1  0.4847570000000  0.5421210000000  0.5499790000000 1.0
C      1  0.4847570000000  0.5499790000000  0.4578790000000 1.0
C      1  0.4847570000000  0.4578790000000  0.4500210000000 1.0
C      1  0.4847570000000  0.4500210000000  0.5421210000000 1.0
C      1  0.4308270000000  0.5168090000000  0.5192820000000 1.0
C      1  0.4308270000000  0.5192820000000  0.4831910000000 1.0
C      1  0.4308270000000  0.4831910000000  0.4807180000000 1.0
C      1  0.4308270000000  0.4807180000000  0.5168090000000 1.0
C      1  0.5691220000000  0.5168090000000  0.5192820000000 1.0
C      1  0.5691220000000  0.5192820000000  0.4831910000000 1.0
C      1  0.5691220000000  0.4831910000000  0.4807180000000 1.0
C      1  0.5691220000000  0.4807180000000  0.5168090000000 1.0
C      1  0.4830380000000  0.5004840000000  0.4778450000000 1.0
C      1  0.4830380000000  0.4778450000000  0.4995160000000 1.0
C      1  0.4830380000000  0.4995160000000  0.5221550000000 1.0
C      1  0.4830380000000  0.5221550000000  0.5004840000000 1.0
C      1  0.5169110000000  0.5004840000000  0.4778450000000 1.0
C      1  0.5169110000000  0.4778450000000  0.4995160000000 1.0
C      1  0.5169110000000  0.4995160000000  0.5221550000000 1.0
C      1  0.5169110000000  0.5221550000000  0.5004840000000 1.0
C      1  0.4592100000000  0.4374050000000  0.4940700000000 1.0
C      1  0.4592100000000  0.4940700000000  0.5625950000000 1.0
C      1  0.4592100000000  0.5625950000000  0.5059300000000 1.0
C      1  0.4592100000000  0.5059300000000  0.4374050000000 1.0
C      1  0.5407390000000  0.4374050000000  0.4940700000000 1.0
C      1  0.5407390000000  0.4940700000000  0.5625950000000 1.0
C      1  0.5407390000000  0.5625950000000  0.5059300000000 1.0
C      1  0.5407390000000  0.5059300000000  0.4374050000000 1.0
C      1  0.4999740000000  0.5870040000000  0.4856810000000 1.0
C      1  0.4999740000000  0.4856810000000  0.4129960000000 1.0
C      1  0.4999740000000  0.4129960000000  0.5143190000000 1.0
C      1  0.4999740000000  0.5143190000000  0.5870040000000 1.0
END
