TITL C-3985250-725-264 0.00377143206355255 125000 -326.300686383394 0 0 60 (C2) n - 1
REM
REM in /home/nfs/bkarasulu/CARBON/AIRSS/Generating-Clusters/TERSOFF/Higher-Symm/Only-C60
REM
REM
REM
REM
REM
REM ./C.cell (28575a23ae977d3b5fae324c64b13b57)
REM
REM compiler GCC version 9.2.1 20190827 (Red Hat 9.2.1-1)
REM options -cpp -mtune=generic -march=x86-64 -g -O0 -fpre-include=/usr/include/finclude/math-vector-fortran.h
REM seed -1384833959 -433795609 -128192942 1493691342 -780806589 -540771234 -1272438806 1777389267 593231046 2121627719 -461208425 -158423092 724332059 133898261 2093081877 -1962196908 724408546 -172499170 -1084893943 -246926712 -1478157570 1169003755 -632238844 759567861 -49363093 93106606 508874831 -113571047 80464580 -1330142988 776666070 917933716 1673806524
REM
CELL 1.54180   50.00000   50.00000   50.00000   90.00000   90.00000   90.00000
LATT -1
SFAC C  
C      1  0.4776470000000  0.5387660000000  0.4351360000000 1.0
C      1  0.4776470000000  0.4612340000000  0.5648640000000 1.0
C      1  0.4854130000000  0.4762270000000  0.4751490000000 1.0
C      1  0.4854130000000  0.5237730000000  0.5248510000000 1.0
C      1  0.5322700000000  0.4542940000000  0.5577670000000 1.0
C      1  0.5322670000000  0.5457030000000  0.4422440000000 1.0
C      1  0.4548380000000  0.5313580000000  0.5215100000000 1.0
C      1  0.4548380000000  0.4686420000000  0.4784900000000 1.0
C      1  0.4821190000000  0.5642390000000  0.5388370000000 1.0
C      1  0.4821190000000  0.4357610000000  0.4611630000000 1.0
C      1  0.5527500000000  0.4720650000000  0.4770220000000 1.0
C      1  0.5527450000000  0.5279320000000  0.5229780000000 1.0
C      1  0.4825190000000  0.4894070000000  0.5788810000000 1.0
C      1  0.4825190000000  0.5105930000000  0.4211190000000 1.0
C      1  0.5310250000000  0.4500840000000  0.4792340000000 1.0
C      1  0.5310240000000  0.5499160000000  0.5207670000000 1.0
C      1  0.4395170000000  0.4842520000000  0.5001570000000 1.0
C      1  0.4395170000000  0.5157480000000  0.4998430000000 1.0
C      1  0.4640660000000  0.4523900000000  0.5350270000000 1.0
C      1  0.4640650000000  0.5476100000000  0.4649730000000 1.0
C      1  0.5000930000000  0.5149800000000  0.5004120000000 1.0
C      1  0.5001000000000  0.4850220000000  0.4995850000000 1.0
C      1  0.4594050000000  0.5448900000000  0.5501030000000 1.0
C      1  0.4594050000000  0.4551100000000  0.4498970000000 1.0
C      1  0.4771630000000  0.4256160000000  0.4881400000000 1.0
C      1  0.4771630000000  0.5743840000000  0.5118600000000 1.0
C      1  0.5110900000000  0.5534750000000  0.5436440000000 1.0
C      1  0.5110900000000  0.4465250000000  0.4563550000000 1.0
C      1  0.4982760000000  0.4758390000000  0.5287190000000 1.0
C      1  0.4982760000000  0.5241600000000  0.4712810000000 1.0
C      1  0.5216170000000  0.4455530000000  0.5075130000000 1.0
C      1  0.5216210000000  0.5544430000000  0.4924960000000 1.0
C      1  0.4876960000000  0.4386910000000  0.5123420000000 1.0
C      1  0.4876960000000  0.5613090000000  0.4876580000000 1.0
C      1  0.4705640000000  0.4774700000000  0.4293520000000 1.0
C      1  0.4705640000000  0.5225300000000  0.5706480000000 1.0
C      1  0.5011240000000  0.4728880000000  0.4427190000000 1.0
C      1  0.5011230000000  0.5271110000000  0.5572810000000 1.0
C      1  0.5747760000000  0.4820190000000  0.4988360000000 1.0
C      1  0.5747640000000  0.5179990000000  0.5011550000000 1.0
C      1  0.5346200000000  0.5145310000000  0.4371670000000 1.0
C      1  0.5346190000000  0.4854680000000  0.5628320000000 1.0
C      1  0.5247230000000  0.5118030000000  0.4658420000000 1.0
C      1  0.5247230000000  0.4881880000000  0.5341580000000 1.0
C      1  0.5034630000000  0.4517010000000  0.5493320000000 1.0
C      1  0.5034620000000  0.5482990000000  0.4506690000000 1.0
C      1  0.4789370000000  0.5027000000000  0.4621900000000 1.0
C      1  0.4789370000000  0.4973000000000  0.5378100000000 1.0
C      1  0.5429430000000  0.4506600000000  0.5295590000000 1.0
C      1  0.5429460000000  0.5493310000000  0.4704440000000 1.0
C      1  0.5378050000000  0.4964510000000  0.4853140000000 1.0
C      1  0.5378020000000  0.5035460000000  0.5146910000000 1.0
C      1  0.4517980000000  0.4912510000000  0.5451600000000 1.0
C      1  0.4517980000000  0.5087490000000  0.4548400000000 1.0
C      1  0.5119790000000  0.4979000000000  0.4261170000000 1.0
C      1  0.5119790000000  0.5021010000000  0.5738830000000 1.0
C      1  0.4399850000000  0.5287830000000  0.4731090000000 1.0
C      1  0.4399850000000  0.4712170000000  0.5268910000000 1.0
C      1  0.5697700000000  0.4637630000000  0.5227020000000 1.0
C      1  0.5698070000000  0.5362480000000  0.4772820000000 1.0
END
