TITL C-3985253-1688-468 7.46821302047877e-05 125000 -324.665966227073 0 0 60 (Cs) n - 1
REM
REM in /home/nfs/bkarasulu/CARBON/AIRSS/Generating-Clusters/TERSOFF/Higher-Symm/Only-C60
REM
REM
REM
REM
REM
REM ./C.cell (28575a23ae977d3b5fae324c64b13b57)
REM
REM compiler GCC version 9.2.1 20190827 (Red Hat 9.2.1-1)
REM options -cpp -mtune=generic -march=x86-64 -g -O0 -fpre-include=/usr/include/finclude/math-vector-fortran.h
REM seed -1048434821 2054017156 -489888079 -172807239 634149224 -1989415401 -1261870811 1626410858 -413598326 940784782 297514548 -86931231 513830875 1440348100 -1303725927 -2145482559 -681915033 -1458705955 -1959910953 2081853119 -598306751 94310572 2023122345 -1992344491 -875340316 -53855257 999627429 -1977154434 2082278272 -449000172 650287612 -2123157741 -1948554693
REM
CELL 1.54180   50.00000   50.00000   50.00000   90.00000   90.00000   90.00000
LATT -1
SFAC C  
C      1  0.4563850000000  0.4749470000000  0.4426390000000 1.0
C      1  0.4563850000000  0.5250530000000  0.4426390000000 1.0
C      1  0.5162470000000  0.5644110000000  0.4961110000000 1.0
C      1  0.5162460000000  0.4355910000000  0.4961120000000 1.0
C      1  0.4849320000000  0.4714780000000  0.4806720000000 1.0
C      1  0.4849350000000  0.5285230000000  0.4806740000000 1.0
C      1  0.4557560000000  0.5165970000000  0.5592580000000 1.0
C      1  0.4557560000000  0.4834030000000  0.5592580000000 1.0
C      1  0.5077110000000  0.5289910000000  0.4364730000000 1.0
C      1  0.5077100000000  0.4710080000000  0.4364760000000 1.0
C      1  0.4458710000000  0.4737500000000  0.5086330000000 1.0
C      1  0.4458700000000  0.5262490000000  0.5086320000000 1.0
C      1  0.5614230000000  0.5180850000000  0.4788840000000 1.0
C      1  0.5614210000000  0.4819160000000  0.4788850000000 1.0
C      1  0.5262830000000  0.4652710000000  0.5519100000000 1.0
C      1  0.5262830000000  0.5347280000000  0.5519110000000 1.0
C      1  0.5282590000000  0.4474910000000  0.4478390000000 1.0
C      1  0.5282600000000  0.5525090000000  0.4478410000000 1.0
C      1  0.5561880000000  0.5325300000000  0.4496860000000 1.0
C      1  0.5561900000000  0.4674690000000  0.4496840000000 1.0
C      1  0.4857210000000  0.5258820000000  0.5580420000000 1.0
C      1  0.4857210000000  0.4741180000000  0.5580420000000 1.0
C      1  0.5432100000000  0.5595420000000  0.5092550000000 1.0
C      1  0.5432110000000  0.4404600000000  0.5092550000000 1.0
C      1  0.4727330000000  0.4848220000000  0.5039160000000 1.0
C      1  0.4727340000000  0.5151780000000  0.5039140000000 1.0
C      1  0.4853340000000  0.5702800000000  0.5067590000000 1.0
C      1  0.4853350000000  0.4297200000000  0.5067590000000 1.0
C      1  0.4755140000000  0.5605190000000  0.5334950000000 1.0
C      1  0.4755150000000  0.4394810000000  0.5334950000000 1.0
C      1  0.5255530000000  0.4824980000000  0.5232740000000 1.0
C      1  0.5255540000000  0.5175030000000  0.5232730000000 1.0
C      1  0.4322830000000  0.5276890000000  0.4595530000000 1.0
C      1  0.4322840000000  0.4723110000000  0.4595530000000 1.0
C      1  0.4735150000000  0.4438840000000  0.4834150000000 1.0
C      1  0.4735150000000  0.5561170000000  0.4834150000000 1.0
C      1  0.4512490000000  0.4607420000000  0.5354160000000 1.0
C      1  0.4512500000000  0.5392580000000  0.5354170000000 1.0
C      1  0.5125600000000  0.5319540000000  0.4937640000000 1.0
C      1  0.5125620000000  0.4680450000000  0.4937660000000 1.0
C      1  0.4930260000000  0.5156740000000  0.5295250000000 1.0
C      1  0.4930260000000  0.4843260000000  0.5295240000000 1.0
C      1  0.5518100000000  0.4530790000000  0.5594060000000 1.0
C      1  0.5518100000000  0.5469210000000  0.5594050000000 1.0
C      1  0.4967760000000  0.4446510000000  0.5543650000000 1.0
C      1  0.4967750000000  0.5553500000000  0.5543650000000 1.0
C      1  0.4839640000000  0.4836690000000  0.4526960000000 1.0
C      1  0.4839630000000  0.5163310000000  0.4526980000000 1.0
C      1  0.5524720000000  0.5310840000000  0.5081160000000 1.0
C      1  0.5524720000000  0.4689130000000  0.5081130000000 1.0
C      1  0.5295940000000  0.4851050000000  0.4768460000000 1.0
C      1  0.5295900000000  0.5148950000000  0.4768460000000 1.0
C      1  0.5355030000000  0.5143120000000  0.4320580000000 1.0
C      1  0.5355020000000  0.4856900000000  0.4320560000000 1.0
C      1  0.5209270000000  0.5718800000000  0.4679030000000 1.0
C      1  0.5209270000000  0.4281160000000  0.4679030000000 1.0
C      1  0.4287540000000  0.4850680000000  0.4860440000000 1.0
C      1  0.4287540000000  0.5149320000000  0.4860440000000 1.0
C      1  0.5104450000000  0.5145510000000  0.5740450000000 1.0
C      1  0.5104450000000  0.4854490000000  0.5740450000000 1.0
END
