TITL C-3985254-1270-870 4.47960834948003e-06 125000 -344.142065964385 0 0 60 (C4h) n - 1
REM
REM in /home/nfs/bkarasulu/CARBON/AIRSS/Generating-Clusters/TERSOFF/Higher-Symm/Only-C60
REM
REM
REM
REM
REM
REM ./C.cell (28575a23ae977d3b5fae324c64b13b57)
REM
REM compiler GCC version 9.2.1 20190827 (Red Hat 9.2.1-1)
REM options -cpp -mtune=generic -march=x86-64 -g -O0 -fpre-include=/usr/include/finclude/math-vector-fortran.h
REM seed -1117847222 -877433776 885565584 1959854354 1780051700 -150175699 -258690539 734395382 -2108992165 -1357916026 1964090201 -589485712 2141549588 -923997651 -2019580080 932792042 1882026396 -99280517 752927630 1748768648 -880522242 1135293860 1208855872 1025310521 -410861608 381454273 732412962 2043060700 1142581750 1528205104 1471794903 1189018081 -1473944391
REM
CELL 1.54180   50.00000   50.00000   50.00000   90.00000   90.00000   90.00000
LATT -1
SFAC C  
C      1  0.4860680000000  0.4137200000000  0.4695550000000 1.0
C      1  0.4860680000000  0.4695550000000  0.5862800000000 1.0
C      1  0.4860680000000  0.5862800000000  0.5304450000000 1.0
C      1  0.4860680000000  0.5304450000000  0.4137200000000 1.0
C      1  0.5144220000000  0.4137200000000  0.4695550000000 1.0
C      1  0.5144220000000  0.4695550000000  0.5862800000000 1.0
C      1  0.5144220000000  0.5862800000000  0.5304450000000 1.0
C      1  0.5144220000000  0.5304450000000  0.4137200000000 1.0
C      1  0.5472540000000  0.5284940000000  0.5484090000000 1.0
C      1  0.5472540000000  0.5484090000000  0.4715060000000 1.0
C      1  0.5472540000000  0.4715060000000  0.4515910000000 1.0
C      1  0.5472540000000  0.4515910000000  0.5284940000000 1.0
C      1  0.4532360000000  0.5284940000000  0.5484090000000 1.0
C      1  0.4532360000000  0.5484090000000  0.4715060000000 1.0
C      1  0.4532360000000  0.4715060000000  0.4515910000000 1.0
C      1  0.4532360000000  0.4515910000000  0.5284940000000 1.0
C      1  0.5586060000000  0.5009890000000  0.5418130000000 1.0
C      1  0.5586060000000  0.5418130000000  0.4990110000000 1.0
C      1  0.5586060000000  0.4990110000000  0.4581870000000 1.0
C      1  0.5586060000000  0.4581870000000  0.5009890000000 1.0
C      1  0.4418840000000  0.5009890000000  0.5418130000000 1.0
C      1  0.4418840000000  0.5418130000000  0.4990110000000 1.0
C      1  0.4418840000000  0.4990110000000  0.4581870000000 1.0
C      1  0.4418840000000  0.4581870000000  0.5009890000000 1.0
C      1  0.4712320000000  0.5686200000000  0.5134370000000 1.0
C      1  0.4712320000000  0.5134370000000  0.4313800000000 1.0
C      1  0.4712320000000  0.4313800000000  0.4865630000000 1.0
C      1  0.4712320000000  0.4865630000000  0.5686200000000 1.0
C      1  0.5292580000000  0.5686200000000  0.5134370000000 1.0
C      1  0.5292580000000  0.5134370000000  0.4313800000000 1.0
C      1  0.5292580000000  0.4313800000000  0.4865630000000 1.0
C      1  0.5292580000000  0.4865630000000  0.5686200000000 1.0
C      1  0.4832690000000  0.4794350000000  0.4887460000000 1.0
C      1  0.4832690000000  0.4887460000000  0.5205650000000 1.0
C      1  0.4832690000000  0.5205650000000  0.5112540000000 1.0
C      1  0.4832690000000  0.5112540000000  0.4794350000000 1.0
C      1  0.5172200000000  0.4794350000000  0.4887460000000 1.0
C      1  0.5172200000000  0.4887460000000  0.5205650000000 1.0
C      1  0.5172200000000  0.5205650000000  0.5112540000000 1.0
C      1  0.5172200000000  0.5112540000000  0.4794350000000 1.0
C      1  0.4626800000000  0.4598760000000  0.4778900000000 1.0
C      1  0.4626800000000  0.4778900000000  0.5401240000000 1.0
C      1  0.4626800000000  0.5401240000000  0.5221100000000 1.0
C      1  0.4626800000000  0.5221100000000  0.4598760000000 1.0
C      1  0.5378100000000  0.4598760000000  0.4778900000000 1.0
C      1  0.5378100000000  0.4778900000000  0.5401240000000 1.0
C      1  0.5378100000000  0.5401240000000  0.5221100000000 1.0
C      1  0.5378100000000  0.5221100000000  0.4598760000000 1.0
C      1  0.4740440000000  0.4311950000000  0.5168460000000 1.0
C      1  0.4740440000000  0.5168460000000  0.5688050000000 1.0
C      1  0.4740440000000  0.5688050000000  0.4831540000000 1.0
C      1  0.4740440000000  0.4831540000000  0.4311950000000 1.0
C      1  0.5264450000000  0.4311950000000  0.5168460000000 1.0
C      1  0.5264450000000  0.5168460000000  0.5688050000000 1.0
C      1  0.5264450000000  0.5688050000000  0.4831540000000 1.0
C      1  0.5264450000000  0.4831540000000  0.4311950000000 1.0
C      1  0.5002450000000  0.5739260000000  0.4704380000000 1.0
C      1  0.5002450000000  0.4260740000000  0.5295620000000 1.0
C      1  0.5002450000000  0.4704380000000  0.4260740000000 1.0
C      1  0.5002450000000  0.5295620000000  0.5739260000000 1.0
END
