TITL C-3985244-725-323 0.00422197599459852 125000 -332.993477652213 0 0 60 (C1) n - 1
REM
REM in /home/nfs/bkarasulu/CARBON/AIRSS/Generating-Clusters/TERSOFF/Higher-Symm/Only-C60
REM
REM
REM
REM
REM
REM ./C.cell (28575a23ae977d3b5fae324c64b13b57)
REM
REM compiler GCC version 9.2.1 20190827 (Red Hat 9.2.1-1)
REM options -cpp -mtune=generic -march=x86-64 -g -O0 -fpre-include=/usr/include/finclude/math-vector-fortran.h
REM seed 1281399810 224276718 -466542869 341566877 -584856730 1010595063 1911124852 923436658 -173785964 1879542867 -1214422689 -467022054 653776528 413295620 887016937 134143990 -1309305624 -1202024352 -1217347510 -803525602 -22279649 617007258 781380661 -1055754639 -1518693750 1490532557 594477352 2118532791 -937736388 288257760 962767005 -546206667 -1562375175
REM
CELL 1.54180   50.00000   50.00000   50.00000   90.00000   90.00000   90.00000
LATT -1
SFAC C  
C      1  0.4988250000000  0.5774430000000  0.4976680000000 1.0
C      1  0.5182440000000  0.4405760000000  0.4418110000000 1.0
C      1  0.4570930000000  0.4616050000000  0.4942960000000 1.0
C      1  0.5486280000000  0.5606900000000  0.4847470000000 1.0
C      1  0.5071260000000  0.4951220000000  0.4661870000000 1.0
C      1  0.5038630000000  0.4345970000000  0.5185330000000 1.0
C      1  0.4815590000000  0.4534040000000  0.5647140000000 1.0
C      1  0.4818060000000  0.5405050000000  0.4457970000000 1.0
C      1  0.5389880000000  0.5347830000000  0.4735260000000 1.0
C      1  0.5017760000000  0.4242250000000  0.4859660000000 1.0
C      1  0.4649810000000  0.4880480000000  0.4409680000000 1.0
C      1  0.4570190000000  0.5173890000000  0.4464290000000 1.0
C      1  0.5362790000000  0.4550950000000  0.5544770000000 1.0
C      1  0.5063370000000  0.4618100000000  0.5040920000000 1.0
C      1  0.4377800000000  0.5142460000000  0.5177180000000 1.0
C      1  0.5677260000000  0.5036400000000  0.5065370000000 1.0
C      1  0.5523490000000  0.4537630000000  0.5077110000000 1.0
C      1  0.4951040000000  0.4781910000000  0.5721730000000 1.0
C      1  0.5074460000000  0.5331540000000  0.4318050000000 1.0
C      1  0.5343980000000  0.4419380000000  0.5285880000000 1.0
C      1  0.5132440000000  0.5343500000000  0.4898560000000 1.0
C      1  0.4770690000000  0.4457380000000  0.5367630000000 1.0
C      1  0.4966380000000  0.4592940000000  0.4469500000000 1.0
C      1  0.5059700000000  0.5067720000000  0.4194850000000 1.0
C      1  0.4160920000000  0.4860390000000  0.4803620000000 1.0
C      1  0.4919490000000  0.5126310000000  0.4878710000000 1.0
C      1  0.5297410000000  0.5822640000000  0.4897310000000 1.0
C      1  0.4332470000000  0.4633720000000  0.4765930000000 1.0
C      1  0.5410950000000  0.4567670000000  0.4810920000000 1.0
C      1  0.5259510000000  0.5549160000000  0.5554050000000 1.0
C      1  0.4526810000000  0.4601220000000  0.4525050000000 1.0
C      1  0.4264740000000  0.5111780000000  0.4897590000000 1.0
C      1  0.5329150000000  0.5394650000000  0.4446490000000 1.0
C      1  0.4550340000000  0.4615110000000  0.5224350000000 1.0
C      1  0.5169550000000  0.5706680000000  0.5279970000000 1.0
C      1  0.4822960000000  0.5046180000000  0.5649320000000 1.0
C      1  0.5161390000000  0.5399230000000  0.5174820000000 1.0
C      1  0.4623870000000  0.5398040000000  0.5202150000000 1.0
C      1  0.5547210000000  0.5455310000000  0.5529460000000 1.0
C      1  0.5349840000000  0.4854210000000  0.4724230000000 1.0
C      1  0.4708650000000  0.5699800000000  0.5131610000000 1.0
C      1  0.4461240000000  0.4885630000000  0.5334010000000 1.0
C      1  0.4854370000000  0.4625600000000  0.4810720000000 1.0
C      1  0.4927050000000  0.4996470000000  0.5158670000000 1.0
C      1  0.4689650000000  0.5345130000000  0.4886710000000 1.0
C      1  0.4913260000000  0.5382180000000  0.5349200000000 1.0
C      1  0.4825780000000  0.5580100000000  0.4737450000000 1.0
C      1  0.5190260000000  0.4866860000000  0.5233170000000 1.0
C      1  0.5260350000000  0.4339980000000  0.4693510000000 1.0
C      1  0.5640820000000  0.5250000000000  0.5291990000000 1.0
C      1  0.5337130000000  0.5182770000000  0.5289430000000 1.0
C      1  0.4946230000000  0.4877520000000  0.4387300000000 1.0
C      1  0.5255970000000  0.5118120000000  0.5574710000000 1.0
C      1  0.4722530000000  0.5009560000000  0.5376850000000 1.0
C      1  0.5214250000000  0.4808010000000  0.5588730000000 1.0
C      1  0.4457980000000  0.5253930000000  0.4731360000000 1.0
C      1  0.4718610000000  0.4328350000000  0.4675100000000 1.0
C      1  0.5008800000000  0.5312840000000  0.5659800000000 1.0
C      1  0.5712240000000  0.4753350000000  0.5149310000000 1.0
C      1  0.5525750000000  0.5077720000000  0.4808410000000 1.0
END
