TITL C-3985250-725-548 -0.00133590756670268 125000 -341.617967134586 0 0 60 (Cs) n - 1
REM
REM in /home/nfs/bkarasulu/CARBON/AIRSS/Generating-Clusters/TERSOFF/Higher-Symm/Only-C60
REM
REM
REM
REM
REM
REM ./C.cell (28575a23ae977d3b5fae324c64b13b57)
REM
REM compiler GCC version 9.2.1 20190827 (Red Hat 9.2.1-1)
REM options -cpp -mtune=generic -march=x86-64 -g -O0 -fpre-include=/usr/include/finclude/math-vector-fortran.h
REM seed -1622978998 -952641091 2105249307 -383768994 1491570071 -960242276 156506937 1006809803 1455515217 -994145693 -147587150 812389332 1769244998 1974950066 -1507960096 602476153 179630968 -734244280 -1197045410 -2016107005 1469582264 1705193148 227975917 -229175059 37783747 -2066428967 -178940767 1825605762 1740108509 -1676609189 -1749563596 -696897506 823811564
REM
CELL 1.54180   50.00000   50.00000   50.00000   90.00000   90.00000   90.00000
LATT -1
SFAC C  
C      1  0.5375410000000  0.5588300000000  0.4921140000000 1.0
C      1  0.4501620000000  0.5564930000000  0.4955670000000 1.0
C      1  0.4349120000000  0.4688890000000  0.4938050000000 1.0
C      1  0.5088220000000  0.4330380000000  0.4898010000000 1.0
C      1  0.5789060000000  0.4849510000000  0.4949110000000 1.0
C      1  0.5375220000000  0.4411820000000  0.4920760000000 1.0
C      1  0.4501500000000  0.4435210000000  0.4955730000000 1.0
C      1  0.4348870000000  0.5311550000000  0.4937920000000 1.0
C      1  0.5088450000000  0.5669440000000  0.4898100000000 1.0
C      1  0.5789250000000  0.5150710000000  0.4949310000000 1.0
C      1  0.4910160000000  0.5620320000000  0.4666670000000 1.0
C      1  0.4320060000000  0.5162290000000  0.4685900000000 1.0
C      1  0.4631690000000  0.4327260000000  0.4723670000000 1.0
C      1  0.5538610000000  0.4487820000000  0.4693940000000 1.0
C      1  0.5739250000000  0.5304150000000  0.4707910000000 1.0
C      1  0.4909860000000  0.4379270000000  0.4666590000000 1.0
C      1  0.4320500000000  0.4838250000000  0.4685920000000 1.0
C      1  0.4632070000000  0.5672710000000  0.4723650000000 1.0
C      1  0.5539390000000  0.5512800000000  0.4694220000000 1.0
C      1  0.5738350000000  0.4696830000000  0.4707390000000 1.0
C      1  0.4268280000000  0.4819130000000  0.5200660000000 1.0
C      1  0.4956220000000  0.4277230000000  0.5169320000000 1.0
C      1  0.5731080000000  0.4714000000000  0.5217700000000 1.0
C      1  0.5483740000000  0.5548640000000  0.5209240000000 1.0
C      1  0.4608170000000  0.5649560000000  0.5233320000000 1.0
C      1  0.4268030000000  0.5181430000000  0.5200280000000 1.0
C      1  0.4956330000000  0.5722800000000  0.5169350000000 1.0
C      1  0.5731170000000  0.5286030000000  0.5218010000000 1.0
C      1  0.5483780000000  0.4451340000000  0.5208960000000 1.0
C      1  0.4607970000000  0.4350320000000  0.5233260000000 1.0
C      1  0.4983910000000  0.5431360000000  0.5280700000000 1.0
C      1  0.4533490000000  0.5149020000000  0.5374010000000 1.0
C      1  0.4714130000000  0.4621420000000  0.5402030000000 1.0
C      1  0.5250840000000  0.4652820000000  0.5377320000000 1.0
C      1  0.5471890000000  0.5144050000000  0.5319770000000 1.0
C      1  0.4984050000000  0.4568850000000  0.5280480000000 1.0
C      1  0.4533810000000  0.4850560000000  0.5376160000000 1.0
C      1  0.4713970000000  0.5377840000000  0.5402070000000 1.0
C      1  0.5250750000000  0.5347120000000  0.5377350000000 1.0
C      1  0.5471780000000  0.4855950000000  0.5319400000000 1.0
C      1  0.5369460000000  0.4856090000000  0.4583650000000 1.0
C      1  0.5218380000000  0.5310930000000  0.4401650000000 1.0
C      1  0.4722200000000  0.5327070000000  0.4311220000000 1.0
C      1  0.4510260000000  0.4843610000000  0.4419140000000 1.0
C      1  0.4955720000000  0.4580520000000  0.4459440000000 1.0
C      1  0.5371560000000  0.5144910000000  0.4580910000000 1.0
C      1  0.5218230000000  0.4689310000000  0.4403230000000 1.0
C      1  0.4722670000000  0.4672070000000  0.4310500000000 1.0
C      1  0.4510340000000  0.5155020000000  0.4419980000000 1.0
C      1  0.4955460000000  0.5418500000000  0.4459730000000 1.0
C      1  0.5416890000000  0.4193810000000  0.5359220000000 1.0
C      1  0.5909480000000  0.5146700000000  0.5425850000000 1.0
C      1  0.5137950000000  0.5893470000000  0.5336860000000 1.0
C      1  0.4170200000000  0.5411850000000  0.5379120000000 1.0
C      1  0.4343290000000  0.4351930000000  0.5399580000000 1.0
C      1  0.5416920000000  0.5806190000000  0.5359430000000 1.0
C      1  0.5909440000000  0.4853040000000  0.5425690000000 1.0
C      1  0.5137890000000  0.4106590000000  0.5336850000000 1.0
C      1  0.4170200000000  0.4588340000000  0.5379170000000 1.0
C      1  0.4343450000000  0.5648130000000  0.5399650000000 1.0
END
