TITL C-3985251-913-271 -0.000675516969386556 125000 -313.996307935365 0 0 60 (D2) n - 1
REM
REM in /home/nfs/bkarasulu/CARBON/AIRSS/Generating-Clusters/TERSOFF/Higher-Symm/Only-C60
REM
REM
REM
REM
REM
REM ./C.cell (28575a23ae977d3b5fae324c64b13b57)
REM
REM compiler GCC version 9.2.1 20190827 (Red Hat 9.2.1-1)
REM options -cpp -mtune=generic -march=x86-64 -g -O0 -fpre-include=/usr/include/finclude/math-vector-fortran.h
REM seed 587234635 1884683029 582505371 -1018697107 -1431595972 1499601198 -1157128904 -733517832 -1557352714 -156775799 -2084939035 1682593237 -1780234005 -1885892852 1500282780 -904592811 189304624 326933756 565649266 823575232 1775536435 -2115582703 -1191440660 1464554618 416690672 -1085595738 -1635506592 1690575903 -300423527 1087505223 459112842 -665218086 293618506
REM
CELL 1.54180   50.00000   50.00000   50.00000   90.00000   90.00000   90.00000
LATT -1
SFAC C  
C      1  0.4889910000000  0.4617070000000  0.4452530000000 1.0
C      1  0.5110060000000  0.5382800000000  0.4452690000000 1.0
C      1  0.4889940000000  0.5382850000000  0.5547350000000 1.0
C      1  0.5110160000000  0.4617180000000  0.5547620000000 1.0
C      1  0.5269690000000  0.5549070000000  0.5255860000000 1.0
C      1  0.4730330000000  0.4450890000000  0.5255770000000 1.0
C      1  0.5269690000000  0.4450930000000  0.4744240000000 1.0
C      1  0.4730340000000  0.5549040000000  0.4744150000000 1.0
C      1  0.5023620000000  0.4631420000000  0.4850510000000 1.0
C      1  0.4976350000000  0.5368580000000  0.4850510000000 1.0
C      1  0.5023730000000  0.5368680000000  0.5149510000000 1.0
C      1  0.4976290000000  0.4631090000000  0.5149500000000 1.0
C      1  0.5795610000000  0.4975180000000  0.5208390000000 1.0
C      1  0.4204340000000  0.5024820000000  0.5208380000000 1.0
C      1  0.5795580000000  0.5024830000000  0.4791600000000 1.0
C      1  0.4204410000000  0.4975220000000  0.4791630000000 1.0
C      1  0.5361620000000  0.4648840000000  0.4294010000000 1.0
C      1  0.4638380000000  0.5351170000000  0.4294010000000 1.0
C      1  0.5361610000000  0.5351170000000  0.5705950000000 1.0
C      1  0.4638400000000  0.4648840000000  0.5706000000000 1.0
C      1  0.4609030000000  0.4924400000000  0.5577210000000 1.0
C      1  0.5390980000000  0.5075620000000  0.5577220000000 1.0
C      1  0.4609040000000  0.5075650000000  0.4422760000000 1.0
C      1  0.5390970000000  0.4924370000000  0.4422780000000 1.0
C      1  0.4583820000000  0.4797200000000  0.4782560000000 1.0
C      1  0.5416260000000  0.5202860000000  0.4782540000000 1.0
C      1  0.4583760000000  0.5202820000000  0.5217460000000 1.0
C      1  0.5416250000000  0.4797200000000  0.5217470000000 1.0
C      1  0.5410340000000  0.5255060000000  0.5265600000000 1.0
C      1  0.4589570000000  0.4744960000000  0.5265600000000 1.0
C      1  0.5410470000000  0.4745010000000  0.4734330000000 1.0
C      1  0.4589500000000  0.5254960000000  0.4734370000000 1.0
C      1  0.5615160000000  0.4893080000000  0.5453650000000 1.0
C      1  0.4384860000000  0.5106940000000  0.5453650000000 1.0
C      1  0.5615100000000  0.5106930000000  0.4546340000000 1.0
C      1  0.4384840000000  0.4893050000000  0.4546320000000 1.0
C      1  0.5127110000000  0.5081200000000  0.4381000000000 1.0
C      1  0.4872860000000  0.4918910000000  0.4381050000000 1.0
C      1  0.5127120000000  0.4918910000000  0.5618940000000 1.0
C      1  0.4872860000000  0.5081100000000  0.5618970000000 1.0
C      1  0.5652790000000  0.4772870000000  0.4946730000000 1.0
C      1  0.4347260000000  0.5227120000000  0.4946730000000 1.0
C      1  0.5652750000000  0.5227130000000  0.5053260000000 1.0
C      1  0.4347230000000  0.4772840000000  0.5053340000000 1.0
C      1  0.4827830000000  0.4959900000000  0.5164060000000 1.0
C      1  0.5172110000000  0.5040240000000  0.5164070000000 1.0
C      1  0.4827940000000  0.5040410000000  0.4835970000000 1.0
C      1  0.5172120000000  0.4959580000000  0.4835960000000 1.0
C      1  0.5304730000000  0.4351110000000  0.5043510000000 1.0
C      1  0.4695290000000  0.5648880000000  0.5043520000000 1.0
C      1  0.5304680000000  0.5648890000000  0.4956450000000 1.0
C      1  0.4695270000000  0.4351080000000  0.4956540000000 1.0
C      1  0.5254510000000  0.4553630000000  0.5276580000000 1.0
C      1  0.4745370000000  0.5446340000000  0.5276600000000 1.0
C      1  0.5254730000000  0.5446340000000  0.4723400000000 1.0
C      1  0.4745500000000  0.4553670000000  0.4723280000000 1.0
C      1  0.5163720000000  0.4486030000000  0.4440190000000 1.0
C      1  0.4836220000000  0.5514000000000  0.4440230000000 1.0
C      1  0.5163770000000  0.5513990000000  0.5559770000000 1.0
C      1  0.4836180000000  0.4485980000000  0.5559750000000 1.0
END
