TITL C-3985251-913-809 -0.000618047584691184 125000 -315.058299146063 0 0 60 (C1) n - 1
REM
REM in /home/nfs/bkarasulu/CARBON/AIRSS/Generating-Clusters/TERSOFF/Higher-Symm/Only-C60
REM
REM
REM
REM
REM
REM ./C.cell (28575a23ae977d3b5fae324c64b13b57)
REM
REM compiler GCC version 9.2.1 20190827 (Red Hat 9.2.1-1)
REM options -cpp -mtune=generic -march=x86-64 -g -O0 -fpre-include=/usr/include/finclude/math-vector-fortran.h
REM seed 1562032699 1467502515 1296771644 2085814026 1699462313 -1442769408 2144873686 -209394341 -1758721191 -1970374632 1267650656 1310283898 1346353615 1921659451 -1000215594 1260519085 -1151331941 -1828835727 116950211 828434403 -72821850 -35353741 2129790087 -274525267 1065162224 724430117 854988672 -1448956175 -1614120387 92201111 298163279 228257117 342291842
REM
CELL 1.54180   50.00000   50.00000   50.00000   90.00000   90.00000   90.00000
LATT -1
SFAC C  
C      1  0.5120900000000  0.5723580000000  0.4779160000000 1.0
C      1  0.5616470000000  0.5366070000000  0.4787290000000 1.0
C      1  0.5673170000000  0.4756890000000  0.4790800000000 1.0
C      1  0.5204530000000  0.4324990000000  0.4791840000000 1.0
C      1  0.4591250000000  0.4441240000000  0.4791420000000 1.0
C      1  0.4301630000000  0.4977310000000  0.4779010000000 1.0
C      1  0.4520260000000  0.5552620000000  0.4775900000000 1.0
C      1  0.4320190000000  0.4961320000000  0.5299870000000 1.0
C      1  0.4546910000000  0.5518090000000  0.5297410000000 1.0
C      1  0.5127310000000  0.5697560000000  0.5301790000000 1.0
C      1  0.5620820000000  0.5356180000000  0.5309960000000 1.0
C      1  0.5650440000000  0.4733400000000  0.5311540000000 1.0
C      1  0.5219690000000  0.4343950000000  0.5313830000000 1.0
C      1  0.4605180000000  0.4430920000000  0.5314610000000 1.0
C      1  0.4915490000000  0.4419040000000  0.5398260000000 1.0
C      1  0.4502520000000  0.4720960000000  0.5390250000000 1.0
C      1  0.4469790000000  0.5225400000000  0.5390410000000 1.0
C      1  0.4846100000000  0.5575640000000  0.5393100000000 1.0
C      1  0.5344270000000  0.5485790000000  0.5388790000000 1.0
C      1  0.5606400000000  0.5045310000000  0.5394420000000 1.0
C      1  0.5378080000000  0.4602240000000  0.5375980000000 1.0
C      1  0.4905220000000  0.5360670000000  0.5626680000000 1.0
C      1  0.5213270000000  0.5307460000000  0.5613990000000 1.0
C      1  0.5360460000000  0.5037770000000  0.5601390000000 1.0
C      1  0.5239460000000  0.4756860000000  0.5603710000000 1.0
C      1  0.4948050000000  0.4664190000000  0.5602100000000 1.0
C      1  0.4694520000000  0.4836630000000  0.5613040000000 1.0
C      1  0.4672010000000  0.5148500000000  0.5626760000000 1.0
C      1  0.4596150000000  0.4997390000000  0.4711730000000 1.0
C      1  0.4716780000000  0.5340680000000  0.4702920000000 1.0
C      1  0.5068050000000  0.5435550000000  0.4709810000000 1.0
C      1  0.5357980000000  0.5216230000000  0.4721140000000 1.0
C      1  0.5394690000000  0.4854700000000  0.4717850000000 1.0
C      1  0.5127150000000  0.4610060000000  0.4718300000000 1.0
C      1  0.4770780000000  0.4678810000000  0.4722220000000 1.0
C      1  0.4663610000000  0.4980830000000  0.4381750000000 1.0
C      1  0.4777190000000  0.5266220000000  0.4386390000000 1.0
C      1  0.5071380000000  0.5352510000000  0.4387330000000 1.0
C      1  0.5323040000000  0.5175560000000  0.4383870000000 1.0
C      1  0.5345150000000  0.4867350000000  0.4384590000000 1.0
C      1  0.5115960000000  0.4659190000000  0.4384670000000 1.0
C      1  0.4810990000000  0.4710040000000  0.4386370000000 1.0
C      1  0.4177380000000  0.4951620000000  0.5046230000000 1.0
C      1  0.4441110000000  0.5632620000000  0.5049900000000 1.0
C      1  0.5152370000000  0.5842190000000  0.5049220000000 1.0
C      1  0.5738570000000  0.5423930000000  0.5051640000000 1.0
C      1  0.5775580000000  0.4671340000000  0.5055420000000 1.0
C      1  0.5266370000000  0.4210340000000  0.5058710000000 1.0
C      1  0.4529400000000  0.4319370000000  0.5055500000000 1.0
C      1  0.4935840000000  0.4554270000000  0.5087610000000 1.0
C      1  0.4668520000000  0.4794500000000  0.5114540000000 1.0
C      1  0.4670600000000  0.5140450000000  0.5153760000000 1.0
C      1  0.4913190000000  0.5365440000000  0.5160280000000 1.0
C      1  0.5247470000000  0.5323410000000  0.5120660000000 1.0
C      1  0.5462470000000  0.5035930000000  0.5089890000000 1.0
C      1  0.5259570000000  0.4729150000000  0.5097870000000 1.0
C      1  0.4975690000000  0.5063250000000  0.4877700000000 1.0
C      1  0.5056470000000  0.4950690000000  0.5125990000000 1.0
C      1  0.5016360000000  0.4999700000000  0.4607930000000 1.0
C      1  0.4996600000000  0.5025530000000  0.5391930000000 1.0
END
