TITL C-3985245-9316-708 9.1516011365341e-06 125000 -318.056011208044 0 0 60 (Ci) n - 1
REM
REM in /home/nfs/bkarasulu/CARBON/AIRSS/Generating-Clusters/TERSOFF/Higher-Symm/Only-C60
REM
REM
REM
REM
REM
REM ./C.cell (28575a23ae977d3b5fae324c64b13b57)
REM
REM compiler GCC version 9.2.1 20190827 (Red Hat 9.2.1-1)
REM options -cpp -mtune=generic -march=x86-64 -g -O0 -fpre-include=/usr/include/finclude/math-vector-fortran.h
REM seed -325183102 -522202927 531660281 -734092041 411908199 169270243 -1475404725 -461131545 -16444685 -1782717482 658634813 -914181034 -767691252 31862730 1916178520 -576837781 -507375821 -314772512 1455351102 895119904 670276702 -1487902521 -1396976275 42104653 -316859947 631687610 -2087009852 -1230615938 1007708116 -1253273778 2136980320 -2146165490 -573847410
REM
CELL 1.54180   50.00000   50.00000   50.00000   90.00000   90.00000   90.00000
LATT -1
SFAC C  
C      1  0.4367190000000  0.5383080000000  0.4649670000000 1.0
C      1  0.5632810000000  0.4616920000000  0.5350330000000 1.0
C      1  0.5073690000000  0.4410460000000  0.5415090000000 1.0
C      1  0.4926310000000  0.5589540000000  0.4584910000000 1.0
C      1  0.4348460000000  0.4860730000000  0.5020690000000 1.0
C      1  0.5651540000000  0.5139270000000  0.4979310000000 1.0
C      1  0.5448700000000  0.4892040000000  0.4621630000000 1.0
C      1  0.4551300000000  0.5107960000000  0.5378370000000 1.0
C      1  0.4566270000000  0.5239670000000  0.4443890000000 1.0
C      1  0.5433730000000  0.4760330000000  0.5556110000000 1.0
C      1  0.4595670000000  0.4514620000000  0.4735840000000 1.0
C      1  0.5404330000000  0.5485380000000  0.5264160000000 1.0
C      1  0.5147440000000  0.5405450000000  0.4771690000000 1.0
C      1  0.4852560000000  0.4594550000000  0.5228310000000 1.0
C      1  0.4419120000000  0.5136760000000  0.5104480000000 1.0
C      1  0.5580880000000  0.4863240000000  0.4895520000000 1.0
C      1  0.5746660000000  0.4562600000000  0.5010640000000 1.0
C      1  0.4253340000000  0.5437400000000  0.4989360000000 1.0
C      1  0.4545140000000  0.4802640000000  0.4792920000000 1.0
C      1  0.5454860000000  0.5197360000000  0.5207080000000 1.0
C      1  0.5107490000000  0.4634160000000  0.4336340000000 1.0
C      1  0.4892520000000  0.5365840000000  0.5663660000000 1.0
C      1  0.5289850000000  0.5239300000000  0.5706160000000 1.0
C      1  0.4710150000000  0.4760700000000  0.4293840000000 1.0
C      1  0.4771890000000  0.4396970000000  0.4974080000000 1.0
C      1  0.5228110000000  0.5603030000000  0.5025920000000 1.0
C      1  0.5329150000000  0.5196180000000  0.4539380000000 1.0
C      1  0.4670850000000  0.4803820000000  0.5460620000000 1.0
C      1  0.4679110000000  0.5356250000000  0.5466360000000 1.0
C      1  0.5320890000000  0.4643750000000  0.4533640000000 1.0
C      1  0.5207810000000  0.5127970000000  0.4991580000000 1.0
C      1  0.4792200000000  0.4872030000000  0.5008410000000 1.0
C      1  0.5188660000000  0.5533750000000  0.5549160000000 1.0
C      1  0.4811340000000  0.4466250000000  0.4450850000000 1.0
C      1  0.4875260000000  0.5207040000000  0.4749090000000 1.0
C      1  0.5124740000000  0.4792960000000  0.5250910000000 1.0
C      1  0.5003670000000  0.5096870000000  0.5794150000000 1.0
C      1  0.4996330000000  0.4903130000000  0.4205850000000 1.0
C      1  0.5087680000000  0.4824900000000  0.4834580000000 1.0
C      1  0.4912320000000  0.5175100000000  0.5165430000000 1.0
C      1  0.4778410000000  0.5477020000000  0.5207140000000 1.0
C      1  0.5221590000000  0.4522980000000  0.4792860000000 1.0
C      1  0.4586220000000  0.5577830000000  0.4990360000000 1.0
C      1  0.5413780000000  0.4422170000000  0.5009640000000 1.0
C      1  0.4904750000000  0.4952560000000  0.4612670000000 1.0
C      1  0.5095250000000  0.5047440000000  0.5387340000000 1.0
C      1  0.5399430000000  0.5056570000000  0.5489450000000 1.0
C      1  0.4600570000000  0.4943430000000  0.4510550000000 1.0
C      1  0.4983990000000  0.4357480000000  0.4739600000000 1.0
C      1  0.5016010000000  0.5642520000000  0.5260400000000 1.0
C      1  0.5075170000000  0.5183360000000  0.4307220000000 1.0
C      1  0.4924830000000  0.4816640000000  0.5692780000000 1.0
C      1  0.4417550000000  0.4706180000000  0.5273380000000 1.0
C      1  0.5582450000000  0.5293820000000  0.4726620000000 1.0
C      1  0.5281380000000  0.4278580000000  0.5246030000000 1.0
C      1  0.4718620000000  0.5721420000000  0.4753970000000 1.0
C      1  0.5380140000000  0.4713150000000  0.5142440000000 1.0
C      1  0.4619860000000  0.5286850000000  0.4857560000000 1.0
C      1  0.5162780000000  0.4617940000000  0.5630190000000 1.0
C      1  0.4837220000000  0.5382060000000  0.4369810000000 1.0
END
