TITL C-3985244-725-116 -4.84094674872434e-05 125000 -309.260320678155 0 0 60 (C1) n - 1
REM
REM in /home/nfs/bkarasulu/CARBON/AIRSS/Generating-Clusters/TERSOFF/Higher-Symm/Only-C60
REM
REM
REM
REM
REM
REM ./C.cell (28575a23ae977d3b5fae324c64b13b57)
REM
REM compiler GCC version 9.2.1 20190827 (Red Hat 9.2.1-1)
REM options -cpp -mtune=generic -march=x86-64 -g -O0 -fpre-include=/usr/include/finclude/math-vector-fortran.h
REM seed -1191151916 -1684378049 1288470717 1340495122 -1864704252 1768625267 359287007 -2017590192 1224993132 -576501876 715518281 675829688 785526109 -1016433443 -1338383784 1007231503 -1629713986 -1257968283 -463530281 1915906911 -1881113104 -562535247 1250164064 -700477591 1598876930 -1933571652 -1870373222 387267686 -1045478657 1180660514 1696050269 -837799731 -1265339602
REM
CELL 1.54180   50.00000   50.00000   50.00000   90.00000   90.00000   90.00000
LATT -1
SFAC C  
C      1  0.5451970000000  0.4446840000000  0.4844580000000 1.0
C      1  0.4433880000000  0.4719880000000  0.4603790000000 1.0
C      1  0.4848870000000  0.4406970000000  0.4808880000000 1.0
C      1  0.4894500000000  0.5153200000000  0.5688710000000 1.0
C      1  0.4738110000000  0.5628890000000  0.4505780000000 1.0
C      1  0.4835920000000  0.5362990000000  0.4372680000000 1.0
C      1  0.4733860000000  0.5126300000000  0.4510670000000 1.0
C      1  0.5389800000000  0.5408720000000  0.4859920000000 1.0
C      1  0.5097450000000  0.4720480000000  0.5121180000000 1.0
C      1  0.4419010000000  0.4638300000000  0.5105790000000 1.0
C      1  0.5497860000000  0.5400760000000  0.5405460000000 1.0
C      1  0.4727030000000  0.5692310000000  0.5142800000000 1.0
C      1  0.5464810000000  0.5107770000000  0.5348810000000 1.0
C      1  0.4610470000000  0.4640220000000  0.4880460000000 1.0
C      1  0.4995480000000  0.5437300000000  0.5556920000000 1.0
C      1  0.5652040000000  0.4940770000000  0.4751460000000 1.0
C      1  0.4630060000000  0.5428910000000  0.4791700000000 1.0
C      1  0.5519460000000  0.4481060000000  0.5129270000000 1.0
C      1  0.4866690000000  0.4414450000000  0.5590810000000 1.0
C      1  0.4347260000000  0.4931760000000  0.5145500000000 1.0
C      1  0.4677750000000  0.4978450000000  0.5534060000000 1.0
C      1  0.5288560000000  0.4522870000000  0.5337640000000 1.0
C      1  0.5706280000000  0.4703060000000  0.5162100000000 1.0
C      1  0.4474860000000  0.5356840000000  0.5335890000000 1.0
C      1  0.5590950000000  0.4967150000000  0.5077340000000 1.0
C      1  0.5223370000000  0.4995670000000  0.4721310000000 1.0
C      1  0.4646300000000  0.5058990000000  0.5071260000000 1.0
C      1  0.4997820000000  0.5318250000000  0.5257180000000 1.0
C      1  0.5159260000000  0.4928940000000  0.4304460000000 1.0
C      1  0.5516730000000  0.4637030000000  0.5531020000000 1.0
C      1  0.5021240000000  0.5728970000000  0.4644180000000 1.0
C      1  0.4457800000000  0.4453210000000  0.5315410000000 1.0
C      1  0.5129480000000  0.5255790000000  0.4359960000000 1.0
C      1  0.5461710000000  0.5087890000000  0.4553450000000 1.0
C      1  0.4855390000000  0.4246170000000  0.5092500000000 1.0
C      1  0.5366950000000  0.5379140000000  0.4550030000000 1.0
C      1  0.4975580000000  0.5464870000000  0.4808490000000 1.0
C      1  0.5574580000000  0.4917320000000  0.5550830000000 1.0
C      1  0.4419850000000  0.5084150000000  0.5423760000000 1.0
C      1  0.4711780000000  0.4518750000000  0.4493750000000 1.0
C      1  0.4933780000000  0.4952450000000  0.4657540000000 1.0
C      1  0.5300710000000  0.4673840000000  0.4462940000000 1.0
C      1  0.4499600000000  0.4975930000000  0.4431920000000 1.0
C      1  0.5203730000000  0.5763550000000  0.5160910000000 1.0
C      1  0.4324270000000  0.4982810000000  0.4813770000000 1.0
C      1  0.5144920000000  0.5058520000000  0.5363510000000 1.0
C      1  0.4893880000000  0.4754660000000  0.4399020000000 1.0
C      1  0.4826590000000  0.4857560000000  0.4924100000000 1.0
C      1  0.5296960000000  0.4905660000000  0.4978930000000 1.0
C      1  0.4878260000000  0.4834810000000  0.5339680000000 1.0
C      1  0.5104230000000  0.4584000000000  0.5588840000000 1.0
C      1  0.4716420000000  0.4336910000000  0.5348840000000 1.0
C      1  0.4379980000000  0.5260510000000  0.4717000000000 1.0
C      1  0.5156280000000  0.5471410000000  0.5046500000000 1.0
C      1  0.5113420000000  0.4898020000000  0.5679790000000 1.0
C      1  0.5124400000000  0.5894050000000  0.4882460000000 1.0
C      1  0.4704740000000  0.5376160000000  0.5131280000000 1.0
C      1  0.5266590000000  0.5587390000000  0.5434700000000 1.0
C      1  0.5565450000000  0.4667990000000  0.4642930000000 1.0
C      1  0.5155020000000  0.4472380000000  0.4705500000000 1.0
END
