TITL C-3985250-725-853 -1.11248174568398e-06 125000 -319.145310618815 0 0 60 (Ci) n - 1
REM
REM in /home/nfs/bkarasulu/CARBON/AIRSS/Generating-Clusters/TERSOFF/Higher-Symm/Only-C60
REM
REM
REM
REM
REM
REM ./C.cell (28575a23ae977d3b5fae324c64b13b57)
REM
REM compiler GCC version 9.2.1 20190827 (Red Hat 9.2.1-1)
REM options -cpp -mtune=generic -march=x86-64 -g -O0 -fpre-include=/usr/include/finclude/math-vector-fortran.h
REM seed 651912728 638595720 -1519958875 -2068350296 87418280 -594237093 274990047 -10070476 2070910 -581878054 751109173 158461918 -1551463106 831237876 -1178655831 -1421491622 -890783448 -501178499 -378364253 92300726 -69967514 1564182723 -2103026283 593536866 619853581 566887105 -1664864468 1226234518 324436210 -1935889535 -1112442972 208505927 2087408965
REM
CELL 1.54180   50.00000   50.00000   50.00000   90.00000   90.00000   90.00000
LATT -1
SFAC C  
C      1  0.4415700000000  0.5208440000000  0.4661830000000 1.0
C      1  0.5584300000000  0.4791560000000  0.5338170000000 1.0
C      1  0.5140670000000  0.4488800000000  0.5387420000000 1.0
C      1  0.4859330000000  0.5511200000000  0.4612580000000 1.0
C      1  0.5228260000000  0.5148160000000  0.5076690000000 1.0
C      1  0.4771740000000  0.4851840000000  0.4923310000000 1.0
C      1  0.4894260000000  0.4517200000000  0.5545880000000 1.0
C      1  0.5105740000000  0.5482800000000  0.4454120000000 1.0
C      1  0.4430120000000  0.4667250000000  0.5138180000000 1.0
C      1  0.5569880000000  0.5332750000000  0.4861820000000 1.0
C      1  0.4884650000000  0.5380640000000  0.4888290000000 1.0
C      1  0.5115350000000  0.4619360000000  0.5111710000000 1.0
C      1  0.4327950000000  0.4945420000000  0.4841050000000 1.0
C      1  0.5672050000000  0.5054580000000  0.5158950000000 1.0
C      1  0.4719440000000  0.4363500000000  0.5118840000000 1.0
C      1  0.5280560000000  0.5636500000000  0.4881160000000 1.0
C      1  0.4893220000000  0.5235240000000  0.5648040000000 1.0
C      1  0.5106780000000  0.4764760000000  0.4351960000000 1.0
C      1  0.4921050000000  0.4410450000000  0.4674320000000 1.0
C      1  0.5078950000000  0.5589550000000  0.5325680000000 1.0
C      1  0.4888300000000  0.5044280000000  0.4427500000000 1.0
C      1  0.5111700000000  0.4955720000000  0.5572500000000 1.0
C      1  0.4629710000000  0.4486440000000  0.5376470000000 1.0
C      1  0.5370290000000  0.5513560000000  0.4623530000000 1.0
C      1  0.4403460000000  0.5254870000000  0.5221180000000 1.0
C      1  0.5596540000000  0.4745130000000  0.4778820000000 1.0
C      1  0.5087380000000  0.4926650000000  0.5263730000000 1.0
C      1  0.4912620000000  0.5073350000000  0.4736270000000 1.0
C      1  0.4593350000000  0.5434560000000  0.4511570000000 1.0
C      1  0.5406650000000  0.4565440000000  0.5488430000000 1.0
C      1  0.4617200000000  0.4902380000000  0.5431060000000 1.0
C      1  0.5382800000000  0.5097620000000  0.4568940000000 1.0
C      1  0.4443450000000  0.4636450000000  0.4775240000000 1.0
C      1  0.5556550000000  0.5363550000000  0.5224760000000 1.0
C      1  0.4794670000000  0.4955440000000  0.5197010000000 1.0
C      1  0.5205330000000  0.5044560000000  0.4802990000000 1.0
C      1  0.4305630000000  0.4972460000000  0.5158860000000 1.0
C      1  0.5694370000000  0.5027540000000  0.4841140000000 1.0
C      1  0.5286400000000  0.5040230000000  0.4294540000000 1.0
C      1  0.4713600000000  0.4959770000000  0.5705460000000 1.0
C      1  0.4583080000000  0.5007980000000  0.4440380000000 1.0
C      1  0.5416920000000  0.4992020000000  0.5559620000000 1.0
C      1  0.4820860000000  0.5247430000000  0.5175640000000 1.0
C      1  0.5179140000000  0.4752570000000  0.4824360000000 1.0
C      1  0.5137630000000  0.5420230000000  0.5560900000000 1.0
C      1  0.4862370000000  0.4579760000000  0.4439100000000 1.0
C      1  0.4585500000000  0.4713410000000  0.4493880000000 1.0
C      1  0.5414500000000  0.5286590000000  0.5506120000000 1.0
C      1  0.4675770000000  0.5594320000000  0.4988840000000 1.0
C      1  0.5324230000000  0.4405680000000  0.5011160000000 1.0
C      1  0.5189670000000  0.4311490000000  0.4756760000000 1.0
C      1  0.4810330000000  0.5688510000000  0.5243240000000 1.0
C      1  0.4741250000000  0.4523500000000  0.4878560000000 1.0
C      1  0.5258750000000  0.5476500000000  0.5121440000000 1.0
C      1  0.5345950000000  0.4657560000000  0.4577930000000 1.0
C      1  0.4654050000000  0.5342440000000  0.5422070000000 1.0
C      1  0.5561240000000  0.4596560000000  0.5036250000000 1.0
C      1  0.4438760000000  0.5403440000000  0.4963750000000 1.0
C      1  0.5070520000000  0.5257840000000  0.4267680000000 1.0
C      1  0.4929480000000  0.4742160000000  0.5732320000000 1.0
END
