TITL C-3985246-2097-105 -5.62198559524778e-07 125000 -311.071103186558 0 0 60 (C6h) n - 1
REM
REM in /home/nfs/bkarasulu/CARBON/AIRSS/Generating-Clusters/TERSOFF/Higher-Symm/Only-C60
REM
REM
REM
REM
REM
REM ./C.cell (28575a23ae977d3b5fae324c64b13b57)
REM
REM compiler GCC version 9.2.1 20190827 (Red Hat 9.2.1-1)
REM options -cpp -mtune=generic -march=x86-64 -g -O0 -fpre-include=/usr/include/finclude/math-vector-fortran.h
REM seed -1118488110 865011964 2133170681 -766626216 1942402677 -136762613 175863998 -2053602223 -398539461 -883984137 -318844307 818670869 1341355120 -1616908683 913075713 279505018 -1800046043 1920715319 -37058203 -1817582494 -1744430548 -461472859 850843574 1890093063 -543491603 -696430440 1067957484 2122086831 1119286234 1226059852 1947336768 2135194646 1686790845
REM
CELL 1.54180   50.00000   50.00000   50.00000   90.00000   90.00000   90.00000
LATT -1
SFAC C  
C      1  0.5203180000000  0.5257990000000  0.5550310000000 1.0
C      1  0.5325020000000  0.4953030000000  0.5550310000000 1.0
C      1  0.5121840000000  0.4695040000000  0.5550310000000 1.0
C      1  0.4796820000000  0.4742010000000  0.5550310000000 1.0
C      1  0.4674980000000  0.5046970000000  0.5550310000000 1.0
C      1  0.4878160000000  0.5304960000000  0.5550310000000 1.0
C      1  0.5203180000000  0.5257990000000  0.4449690000000 1.0
C      1  0.5325020000000  0.4953030000000  0.4449690000000 1.0
C      1  0.5121840000000  0.4695040000000  0.4449690000000 1.0
C      1  0.4796820000000  0.4742010000000  0.4449690000000 1.0
C      1  0.4674980000000  0.5046970000000  0.4449690000000 1.0
C      1  0.4878160000000  0.5304960000000  0.4449690000000 1.0
C      1  0.4594370000000  0.4527940000000  0.4624900000000 1.0
C      1  0.4388370000000  0.5115260000000  0.4624900000000 1.0
C      1  0.4794000000000  0.5587320000000  0.4624900000000 1.0
C      1  0.5405630000000  0.5472060000000  0.4624900000000 1.0
C      1  0.5611630000000  0.4884740000000  0.4624900000000 1.0
C      1  0.5206000000000  0.4412680000000  0.4624900000000 1.0
C      1  0.4594370000000  0.4527940000000  0.5375100000000 1.0
C      1  0.4388370000000  0.5115260000000  0.5375100000000 1.0
C      1  0.4794000000000  0.5587320000000  0.5375100000000 1.0
C      1  0.5405630000000  0.5472060000000  0.5375100000000 1.0
C      1  0.5611630000000  0.4884740000000  0.5375100000000 1.0
C      1  0.5206000000000  0.4412680000000  0.5375100000000 1.0
C      1  0.5257850000000  0.4824030000000  0.5157430000000 1.0
C      1  0.4976530000000  0.4688710000000  0.5157430000000 1.0
C      1  0.4718680000000  0.4864680000000  0.5157430000000 1.0
C      1  0.4742150000000  0.5175970000000  0.5157430000000 1.0
C      1  0.5023470000000  0.5311290000000  0.5157430000000 1.0
C      1  0.5281320000000  0.5135320000000  0.5157430000000 1.0
C      1  0.5257850000000  0.4824030000000  0.4842570000000 1.0
C      1  0.4976530000000  0.4688710000000  0.4842570000000 1.0
C      1  0.4718680000000  0.4864680000000  0.4842570000000 1.0
C      1  0.4742150000000  0.5175970000000  0.4842570000000 1.0
C      1  0.5023470000000  0.5311290000000  0.4842570000000 1.0
C      1  0.5281320000000  0.5135320000000  0.4842570000000 1.0
C      1  0.4984790000000  0.4364950000000  0.5165030000000 1.0
C      1  0.4442420000000  0.4695650000000  0.5165030000000 1.0
C      1  0.4457630000000  0.5330700000000  0.5165030000000 1.0
C      1  0.5015210000000  0.5635050000000  0.5165030000000 1.0
C      1  0.5557580000000  0.5304350000000  0.5165030000000 1.0
C      1  0.5542370000000  0.4669300000000  0.5165030000000 1.0
C      1  0.4984790000000  0.4364950000000  0.4834970000000 1.0
C      1  0.4442420000000  0.4695650000000  0.4834970000000 1.0
C      1  0.4457630000000  0.5330700000000  0.4834970000000 1.0
C      1  0.5015210000000  0.5635050000000  0.4834970000000 1.0
C      1  0.5557580000000  0.5304350000000  0.4834970000000 1.0
C      1  0.5542370000000  0.4669300000000  0.4834970000000 1.0
C      1  0.5454110000000  0.4374920000000  0.4818410000000 1.0
C      1  0.4685720000000  0.4294190000000  0.4818410000000 1.0
C      1  0.4231610000000  0.4919270000000  0.4818410000000 1.0
C      1  0.4545890000000  0.5625080000000  0.4818410000000 1.0
C      1  0.5314280000000  0.5705810000000  0.4818410000000 1.0
C      1  0.5768390000000  0.5080730000000  0.4818410000000 1.0
C      1  0.5454110000000  0.4374920000000  0.5181590000000 1.0
C      1  0.4685720000000  0.4294190000000  0.5181590000000 1.0
C      1  0.4231610000000  0.4919270000000  0.5181590000000 1.0
C      1  0.4545890000000  0.5625080000000  0.5181590000000 1.0
C      1  0.5314280000000  0.5705810000000  0.5181590000000 1.0
C      1  0.5768390000000  0.5080730000000  0.5181590000000 1.0
END
