TITL C-3985244-725-737 -6.85909686445945e-10 125000 -293.7126732069 0 0 60 (Th) n - 1
REM
REM in /home/nfs/bkarasulu/CARBON/AIRSS/Generating-Clusters/TERSOFF/Higher-Symm/Only-C60
REM
REM
REM
REM
REM
REM ./C.cell (28575a23ae977d3b5fae324c64b13b57)
REM
REM compiler GCC version 9.2.1 20190827 (Red Hat 9.2.1-1)
REM options -cpp -mtune=generic -march=x86-64 -g -O0 -fpre-include=/usr/include/finclude/math-vector-fortran.h
REM seed -977427090 951595852 678627741 -531432095 1354989020 2058393162 791125104 934960586 -1129932654 536540545 1370165064 -745270518 930760644 334747822 -623615754 1623442907 286874779 359752317 -1231240241 -1046176880 422392291 770576587 -855460050 1630222555 -1060854976 1083102386 -607458098 807156936 713166105 2089906277 -1662301993 686510730 1620166415
REM
CELL 1.54180   50.00000   50.00000   50.00000   90.00000   90.00000   90.00000
LATT -1
SFAC C  
C      1  0.5769060000000  0.5253650000000  0.4841840000000 1.0
C      1  0.4841840000000  0.5769060000000  0.5253650000000 1.0
C      1  0.5253650000000  0.4841840000000  0.5769060000000 1.0
C      1  0.4230940000000  0.5253650000000  0.5158160000000 1.0
C      1  0.5769060000000  0.4746350000000  0.5158160000000 1.0
C      1  0.4230940000000  0.4746350000000  0.4841840000000 1.0
C      1  0.5158160000000  0.5769060000000  0.4746350000000 1.0
C      1  0.4841840000000  0.4230940000000  0.4746350000000 1.0
C      1  0.5158160000000  0.4230940000000  0.5253650000000 1.0
C      1  0.4746350000000  0.4841840000000  0.4230940000000 1.0
C      1  0.5253650000000  0.5158160000000  0.4230940000000 1.0
C      1  0.4746350000000  0.5158160000000  0.5769060000000 1.0
C      1  0.5769060000000  0.4746350000000  0.4841840000000 1.0
C      1  0.4841840000000  0.4230940000000  0.5253650000000 1.0
C      1  0.5253650000000  0.5158160000000  0.5769060000000 1.0
C      1  0.4230940000000  0.4746350000000  0.5158160000000 1.0
C      1  0.5769060000000  0.5253650000000  0.5158160000000 1.0
C      1  0.4230940000000  0.5253650000000  0.4841840000000 1.0
C      1  0.5158160000000  0.4230940000000  0.4746350000000 1.0
C      1  0.4841840000000  0.5769060000000  0.4746350000000 1.0
C      1  0.5158160000000  0.5769060000000  0.5253650000000 1.0
C      1  0.4746350000000  0.5158160000000  0.4230940000000 1.0
C      1  0.5253650000000  0.4841840000000  0.4230940000000 1.0
C      1  0.4746350000000  0.4841840000000  0.5769060000000 1.0
C      1  0.4666640000000  0.5165200000000  0.4544480000000 1.0
C      1  0.4544480000000  0.4666640000000  0.5165200000000 1.0
C      1  0.5165200000000  0.4544480000000  0.4666640000000 1.0
C      1  0.5333360000000  0.5165200000000  0.5455520000000 1.0
C      1  0.4666640000000  0.4834800000000  0.5455520000000 1.0
C      1  0.5333360000000  0.4834800000000  0.4544480000000 1.0
C      1  0.5455520000000  0.4666640000000  0.4834800000000 1.0
C      1  0.4544480000000  0.5333360000000  0.4834800000000 1.0
C      1  0.5455520000000  0.5333360000000  0.5165200000000 1.0
C      1  0.4834800000000  0.4544480000000  0.5333360000000 1.0
C      1  0.5165200000000  0.5455520000000  0.5333360000000 1.0
C      1  0.4834800000000  0.5455520000000  0.4666640000000 1.0
C      1  0.4666640000000  0.4834800000000  0.4544480000000 1.0
C      1  0.4544480000000  0.5333360000000  0.5165200000000 1.0
C      1  0.5165200000000  0.5455520000000  0.4666640000000 1.0
C      1  0.5333360000000  0.4834800000000  0.5455520000000 1.0
C      1  0.4666640000000  0.5165200000000  0.5455520000000 1.0
C      1  0.5333360000000  0.5165200000000  0.4544480000000 1.0
C      1  0.5455520000000  0.5333360000000  0.4834800000000 1.0
C      1  0.4544480000000  0.4666640000000  0.4834800000000 1.0
C      1  0.5455520000000  0.4666640000000  0.5165200000000 1.0
C      1  0.4834800000000  0.5455520000000  0.5333360000000 1.0
C      1  0.5165200000000  0.4544480000000  0.5333360000000 1.0
C      1  0.4834800000000  0.4544480000000  0.4666640000000 1.0
C      1  0.5279280000000  0.5847830000000  0.5000000000000 1.0
C      1  0.5847830000000  0.5000000000000  0.5279280000000 1.0
C      1  0.4720720000000  0.5847830000000  0.5000000000000 1.0
C      1  0.5279280000000  0.4152170000000  0.5000000000000 1.0
C      1  0.4720720000000  0.4152170000000  0.5000000000000 1.0
C      1  0.5000000000000  0.5279280000000  0.4152170000000 1.0
C      1  0.5000000000000  0.4720720000000  0.4152170000000 1.0
C      1  0.5000000000000  0.4720720000000  0.5847830000000 1.0
C      1  0.4152170000000  0.5000000000000  0.4720720000000 1.0
C      1  0.5847830000000  0.5000000000000  0.4720720000000 1.0
C      1  0.4152170000000  0.5000000000000  0.5279280000000 1.0
C      1  0.5000000000000  0.5279280000000  0.5847830000000 1.0
END
