TITL C-3985259-1859-177 3.1156976943018e-05 125000 -361.247436883157 0 0 60 (C2) n - 1
REM
REM in /home/nfs/bkarasulu/CARBON/AIRSS/Generating-Clusters/TERSOFF/Higher-Symm/Only-C60
REM
REM
REM
REM
REM
REM ./C.cell (28575a23ae977d3b5fae324c64b13b57)
REM
REM compiler GCC version 9.2.1 20190827 (Red Hat 9.2.1-1)
REM options -cpp -mtune=generic -march=x86-64 -g -O0 -fpre-include=/usr/include/finclude/math-vector-fortran.h
REM seed 363317097 9669371 -1244257830 262194800 1410419049 1072868842 -609050173 -695977083 -1458549625 756987424 -971453512 1331766558 -127250225 783392521 1273610664 860973582 1534365109 1652109664 1772079862 1684020421 1460298275 -260237891 559863045 660237323 623432258 96737758 -817606446 -2044757621 2072415234 -250770874 1500541804 1162335264 1078965772
REM
CELL 1.54180   50.00000   50.00000   50.00000   90.00000   90.00000   90.00000
LATT -1
SFAC C  
C      1  0.5459390000000  0.4745860000000  0.4712220000000 1.0
C      1  0.4540670000000  0.4745900000000  0.5287860000000 1.0
C      1  0.5320270000000  0.5409790000000  0.4601460000000 1.0
C      1  0.4679690000000  0.5409850000000  0.5398540000000 1.0
C      1  0.5670780000000  0.5045170000000  0.5312080000000 1.0
C      1  0.4329170000000  0.5045200000000  0.4687970000000 1.0
C      1  0.4988030000000  0.4568670000000  0.5397580000000 1.0
C      1  0.5011940000000  0.4568720000000  0.4602470000000 1.0
C      1  0.5268430000000  0.4494400000000  0.4722060000000 1.0
C      1  0.4731570000000  0.4494400000000  0.5277980000000 1.0
C      1  0.5594290000000  0.5405030000000  0.4991970000000 1.0
C      1  0.4405670000000  0.5405020000000  0.5007960000000 1.0
C      1  0.5855710000000  0.5006500000000  0.4848970000000 1.0
C      1  0.4144280000000  0.5006530000000  0.5150950000000 1.0
C      1  0.4839690000000  0.4401300000000  0.5004090000000 1.0
C      1  0.5160280000000  0.4401260000000  0.4995920000000 1.0
C      1  0.4255920000000  0.4737750000000  0.5179600000000 1.0
C      1  0.5744100000000  0.4737690000000  0.4820420000000 1.0
C      1  0.5161830000000  0.5563640000000  0.5360080000000 1.0
C      1  0.4838180000000  0.5563640000000  0.4639910000000 1.0
C      1  0.5310060000000  0.5392120000000  0.4901310000000 1.0
C      1  0.4689900000000  0.5392160000000  0.5098690000000 1.0
C      1  0.5057050000000  0.5424350000000  0.4475430000000 1.0
C      1  0.4942950000000  0.5424280000000  0.5524500000000 1.0
C      1  0.4566480000000  0.4645400000000  0.4569390000000 1.0
C      1  0.5433560000000  0.4645410000000  0.5430560000000 1.0
C      1  0.4881880000000  0.5060410000000  0.4679160000000 1.0
C      1  0.5118090000000  0.5060540000000  0.5320820000000 1.0
C      1  0.5433590000000  0.5173250000000  0.5436780000000 1.0
C      1  0.4566460000000  0.5173200000000  0.4563420000000 1.0
C      1  0.5420620000000  0.5464630000000  0.5436310000000 1.0
C      1  0.4579410000000  0.5464640000000  0.4563710000000 1.0
C      1  0.4245360000000  0.5176220000000  0.4937520000000 1.0
C      1  0.5754580000000  0.5176190000000  0.5062480000000 1.0
C      1  0.5126670000000  0.5107780000000  0.4903830000000 1.0
C      1  0.4873240000000  0.5107860000000  0.5095970000000 1.0
C      1  0.4837230000000  0.4925290000000  0.5692730000000 1.0
C      1  0.5162740000000  0.4925340000000  0.4307190000000 1.0
C      1  0.5683480000000  0.4749410000000  0.5326860000000 1.0
C      1  0.4316560000000  0.4749420000000  0.4673130000000 1.0
C      1  0.5285700000000  0.4848980000000  0.4952900000000 1.0
C      1  0.4714320000000  0.4849010000000  0.5047050000000 1.0
C      1  0.4774300000000  0.4618490000000  0.4791460000000 1.0
C      1  0.5225720000000  0.4618440000000  0.5208550000000 1.0
C      1  0.5504360000000  0.5213840000000  0.4489560000000 1.0
C      1  0.4495690000000  0.5213800000000  0.5510440000000 1.0
C      1  0.5306020000000  0.5063340000000  0.5696190000000 1.0
C      1  0.4694160000000  0.5063260000000  0.4303750000000 1.0
C      1  0.5780010000000  0.4612760000000  0.5084640000000 1.0
C      1  0.4219980000000  0.4612740000000  0.4915330000000 1.0
C      1  0.4991020000000  0.4687590000000  0.4337190000000 1.0
C      1  0.5008860000000  0.4687570000000  0.5662850000000 1.0
C      1  0.5015690000000  0.5180230000000  0.5709690000000 1.0
C      1  0.4984360000000  0.5180280000000  0.4290450000000 1.0
C      1  0.5303010000000  0.4760860000000  0.5683990000000 1.0
C      1  0.4697050000000  0.4760850000000  0.4316060000000 1.0
C      1  0.4583690000000  0.4937470000000  0.5534650000000 1.0
C      1  0.5416270000000  0.4937540000000  0.4465410000000 1.0
C      1  0.5132810000000  0.5579300000000  0.5057560000000 1.0
C      1  0.4867160000000  0.5579430000000  0.4942440000000 1.0
END
