TITL C-3985257-5396-191 0.0202535702847014 125000 -292.54428157952 0 0 60 (C1) n - 1
REM
REM in /home/nfs/bkarasulu/CARBON/AIRSS/Generating-Clusters/TERSOFF/Higher-Symm/Only-C60
REM
REM
REM
REM
REM
REM ./C.cell (28575a23ae977d3b5fae324c64b13b57)
REM
REM compiler GCC version 9.2.1 20190827 (Red Hat 9.2.1-1)
REM options -cpp -mtune=generic -march=x86-64 -g -O0 -fpre-include=/usr/include/finclude/math-vector-fortran.h
REM seed 362200091 -528898044 -1930608214 -43274028 -514141729 -1001750453 1093050652 2106792233 39771190 -1140583983 -742534791 1034379794 12445722 -1347544368 1023357523 131220733 -405197257 1633215712 -1678400266 -1174014548 1380822034 -1740577731 -1154580596 1487244452 1312974971 -1618803699 -1119290527 1608198144 -1655897056 -966126475 -940498231 -421904432 278350597
REM
CELL 1.54180   50.00000   50.00000   50.00000   90.00000   90.00000   90.00000
LATT -1
SFAC C  
C      1  0.5219750000000  0.5292800000000  0.5070960000000 1.0
C      1  0.5231570000000  0.4938470000000  0.4994460000000 1.0
C      1  0.4340240000000  0.4555780000000  0.5387480000000 1.0
C      1  0.5054810000000  0.5392670000000  0.5338780000000 1.0
C      1  0.5118620000000  0.5465540000000  0.4841130000000 1.0
C      1  0.4331020000000  0.5038160000000  0.4681460000000 1.0
C      1  0.5190450000000  0.4377970000000  0.5067120000000 1.0
C      1  0.5374540000000  0.4605980000000  0.4976140000000 1.0
C      1  0.4932960000000  0.5311180000000  0.5731120000000 1.0
C      1  0.5680480000000  0.5039220000000  0.4816520000000 1.0
C      1  0.4794170000000  0.5142360000000  0.5059940000000 1.0
C      1  0.4990670000000  0.4364590000000  0.4797910000000 1.0
C      1  0.5502650000000  0.5413900000000  0.5091210000000 1.0
C      1  0.5598240000000  0.4577470000000  0.5180110000000 1.0
C      1  0.4725540000000  0.5291220000000  0.5443890000000 1.0
C      1  0.5416450000000  0.4769810000000  0.5610440000000 1.0
C      1  0.5036780000000  0.4961970000000  0.5250800000000 1.0
C      1  0.5672540000000  0.5341210000000  0.4833880000000 1.0
C      1  0.5002570000000  0.4542120000000  0.5522010000000 1.0
C      1  0.4537730000000  0.5492450000000  0.5264880000000 1.0
C      1  0.4489540000000  0.5450960000000  0.4772190000000 1.0
C      1  0.4876090000000  0.4611120000000  0.4478050000000 1.0
C      1  0.4705190000000  0.4833120000000  0.4794490000000 1.0
C      1  0.5162140000000  0.4473120000000  0.4552220000000 1.0
C      1  0.5242950000000  0.5353730000000  0.4591960000000 1.0
C      1  0.5552310000000  0.5395540000000  0.5405850000000 1.0
C      1  0.4805060000000  0.5439250000000  0.4497660000000 1.0
C      1  0.4507040000000  0.4971680000000  0.5068010000000 1.0
C      1  0.4547330000000  0.4336390000000  0.5339800000000 1.0
C      1  0.4281230000000  0.5134530000000  0.4963850000000 1.0
C      1  0.4427230000000  0.4839370000000  0.5346720000000 1.0
C      1  0.4485170000000  0.4491090000000  0.4894240000000 1.0
C      1  0.5554240000000  0.5087680000000  0.5350140000000 1.0
C      1  0.5486600000000  0.4910570000000  0.4292880000000 1.0
C      1  0.5468110000000  0.4890830000000  0.4586440000000 1.0
C      1  0.4857830000000  0.4954790000000  0.4525510000000 1.0
C      1  0.5193990000000  0.5731410000000  0.4982370000000 1.0
C      1  0.4394820000000  0.4737180000000  0.4702590000000 1.0
C      1  0.5528020000000  0.5424980000000  0.4589920000000 1.0
C      1  0.5398860000000  0.4612590000000  0.4676540000000 1.0
C      1  0.5053310000000  0.5374530000000  0.4355500000000 1.0
C      1  0.5016120000000  0.5092060000000  0.4256560000000 1.0
C      1  0.4707590000000  0.4554320000000  0.5171770000000 1.0
C      1  0.4750120000000  0.5640090000000  0.5103670000000 1.0
C      1  0.4774910000000  0.5045540000000  0.5785680000000 1.0
C      1  0.4577850000000  0.5187930000000  0.4537320000000 1.0
C      1  0.4851350000000  0.4750850000000  0.5377970000000 1.0
C      1  0.5179860000000  0.5039600000000  0.4666850000000 1.0
C      1  0.4874690000000  0.4630650000000  0.4936430000000 1.0
C      1  0.4808760000000  0.5439720000000  0.4858130000000 1.0
C      1  0.5247180000000  0.4959410000000  0.4139010000000 1.0
C      1  0.5479330000000  0.4528040000000  0.5450590000000 1.0
C      1  0.4335310000000  0.5417770000000  0.5031660000000 1.0
C      1  0.5018880000000  0.5696770000000  0.5233630000000 1.0
C      1  0.4654860000000  0.4945110000000  0.5518060000000 1.0
C      1  0.5280100000000  0.5016190000000  0.5485350000000 1.0
C      1  0.5214990000000  0.4396860000000  0.5383910000000 1.0
C      1  0.5535740000000  0.4979680000000  0.5074870000000 1.0
C      1  0.5248030000000  0.5327780000000  0.5593220000000 1.0
C      1  0.4675500000000  0.4382290000000  0.4668150000000 1.0
END
