TITL C-3985253-1688-101 -3.5588786595997e-07 125000 -324.283049345883 0 0 60 (C5) n - 1
REM
REM in /home/nfs/bkarasulu/CARBON/AIRSS/Generating-Clusters/TERSOFF/Higher-Symm/Only-C60
REM
REM
REM
REM
REM
REM ./C.cell (28575a23ae977d3b5fae324c64b13b57)
REM
REM compiler GCC version 9.2.1 20190827 (Red Hat 9.2.1-1)
REM options -cpp -mtune=generic -march=x86-64 -g -O0 -fpre-include=/usr/include/finclude/math-vector-fortran.h
REM seed 1965243191 -1595613327 1088708069 -1700966317 -312098871 466695872 735306867 1038534511 -1513998447 -1599037866 415938852 -237771529 1529884248 -1120722706 848079304 -1588208580 1203254726 -1143558180 -1127201013 240861109 209319793 1535187238 1207278464 -364253515 687587522 -1593199128 -1595987970 1881835092 -2089084044 -1320465267 2104192145 747244326 297019287
REM
CELL 1.54180   50.00000   50.00000   50.00000   90.00000   90.00000   90.00000
LATT -1
SFAC C  
C      1  0.5141330000000  0.5771450000000  0.5266420000000 1.0
C      1  0.4790230000000  0.5771460000000  0.5216660000000 1.0
C      1  0.4729060000000  0.5771420000000  0.4867370000000 1.0
C      1  0.5042350000000  0.5771400000000  0.4701260000000 1.0
C      1  0.5297140000000  0.5771410000000  0.4947880000000 1.0
C      1  0.5215680000000  0.4222620000000  0.4859610000000 1.0
C      1  0.5200230000000  0.4222650000000  0.5161820000000 1.0
C      1  0.4908030000000  0.4222670000000  0.5240520000000 1.0
C      1  0.4742900000000  0.4222650000000  0.4986940000000 1.0
C      1  0.4933030000000  0.4222620000000  0.4751520000000 1.0
C      1  0.4962110000000  0.4813340000000  0.5553010000000 1.0
C      1  0.4462360000000  0.4813310000000  0.5134870000000 1.0
C      1  0.4705600000000  0.4813240000000  0.4530370000000 1.0
C      1  0.5355690000000  0.4813230000000  0.4574910000000 1.0
C      1  0.5514220000000  0.4813290000000  0.5206940000000 1.0
C      1  0.4759530000000  0.5608730000000  0.4543310000000 1.0
C      1  0.5359980000000  0.5608720000000  0.4630110000000 1.0
C      1  0.5462980000000  0.5608780000000  0.5228000000000 1.0
C      1  0.4926180000000  0.5608820000000  0.5510720000000 1.0
C      1  0.4491420000000  0.5608790000000  0.5087550000000 1.0
C      1  0.4912870000000  0.5107070000000  0.5663160000000 1.0
C      1  0.4342370000000  0.5107030000000  0.5122060000000 1.0
C      1  0.4680690000000  0.5106940000000  0.4412260000000 1.0
C      1  0.5460290000000  0.5106930000000  0.4514690000000 1.0
C      1  0.5603790000000  0.5107000000000  0.5287780000000 1.0
C      1  0.5214390000000  0.5345190000000  0.4501830000000 1.0
C      1  0.5540010000000  0.5345240000000  0.5049920000000 1.0
C      1  0.5119370000000  0.5345300000000  0.5528970000000 1.0
C      1  0.4533780000000  0.5345290000000  0.5276950000000 1.0
C      1  0.4592510000000  0.5345220000000  0.4642150000000 1.0
C      1  0.5253410000000  0.4899170000000  0.5089030000000 1.0
C      1  0.4993650000000  0.4899200000000  0.5268530000000 1.0
C      1  0.4742660000000  0.4899190000000  0.5076950000000 1.0
C      1  0.4847300000000  0.4899150000000  0.4779040000000 1.0
C      1  0.5162960000000  0.4899150000000  0.4786510000000 1.0
C      1  0.5263210000000  0.5222740000000  0.5033800000000 1.0
C      1  0.5049170000000  0.5222770000000  0.5260750000000 1.0
C      1  0.4767190000000  0.5222770000000  0.5127320000000 1.0
C      1  0.4806950000000  0.5222730000000  0.4817900000000 1.0
C      1  0.5113510000000  0.5222720000000  0.4760100000000 1.0
C      1  0.4863000000000  0.4331650000000  0.4489680000000 1.0
C      1  0.5443060000000  0.4331660000000  0.4712070000000 1.0
C      1  0.5410800000000  0.4331720000000  0.5332470000000 1.0
C      1  0.4810800000000  0.4331760000000  0.5493500000000 1.0
C      1  0.4472240000000  0.4331710000000  0.4972630000000 1.0
C      1  0.5560270000000  0.5366310000000  0.4738450000000 1.0
C      1  0.5421850000000  0.5366390000000  0.5451990000000 1.0
C      1  0.4700460000000  0.5366420000000  0.5540840000000 1.0
C      1  0.4393040000000  0.5366360000000  0.4882220000000 1.0
C      1  0.4924430000000  0.5366290000000  0.4386310000000 1.0
C      1  0.5177200000000  0.4700190000000  0.4361710000000 1.0
C      1  0.5661830000000  0.4700240000000  0.4971310000000 1.0
C      1  0.5231830000000  0.4700320000000  0.5620610000000 1.0
C      1  0.4481430000000  0.4700320000000  0.5412290000000 1.0
C      1  0.4447670000000  0.4700240000000  0.4634250000000 1.0
C      1  0.5529120000000  0.4611360000000  0.4723270000000 1.0
C      1  0.5426720000000  0.4611440000000  0.5417740000000 1.0
C      1  0.4734600000000  0.4611470000000  0.5534960000000 1.0
C      1  0.4409230000000  0.4611420000000  0.4912940000000 1.0
C      1  0.4900270000000  0.4611350000000  0.4411280000000 1.0
END
