TITL C-3985245-9316-307 -0.00154642602672248 125000 -300.587392048478 0 0 60 (C1) n - 1
REM
REM in /home/nfs/bkarasulu/CARBON/AIRSS/Generating-Clusters/TERSOFF/Higher-Symm/Only-C60
REM
REM
REM
REM
REM
REM ./C.cell (28575a23ae977d3b5fae324c64b13b57)
REM
REM compiler GCC version 9.2.1 20190827 (Red Hat 9.2.1-1)
REM options -cpp -mtune=generic -march=x86-64 -g -O0 -fpre-include=/usr/include/finclude/math-vector-fortran.h
REM seed 642191156 1517768044 451928146 -494329121 1811666091 907864593 1285789249 70289614 1426041066 1618228883 1536392515 199702517 -385263987 -188579432 -1112758854 1850095335 112264753 1603147865 1898746090 -1837962470 1105724285 -731495897 -379420544 -83408962 597982219 638016123 1244856402 1034751899 -1626882923 -1009735380 357968096 1990202671 -1472202514
REM
CELL 1.54180   50.00000   50.00000   50.00000   90.00000   90.00000   90.00000
LATT -1
SFAC C  
C      1  0.5324840000000  0.4432130000000  0.4659110000000 1.0
C      1  0.5326700000000  0.5632570000000  0.5336370000000 1.0
C      1  0.5006320000000  0.4806310000000  0.4464420000000 1.0
C      1  0.4997690000000  0.5248310000000  0.5512860000000 1.0
C      1  0.4434000000000  0.4661620000000  0.4987920000000 1.0
C      1  0.4481930000000  0.5392200000000  0.4973620000000 1.0
C      1  0.4858260000000  0.5394360000000  0.4396620000000 1.0
C      1  0.4873530000000  0.4639120000000  0.5588700000000 1.0
C      1  0.5519240000000  0.5133900000000  0.5324010000000 1.0
C      1  0.5519470000000  0.4926960000000  0.4645550000000 1.0
C      1  0.4438630000000  0.5278660000000  0.4681800000000 1.0
C      1  0.4451280000000  0.4743370000000  0.5330240000000 1.0
C      1  0.4752590000000  0.5443230000000  0.5419640000000 1.0
C      1  0.4766790000000  0.4600040000000  0.4540670000000 1.0
C      1  0.5061640000000  0.5480340000000  0.4613140000000 1.0
C      1  0.5074540000000  0.4580460000000  0.5369880000000 1.0
C      1  0.5116740000000  0.4357230000000  0.4879360000000 1.0
C      1  0.5129390000000  0.5721220000000  0.5111270000000 1.0
C      1  0.5129840000000  0.4694930000000  0.4922160000000 1.0
C      1  0.5145830000000  0.5390440000000  0.5045150000000 1.0
C      1  0.4900580000000  0.5025060000000  0.5311540000000 1.0
C      1  0.4906040000000  0.5036800000000  0.4667230000000 1.0
C      1  0.4507620000000  0.4742410000000  0.4644360000000 1.0
C      1  0.4494750000000  0.5291290000000  0.5295660000000 1.0
C      1  0.4833370000000  0.5643060000000  0.5200250000000 1.0
C      1  0.4825860000000  0.4437310000000  0.4792150000000 1.0
C      1  0.4595720000000  0.5029050000000  0.4602640000000 1.0
C      1  0.4589170000000  0.5007710000000  0.5368810000000 1.0
C      1  0.5305510000000  0.5353180000000  0.5431120000000 1.0
C      1  0.5311300000000  0.4704560000000  0.4544560000000 1.0
C      1  0.4593860000000  0.4578040000000  0.5526840000000 1.0
C      1  0.4572040000000  0.5431230000000  0.4456350000000 1.0
C      1  0.5183220000000  0.5214920000000  0.4672180000000 1.0
C      1  0.5177980000000  0.4849380000000  0.5303500000000 1.0
C      1  0.5106610000000  0.4343050000000  0.5193550000000 1.0
C      1  0.5098110000000  0.5725670000000  0.4786290000000 1.0
C      1  0.4977240000000  0.4948880000000  0.5717270000000 1.0
C      1  0.4981050000000  0.5105320000000  0.4260600000000 1.0
C      1  0.4780640000000  0.4707240000000  0.4993840000000 1.0
C      1  0.4804960000000  0.5416390000000  0.4966700000000 1.0
C      1  0.5468030000000  0.5332140000000  0.4957620000000 1.0
C      1  0.5446600000000  0.4725320000000  0.5006200000000 1.0
C      1  0.5409660000000  0.4907690000000  0.5481410000000 1.0
C      1  0.5413950000000  0.5158900000000  0.4494070000000 1.0
C      1  0.5282860000000  0.5132410000000  0.4230100000000 1.0
C      1  0.5281340000000  0.4936280000000  0.5746030000000 1.0
C      1  0.6666930000000  0.5131590000000  0.4985290000000 1.0
C      1  0.3909030000000  0.4989200000000  0.4947210000000 1.0
C      1  0.5902970000000  0.4936120000000  0.5021640000000 1.0
C      1  0.5601770000000  0.5019000000000  0.4987200000000 1.0
C      1  0.6149060000000  0.5092000000000  0.4980640000000 1.0
C      1  0.4426860000000  0.4976990000000  0.4982140000000 1.0
C      1  0.3394290000000  0.4974860000000  0.4954680000000 1.0
C      1  0.6419860000000  0.4978050000000  0.4985280000000 1.0
C      1  0.3649740000000  0.5097570000000  0.5021400000000 1.0
C      1  0.4167090000000  0.5116130000000  0.5002720000000 1.0
C      1  0.4754560000000  0.5071940000000  0.4988430000000 1.0
C      1  0.6933920000000  0.5016250000000  0.4989040000000 1.0
C      1  0.5169310000000  0.5039830000000  0.4991860000000 1.0
C      1  0.3134630000000  0.5084860000000  0.5020650000000 1.0
END
