TITL C-3985253-1688-1012 1.92463831055909e-08 125000 -322.487513939196 0 0 60 (D2h) n - 1
REM
REM in /home/nfs/bkarasulu/CARBON/AIRSS/Generating-Clusters/TERSOFF/Higher-Symm/Only-C60
REM
REM
REM
REM
REM
REM ./C.cell (28575a23ae977d3b5fae324c64b13b57)
REM
REM compiler GCC version 9.2.1 20190827 (Red Hat 9.2.1-1)
REM options -cpp -mtune=generic -march=x86-64 -g -O0 -fpre-include=/usr/include/finclude/math-vector-fortran.h
REM seed -1601399732 302627920 602613778 1044312317 -1607377292 -1806569514 518834737 -640961370 -1153152046 -650276605 232543927 200439315 1659295517 -1260315087 1061387769 1669551982 1506654169 -1879905063 476156929 2016775090 -1591441908 -156981602 2085665861 67331832 665880898 28598826 -266402230 -1850028629 1892871738 -713549036 -1984157146 506056846 -464773576
REM
CELL 1.54180   50.00000   50.00000   50.00000   90.00000   90.00000   90.00000
LATT -1
SFAC C  
C      1  0.5159270000000  0.4696860000000  0.5160930000000 1.0
C      1  0.4840730000000  0.4696860000000  0.4839070000000 1.0
C      1  0.5159270000000  0.5303140000000  0.5160930000000 1.0
C      1  0.4840730000000  0.5303140000000  0.4839070000000 1.0
C      1  0.5159270000000  0.4696860000000  0.4839070000000 1.0
C      1  0.4840730000000  0.4696860000000  0.5160930000000 1.0
C      1  0.5159270000000  0.5303140000000  0.4839070000000 1.0
C      1  0.4840730000000  0.5303140000000  0.5160930000000 1.0
C      1  0.4322080000000  0.4826470000000  0.5170910000000 1.0
C      1  0.5677920000000  0.4826470000000  0.4829090000000 1.0
C      1  0.4322080000000  0.5173530000000  0.5170910000000 1.0
C      1  0.5677920000000  0.5173530000000  0.4829090000000 1.0
C      1  0.4322080000000  0.4826470000000  0.4829090000000 1.0
C      1  0.5677920000000  0.4826470000000  0.5170910000000 1.0
C      1  0.4322080000000  0.5173530000000  0.4829090000000 1.0
C      1  0.5677920000000  0.5173530000000  0.5170910000000 1.0
C      1  0.5157600000000  0.5566840000000  0.4442340000000 1.0
C      1  0.4842400000000  0.5566840000000  0.5557660000000 1.0
C      1  0.5157600000000  0.4433160000000  0.4442340000000 1.0
C      1  0.4842400000000  0.4433160000000  0.5557660000000 1.0
C      1  0.5157600000000  0.5566840000000  0.5557660000000 1.0
C      1  0.4842400000000  0.5566840000000  0.4442340000000 1.0
C      1  0.5157600000000  0.4433160000000  0.5557660000000 1.0
C      1  0.4842400000000  0.4433160000000  0.4442340000000 1.0
C      1  0.4437180000000  0.4507200000000  0.5158410000000 1.0
C      1  0.5562820000000  0.4507200000000  0.4841590000000 1.0
C      1  0.4437180000000  0.5492800000000  0.5158410000000 1.0
C      1  0.5562820000000  0.5492800000000  0.4841590000000 1.0
C      1  0.4437180000000  0.4507200000000  0.4841590000000 1.0
C      1  0.5562820000000  0.4507200000000  0.5158410000000 1.0
C      1  0.4437180000000  0.5492800000000  0.4841590000000 1.0
C      1  0.5562820000000  0.5492800000000  0.5158410000000 1.0
C      1  0.4716570000000  0.5566620000000  0.4727730000000 1.0
C      1  0.5283430000000  0.5566620000000  0.5272270000000 1.0
C      1  0.4716570000000  0.4433380000000  0.4727730000000 1.0
C      1  0.5283430000000  0.4433380000000  0.5272270000000 1.0
C      1  0.4716570000000  0.5566620000000  0.5272270000000 1.0
C      1  0.5283430000000  0.5566620000000  0.4727730000000 1.0
C      1  0.4716570000000  0.4433380000000  0.5272270000000 1.0
C      1  0.5283430000000  0.4433380000000  0.4727730000000 1.0
C      1  0.4769220000000  0.5284430000000  0.5658720000000 1.0
C      1  0.5230780000000  0.5284430000000  0.4341280000000 1.0
C      1  0.4769220000000  0.4715570000000  0.5658720000000 1.0
C      1  0.5230780000000  0.4715570000000  0.4341280000000 1.0
C      1  0.4769220000000  0.5284430000000  0.4341280000000 1.0
C      1  0.5230780000000  0.5284430000000  0.5658720000000 1.0
C      1  0.4769220000000  0.4715570000000  0.4341280000000 1.0
C      1  0.5230780000000  0.4715570000000  0.5658720000000 1.0
C      1  0.5275690000000  0.5141870000000  0.5395350000000 1.0
C      1  0.4724310000000  0.5141870000000  0.4604650000000 1.0
C      1  0.5275690000000  0.4858130000000  0.5395350000000 1.0
C      1  0.4724310000000  0.4858130000000  0.4604650000000 1.0
C      1  0.5275690000000  0.5141870000000  0.4604650000000 1.0
C      1  0.4724310000000  0.5141870000000  0.5395350000000 1.0
C      1  0.5275690000000  0.4858130000000  0.4604650000000 1.0
C      1  0.4724310000000  0.4858130000000  0.5395350000000 1.0
C      1  0.5000000000000  0.5149240000000  0.5803420000000 1.0
C      1  0.5000000000000  0.5149240000000  0.4196580000000 1.0
C      1  0.5000000000000  0.4850760000000  0.5803420000000 1.0
C      1  0.5000000000000  0.4850760000000  0.4196580000000 1.0
END
