TITL C-3985254-1270-880 0.000737730790232411 125000 -317.225747386303 0 0 60 (Ci) n - 1
REM
REM in /home/nfs/bkarasulu/CARBON/AIRSS/Generating-Clusters/TERSOFF/Higher-Symm/Only-C60
REM
REM
REM
REM
REM
REM ./C.cell (28575a23ae977d3b5fae324c64b13b57)
REM
REM compiler GCC version 9.2.1 20190827 (Red Hat 9.2.1-1)
REM options -cpp -mtune=generic -march=x86-64 -g -O0 -fpre-include=/usr/include/finclude/math-vector-fortran.h
REM seed 511309820 1234930030 1541150762 -1334775706 386716274 -927577517 -715008410 -504889261 370533542 -174686132 -1009177148 830055814 633790094 -1675659771 1795851389 -709392762 -415057020 -1860338228 164224580 -1361383 44873539 -482039493 23971096 -612572899 1058953639 -1000509942 815911727 491130812 -1430339329 -664616002 -27160542 1938770131 -1863100526
REM
CELL 1.54180   50.00000   50.00000   50.00000   90.00000   90.00000   90.00000
LATT -1
SFAC C  
C      1  0.5153000000000  0.5735090000000  0.5001510000000 1.0
C      1  0.4847000000000  0.4264910000000  0.4998490000000 1.0
C      1  0.4628510000000  0.4866470000000  0.4499680000000 1.0
C      1  0.5371490000000  0.5133530000000  0.5500310000000 1.0
C      1  0.4588030000000  0.4484670000000  0.4668070000000 1.0
C      1  0.5411970000000  0.5515330000000  0.5331930000000 1.0
C      1  0.5614680000000  0.4634390000000  0.5044820000000 1.0
C      1  0.4385310000000  0.5365620000000  0.4955180000000 1.0
C      1  0.4672370000000  0.5190570000000  0.5433030000000 1.0
C      1  0.5327630000000  0.4809430000000  0.4566970000000 1.0
C      1  0.4544090000000  0.4579880000000  0.5073920000000 1.0
C      1  0.5455910000000  0.5420120000000  0.4926080000000 1.0
C      1  0.5293960000000  0.5290330000000  0.4681730000000 1.0
C      1  0.4706040000000  0.4709670000000  0.5318270000000 1.0
C      1  0.5011820000000  0.4904620000000  0.5749120000000 1.0
C      1  0.4988180000000  0.5095380000000  0.4250880000000 1.0
C      1  0.5063800000000  0.4806470000000  0.4798980000000 1.0
C      1  0.4936200000000  0.5193530000000  0.5201020000000 1.0
C      1  0.5200330000000  0.4880750000000  0.5513180000000 1.0
C      1  0.4799670000000  0.5119250000000  0.4486820000000 1.0
C      1  0.5249530000000  0.5266240000000  0.5122710000000 1.0
C      1  0.4750470000000  0.4733760000000  0.4877290000000 1.0
C      1  0.4982690000000  0.4879270000000  0.5272140000000 1.0
C      1  0.5017310000000  0.5120730000000  0.4727860000000 1.0
C      1  0.4863470000000  0.4585920000000  0.4503640000000 1.0
C      1  0.5136530000000  0.5414080000000  0.5496370000000 1.0
C      1  0.5293230000000  0.4419730000000  0.4858700000000 1.0
C      1  0.4706760000000  0.5580300000000  0.5141320000000 1.0
C      1  0.4519920000000  0.4936140000000  0.5402360000000 1.0
C      1  0.5480080000000  0.5063860000000  0.4597640000000 1.0
C      1  0.5627660000000  0.5010510000000  0.4859830000000 1.0
C      1  0.4372340000000  0.4989480000000  0.5140180000000 1.0
C      1  0.5090810000000  0.4801690000000  0.4364710000000 1.0
C      1  0.4909190000000  0.5198310000000  0.5635290000000 1.0
C      1  0.4633010000000  0.5000560000000  0.4958430000000 1.0
C      1  0.5366990000000  0.4999430000000  0.5041570000000 1.0
C      1  0.4986850000000  0.5609280000000  0.5229430000000 1.0
C      1  0.5013150000000  0.4390720000000  0.4770560000000 1.0
C      1  0.5649140000000  0.5114490000000  0.5329630000000 1.0
C      1  0.4350860000000  0.4885510000000  0.4670370000000 1.0
C      1  0.4668700000000  0.5384130000000  0.4541310000000 1.0
C      1  0.5331300000000  0.4615870000000  0.5458690000000 1.0
C      1  0.4925090000000  0.4288750000000  0.5297770000000 1.0
C      1  0.5074910000000  0.5711250000000  0.4702230000000 1.0
C      1  0.5697510000000  0.5258170000000  0.5044360000000 1.0
C      1  0.4302490000000  0.4741830000000  0.4955640000000 1.0
C      1  0.5190780000000  0.4767070000000  0.5071340000000 1.0
C      1  0.4809230000000  0.5232900000000  0.4928650000000 1.0
C      1  0.5440110000000  0.5701620000000  0.5063410000000 1.0
C      1  0.4559890000000  0.4298380000000  0.4936590000000 1.0
C      1  0.4239960000000  0.5166200000000  0.4764330000000 1.0
C      1  0.5760040000000  0.4833800000000  0.5235670000000 1.0
C      1  0.4650220000000  0.5497170000000  0.4831680000000 1.0
C      1  0.5349780000000  0.4502830000000  0.5168320000000 1.0
C      1  0.4892230000000  0.4622020000000  0.5746520000000 1.0
C      1  0.5107770000000  0.5377980000000  0.4253480000000 1.0
C      1  0.5203170000000  0.5507420000000  0.4506530000000 1.0
C      1  0.4796830000000  0.4492580000000  0.5493470000000 1.0
C      1  0.5495520000000  0.4593100000000  0.4706720000000 1.0
C      1  0.4504490000000  0.5406900000000  0.5293280000000 1.0
END
