TITL C-3985259-1859-1382 1.78410791060799e-05 125000 -334.843292326538 0 0 60 (Cs) n - 1
REM
REM in /home/nfs/bkarasulu/CARBON/AIRSS/Generating-Clusters/TERSOFF/Higher-Symm/Only-C60
REM
REM
REM
REM
REM
REM ./C.cell (28575a23ae977d3b5fae324c64b13b57)
REM
REM compiler GCC version 9.2.1 20190827 (Red Hat 9.2.1-1)
REM options -cpp -mtune=generic -march=x86-64 -g -O0 -fpre-include=/usr/include/finclude/math-vector-fortran.h
REM seed -1999219293 1968077075 -88460777 -1570171810 -260685905 -1292207513 1654182320 895799328 -1184803966 1196490233 1993526828 708790286 -2010216085 -685904327 1153778000 876297552 705988863 310814583 -537199594 -1793276345 2106417706 2042555517 1317358546 -1742697388 2105412622 -364074585 -1239427025 -2104382156 -1949761399 -694540101 -1056974151 -1523077547 1890065904
REM
CELL 1.54180   50.00000   50.00000   50.00000   90.00000   90.00000   90.00000
LATT -1
SFAC C  
C      1  0.5006110000000  0.5767970000000  0.4833820000000 1.0
C      1  0.5006010000000  0.5768060000000  0.5166390000000 1.0
C      1  0.5741960000000  0.5075050000000  0.5145410000000 1.0
C      1  0.5742010000000  0.5075060000000  0.4854420000000 1.0
C      1  0.5425310000000  0.4650680000000  0.5153340000000 1.0
C      1  0.5425330000000  0.4650730000000  0.4846440000000 1.0
C      1  0.4435410000000  0.4574040000000  0.5319910000000 1.0
C      1  0.4435580000000  0.4573880000000  0.4680430000000 1.0
C      1  0.4355410000000  0.5358430000000  0.4841080000000 1.0
C      1  0.4355430000000  0.5358460000000  0.5158940000000 1.0
C      1  0.4791340000000  0.5630190000000  0.5321400000000 1.0
C      1  0.4791410000000  0.5630130000000  0.4678780000000 1.0
C      1  0.5132640000000  0.5147080000000  0.5146720000000 1.0
C      1  0.5132620000000  0.5147110000000  0.4853270000000 1.0
C      1  0.5215260000000  0.4876910000000  0.5277080000000 1.0
C      1  0.5215260000000  0.4876990000000  0.4722820000000 1.0
C      1  0.5185500000000  0.5112420000000  0.5733480000000 1.0
C      1  0.5185500000000  0.5112560000000  0.4266420000000 1.0
C      1  0.5594150000000  0.4971430000000  0.4475710000000 1.0
C      1  0.5594140000000  0.4971360000000  0.5524120000000 1.0
C      1  0.5294470000000  0.5635770000000  0.4831460000000 1.0
C      1  0.5294300000000  0.5635750000000  0.5168520000000 1.0
C      1  0.4692810000000  0.4934780000000  0.4687590000000 1.0
C      1  0.4692840000000  0.4934800000000  0.5312480000000 1.0
C      1  0.4933100000000  0.4749160000000  0.4824030000000 1.0
C      1  0.4933080000000  0.4749160000000  0.5175930000000 1.0
C      1  0.4781650000000  0.4244770000000  0.4844830000000 1.0
C      1  0.4781060000000  0.4245080000000  0.5155010000000 1.0
C      1  0.4673920000000  0.5419800000000  0.5154540000000 1.0
C      1  0.4673900000000  0.5419780000000  0.4845610000000 1.0
C      1  0.5141130000000  0.5361080000000  0.4409070000000 1.0
C      1  0.5141100000000  0.5360980000000  0.5590910000000 1.0
C      1  0.4856300000000  0.5426840000000  0.4447010000000 1.0
C      1  0.4856270000000  0.5426820000000  0.5553110000000 1.0
C      1  0.4420650000000  0.4847240000000  0.5166330000000 1.0
C      1  0.4420660000000  0.4847160000000  0.4833860000000 1.0
C      1  0.4462340000000  0.4318270000000  0.4842480000000 1.0
C      1  0.4461640000000  0.4318310000000  0.5157960000000 1.0
C      1  0.4690210000000  0.4551550000000  0.4515870000000 1.0
C      1  0.4690170000000  0.4551580000000  0.5484230000000 1.0
C      1  0.5231170000000  0.4461720000000  0.5375940000000 1.0
C      1  0.5231310000000  0.4461850000000  0.4623840000000 1.0
C      1  0.4670510000000  0.5164290000000  0.4408740000000 1.0
C      1  0.4670500000000  0.5164270000000  0.5591360000000 1.0
C      1  0.4842190000000  0.5178260000000  0.4790400000000 1.0
C      1  0.4842250000000  0.5178300000000  0.5209730000000 1.0
C      1  0.5606420000000  0.5267970000000  0.5376670000000 1.0
C      1  0.5606480000000  0.5267990000000  0.4623180000000 1.0
C      1  0.5676740000000  0.4794140000000  0.4721800000000 1.0
C      1  0.5676710000000  0.4794110000000  0.5278000000000 1.0
C      1  0.4930890000000  0.4462810000000  0.5306740000000 1.0
C      1  0.4931090000000  0.4462780000000  0.4693150000000 1.0
C      1  0.5350090000000  0.5426120000000  0.4625780000000 1.0
C      1  0.5350010000000  0.5426070000000  0.5374150000000 1.0
C      1  0.4274070000000  0.5095070000000  0.4737350000000 1.0
C      1  0.4274040000000  0.5095140000000  0.5262740000000 1.0
C      1  0.5276760000000  0.4600270000000  0.4361680000000 1.0
C      1  0.5276750000000  0.4600140000000  0.5638110000000 1.0
C      1  0.5312010000000  0.4895800000000  0.4408560000000 1.0
C      1  0.5312010000000  0.4895680000000  0.5591300000000 1.0
END
