TITL C-3985254-1270-2069 -7.77607144422976e-05 125000 -344.84370428763 0 0 60 (C5) n - 1
REM
REM in /home/nfs/bkarasulu/CARBON/AIRSS/Generating-Clusters/TERSOFF/Higher-Symm/Only-C60
REM
REM
REM
REM
REM
REM ./C.cell (28575a23ae977d3b5fae324c64b13b57)
REM
REM compiler GCC version 9.2.1 20190827 (Red Hat 9.2.1-1)
REM options -cpp -mtune=generic -march=x86-64 -g -O0 -fpre-include=/usr/include/finclude/math-vector-fortran.h
REM seed 916193941 -1190950940 -382145052 749219799 873901855 -366779641 182042745 -629700128 -1375103733 -1509856693 1613493454 -1727600036 348549020 120694524 1787174694 1713305584 1197090362 -1311597221 259908390 405566124 1703201095 -780833111 191550598 -1688246004 -1711114811 -1276153496 -1594139292 -1646820082 3399347 1953242947 -2109637813 2050538233 806573898
REM
CELL 1.54180   50.00000   50.00000   50.00000   90.00000   90.00000   90.00000
LATT -1
SFAC C  
C      1  0.5183420000000  0.4415640000000  0.4429970000000 1.0
C      1  0.5185880000000  0.4278060000000  0.5379560000000 1.0
C      1  0.5181990000000  0.5137850000000  0.5805600000000 1.0
C      1  0.5183670000000  0.5807620000000  0.5118070000000 1.0
C      1  0.5183460000000  0.5362230000000  0.4268220000000 1.0
C      1  0.4879920000000  0.4439600000000  0.5713660000000 1.0
C      1  0.4875390000000  0.5505020000000  0.5752750000000 1.0
C      1  0.4878440000000  0.5872250000000  0.4751950000000 1.0
C      1  0.4877360000000  0.5034670000000  0.4093500000000 1.0
C      1  0.4877400000000  0.4148550000000  0.4688020000000 1.0
C      1  0.4669680000000  0.4342350000000  0.4752970000000 1.0
C      1  0.4671910000000  0.4561160000000  0.5549660000000 1.0
C      1  0.4668470000000  0.5385990000000  0.5585660000000 1.0
C      1  0.4670500000000  0.5677390000000  0.4812920000000 1.0
C      1  0.4669850000000  0.5032070000000  0.4298010000000 1.0
C      1  0.4732470000000  0.4625060000000  0.4637610000000 1.0
C      1  0.4733900000000  0.4539320000000  0.5244950000000 1.0
C      1  0.4732290000000  0.5089900000000  0.5512890000000 1.0
C      1  0.4732470000000  0.5516090000000  0.5072180000000 1.0
C      1  0.4732490000000  0.5228260000000  0.4531570000000 1.0
C      1  0.4587720000000  0.5543920000000  0.5350810000000 1.0
C      1  0.4589770000000  0.5503240000000  0.4589900000000 1.0
C      1  0.4589170000000  0.4765990000000  0.4394460000000 1.0
C      1  0.4589140000000  0.4352630000000  0.5035890000000 1.0
C      1  0.4590360000000  0.4832840000000  0.5627860000000 1.0
C      1  0.4986390000000  0.5053270000000  0.4717190000000 1.0
C      1  0.4986540000000  0.4747380000000  0.4861540000000 1.0
C      1  0.4986990000000  0.4790490000000  0.5197210000000 1.0
C      1  0.4986550000000  0.5123050000000  0.5260040000000 1.0
C      1  0.4986360000000  0.5285270000000  0.4963730000000 1.0
C      1  0.5145930000000  0.4262250000000  0.4674530000000 1.0
C      1  0.5148210000000  0.4462930000000  0.5601210000000 1.0
C      1  0.5144330000000  0.5405600000000  0.5697640000000 1.0
C      1  0.5146710000000  0.5787920000000  0.4830030000000 1.0
C      1  0.5145900000000  0.5082320000000  0.4197520000000 1.0
C      1  0.5458980000000  0.4797220000000  0.5387340000000 1.0
C      1  0.5458610000000  0.5306550000000  0.5314460000000 1.0
C      1  0.5458490000000  0.5392380000000  0.4806710000000 1.0
C      1  0.5458680000000  0.4936960000000  0.4566200000000 1.0
C      1  0.5458810000000  0.4568630000000  0.4925650000000 1.0
C      1  0.5029990000000  0.4952540000000  0.5641270000000 1.0
C      1  0.5030050000000  0.5595270000000  0.5243650000000 1.0
C      1  0.5030390000000  0.5415480000000  0.4509440000000 1.0
C      1  0.5030330000000  0.4661590000000  0.4452860000000 1.0
C      1  0.5031650000000  0.4375320000000  0.5153250000000 1.0
C      1  0.4575010000000  0.4777010000000  0.5117070000000 1.0
C      1  0.4574720000000  0.5041970000000  0.5247270000000 1.0
C      1  0.4574330000000  0.5248200000000  0.5035750000000 1.0
C      1  0.4574370000000  0.5110650000000  0.4774500000000 1.0
C      1  0.4574520000000  0.4819560000000  0.4824650000000 1.0
C      1  0.5177360000000  0.4468200000000  0.4900390000000 1.0
C      1  0.5177810000000  0.4741430000000  0.5474870000000 1.0
C      1  0.5176610000000  0.5371710000000  0.5393730000000 1.0
C      1  0.5177190000000  0.5488410000000  0.4768480000000 1.0
C      1  0.5177150000000  0.4930730000000  0.4463020000000 1.0
C      1  0.5572400000000  0.4700570000000  0.4692550000000 1.0
C      1  0.5573310000000  0.4617160000000  0.5189170000000 1.0
C      1  0.5572800000000  0.5062560000000  0.5424270000000 1.0
C      1  0.5572470000000  0.5422740000000  0.5072800000000 1.0
C      1  0.5572930000000  0.5198950000000  0.4621370000000 1.0
END
