TITL C-3985259-1859-571 -1.15430567712331e-07 125000 -298.364525311945 0 0 60 (S10) n - 1
REM
REM in /home/nfs/bkarasulu/CARBON/AIRSS/Generating-Clusters/TERSOFF/Higher-Symm/Only-C60
REM
REM
REM
REM
REM
REM ./C.cell (28575a23ae977d3b5fae324c64b13b57)
REM
REM compiler GCC version 9.2.1 20190827 (Red Hat 9.2.1-1)
REM options -cpp -mtune=generic -march=x86-64 -g -O0 -fpre-include=/usr/include/finclude/math-vector-fortran.h
REM seed 1811057198 -481133043 500169295 1352011677 -1209880437 108455695 -1795943102 1143586733 513026756 1579960208 102897398 -1951237007 1331737056 -769819652 -1324501824 -455163849 -503438380 1620296794 -2127251671 378592746 -334020076 570762244 1327179601 1374111225 687080212 -34290382 418538755 -1744949438 1920545417 699365795 1645853125 99446342 -587781963
REM
CELL 1.54180   50.00000   50.00000   50.00000   90.00000   90.00000   90.00000
LATT -1
SFAC C  
C      1  0.4484170000000  0.5310940000000  0.4594930000000 1.0
C      1  0.4765450000000  0.5554750000000  0.5405070000000 1.0
C      1  0.5136320000000  0.5586670000000  0.4594930000000 1.0
C      1  0.5455120000000  0.5394500000000  0.5405070000000 1.0
C      1  0.5600080000000  0.5051640000000  0.4594930000000 1.0
C      1  0.5515830000000  0.4689060000000  0.5405070000000 1.0
C      1  0.5234550000000  0.4445250000000  0.4594930000000 1.0
C      1  0.4863680000000  0.4413330000000  0.5405070000000 1.0
C      1  0.4544880000000  0.4605500000000  0.4594930000000 1.0
C      1  0.4399920000000  0.4948360000000  0.5405070000000 1.0
C      1  0.5169390000000  0.5592220000000  0.5118860000000 1.0
C      1  0.5485140000000  0.5379550000000  0.4881140000000 1.0
C      1  0.5615580000000  0.5021910000000  0.5118860000000 1.0
C      1  0.5510890000000  0.4655900000000  0.4881140000000 1.0
C      1  0.5211060000000  0.4421320000000  0.5118860000000 1.0
C      1  0.4830610000000  0.4407780000000  0.4881140000000 1.0
C      1  0.4514860000000  0.4620450000000  0.5118860000000 1.0
C      1  0.4384420000000  0.4978090000000  0.4881140000000 1.0
C      1  0.4489110000000  0.5344100000000  0.5118860000000 1.0
C      1  0.4788940000000  0.5578680000000  0.4881140000000 1.0
C      1  0.4946420000000  0.4295420000000  0.5133800000000 1.0
C      1  0.4542510000000  0.4461480000000  0.4866200000000 1.0
C      1  0.4313350000000  0.4833230000000  0.5133800000000 1.0
C      1  0.4346460000000  0.5268690000000  0.4866200000000 1.0
C      1  0.4629210000000  0.5601510000000  0.5133800000000 1.0
C      1  0.5053580000000  0.5704580000000  0.4866200000000 1.0
C      1  0.5457490000000  0.5538520000000  0.5133800000000 1.0
C      1  0.5686650000000  0.5166770000000  0.4866200000000 1.0
C      1  0.5653540000000  0.4731310000000  0.5133800000000 1.0
C      1  0.5370790000000  0.4398490000000  0.4866200000000 1.0
C      1  0.5602910000000  0.5134250000000  0.5418350000000 1.0
C      1  0.5566680000000  0.4754230000000  0.4581650000000 1.0
C      1  0.5313990000000  0.4468090000000  0.5418350000000 1.0
C      1  0.4941370000000  0.4385110000000  0.4581650000000 1.0
C      1  0.4591150000000  0.4537010000000  0.5418350000000 1.0
C      1  0.4397090000000  0.4865750000000  0.4581650000000 1.0
C      1  0.4433320000000  0.5245770000000  0.5418350000000 1.0
C      1  0.4686010000000  0.5531910000000  0.4581650000000 1.0
C      1  0.5058630000000  0.5614890000000  0.5418350000000 1.0
C      1  0.5408850000000  0.5462990000000  0.4581650000000 1.0
C      1  0.5310470000000  0.4956330000000  0.5534520000000 1.0
C      1  0.5225510000000  0.4782180000000  0.4465480000000 1.0
C      1  0.5054410000000  0.4691230000000  0.5534520000000 1.0
C      1  0.4862530000000  0.4718220000000  0.4465480000000 1.0
C      1  0.4723160000000  0.4852840000000  0.5534520000000 1.0
C      1  0.4689530000000  0.5043670000000  0.4465480000000 1.0
C      1  0.4774490000000  0.5217820000000  0.5534520000000 1.0
C      1  0.4945590000000  0.5308770000000  0.4465480000000 1.0
C      1  0.5137470000000  0.5281780000000  0.5534520000000 1.0
C      1  0.5276840000000  0.5147160000000  0.4465480000000 1.0
C      1  0.4725780000000  0.4994220000000  0.4808210000000 1.0
C      1  0.4774760000000  0.5156500000000  0.5191790000000 1.0
C      1  0.4909760000000  0.5259010000000  0.4808210000000 1.0
C      1  0.5079240000000  0.5262580000000  0.5191790000000 1.0
C      1  0.5218450000000  0.5165860000000  0.4808210000000 1.0
C      1  0.5274220000000  0.5005780000000  0.5191790000000 1.0
C      1  0.5225240000000  0.4843500000000  0.4808210000000 1.0
C      1  0.5090240000000  0.4740990000000  0.5191790000000 1.0
C      1  0.4920760000000  0.4737420000000  0.4808210000000 1.0
C      1  0.4781550000000  0.4834140000000  0.5191790000000 1.0
END
