TITL C-3985254-1270-654 -2.61550939173897e-07 125000 -339.746634019357 0 0 60 (D3h) n - 1
REM
REM in /home/nfs/bkarasulu/CARBON/AIRSS/Generating-Clusters/TERSOFF/Higher-Symm/Only-C60
REM
REM
REM
REM
REM
REM ./C.cell (28575a23ae977d3b5fae324c64b13b57)
REM
REM compiler GCC version 9.2.1 20190827 (Red Hat 9.2.1-1)
REM options -cpp -mtune=generic -march=x86-64 -g -O0 -fpre-include=/usr/include/finclude/math-vector-fortran.h
REM seed 1727875442 126341294 -76131460 -1822215286 1381622920 59899786 1188801857 -1595614693 -1905559800 -569988972 -650876436 -1299584417 1041674450 -944651378 589251543 1866769937 -1580931221 -513056196 961112306 -1668571879 -494984322 -1562022822 1653061823 -1893657843 1110173371 2122914592 1466856469 913858153 -290924574 -787497874 1577696681 -1529207498 -889615055
REM
CELL 1.54180   50.00000   50.00000   50.00000   90.00000   90.00000   90.00000
LATT -1
SFAC C  
C      1  0.5018700000000  0.5580260000000  0.5146350000000 1.0
C      1  0.4488130000000  0.4726060000000  0.5146350000000 1.0
C      1  0.5493170000000  0.4693670000000  0.5146350000000 1.0
C      1  0.5018700000000  0.5580260000000  0.4853650000000 1.0
C      1  0.4488130000000  0.4726060000000  0.4853650000000 1.0
C      1  0.5493170000000  0.4693670000000  0.4853650000000 1.0
C      1  0.5018700000000  0.4419740000000  0.5146350000000 1.0
C      1  0.4488130000000  0.5273940000000  0.5146350000000 1.0
C      1  0.5493170000000  0.5306330000000  0.5146350000000 1.0
C      1  0.5018700000000  0.4419740000000  0.4853650000000 1.0
C      1  0.4488130000000  0.5273940000000  0.4853650000000 1.0
C      1  0.5493170000000  0.5306330000000  0.4853650000000 1.0
C      1  0.5272180000000  0.4843000000000  0.4376200000000 1.0
C      1  0.4999870000000  0.5314210000000  0.4376200000000 1.0
C      1  0.4727950000000  0.4842780000000  0.4376200000000 1.0
C      1  0.5272180000000  0.4843000000000  0.5623800000000 1.0
C      1  0.4999870000000  0.5314210000000  0.5623800000000 1.0
C      1  0.4727950000000  0.4842780000000  0.5623800000000 1.0
C      1  0.5272180000000  0.5157000000000  0.4376200000000 1.0
C      1  0.4999870000000  0.4685790000000  0.4376200000000 1.0
C      1  0.4727950000000  0.5157220000000  0.4376200000000 1.0
C      1  0.5272180000000  0.5157000000000  0.5623800000000 1.0
C      1  0.4999870000000  0.4685790000000  0.5623800000000 1.0
C      1  0.4727950000000  0.5157220000000  0.5623800000000 1.0
C      1  0.5651660000000  0.5503490000000  0.4710310000000 1.0
C      1  0.4238140000000  0.5312610000000  0.4710310000000 1.0
C      1  0.5110200000000  0.4183900000000  0.4710310000000 1.0
C      1  0.5651660000000  0.5503490000000  0.5289690000000 1.0
C      1  0.4238140000000  0.5312610000000  0.5289690000000 1.0
C      1  0.5110200000000  0.4183900000000  0.5289690000000 1.0
C      1  0.5651660000000  0.4496510000000  0.4710310000000 1.0
C      1  0.4238140000000  0.4687390000000  0.4710310000000 1.0
C      1  0.5110200000000  0.5816100000000  0.4710310000000 1.0
C      1  0.5651660000000  0.4496510000000  0.5289690000000 1.0
C      1  0.4238140000000  0.4687390000000  0.5289690000000 1.0
C      1  0.5110200000000  0.5816100000000  0.5289690000000 1.0
C      1  0.5301050000000  0.4186730000000  0.4490920000000 1.0
C      1  0.5553780000000  0.5667350000000  0.4490920000000 1.0
C      1  0.4145170000000  0.5145920000000  0.4490920000000 1.0
C      1  0.5301050000000  0.4186730000000  0.5509080000000 1.0
C      1  0.5553780000000  0.5667350000000  0.5509080000000 1.0
C      1  0.4145170000000  0.5145920000000  0.5509080000000 1.0
C      1  0.5301050000000  0.5813270000000  0.4490920000000 1.0
C      1  0.5553780000000  0.4332650000000  0.4490920000000 1.0
C      1  0.4145170000000  0.4854080000000  0.4490920000000 1.0
C      1  0.5301050000000  0.5813270000000  0.5509080000000 1.0
C      1  0.5553780000000  0.4332650000000  0.5509080000000 1.0
C      1  0.4145170000000  0.4854080000000  0.5509080000000 1.0
C      1  0.4719020000000  0.4838840000000  0.5289460000000 1.0
C      1  0.5280060000000  0.4837240000000  0.5289460000000 1.0
C      1  0.5000920000000  0.5323920000000  0.5289460000000 1.0
C      1  0.4719020000000  0.4838840000000  0.4710540000000 1.0
C      1  0.5280060000000  0.4837240000000  0.4710540000000 1.0
C      1  0.5000920000000  0.5323920000000  0.4710540000000 1.0
C      1  0.4719020000000  0.5161160000000  0.5289460000000 1.0
C      1  0.5280060000000  0.5162760000000  0.5289460000000 1.0
C      1  0.5000920000000  0.4676080000000  0.5289460000000 1.0
C      1  0.4719020000000  0.5161160000000  0.4710540000000 1.0
C      1  0.5280060000000  0.5162760000000  0.4710540000000 1.0
C      1  0.5000920000000  0.4676080000000  0.4710540000000 1.0
END
