TITL C-3985259-1859-556 -0.00357015969967569 125000 -296.888137043743 0 0 60 (C1) n - 1
REM
REM in /home/nfs/bkarasulu/CARBON/AIRSS/Generating-Clusters/TERSOFF/Higher-Symm/Only-C60
REM
REM
REM
REM
REM
REM ./C.cell (28575a23ae977d3b5fae324c64b13b57)
REM
REM compiler GCC version 9.2.1 20190827 (Red Hat 9.2.1-1)
REM options -cpp -mtune=generic -march=x86-64 -g -O0 -fpre-include=/usr/include/finclude/math-vector-fortran.h
REM seed 708445815 1524497208 613632640 -727390173 733863059 634383767 1097755562 4441142 1723268381 3914328 -5279285 -223434102 1383741908 1421107880 1008959134 1603259913 1599228490 1966590244 1875969245 -1664568702 1765452414 -897555900 -250309406 -806181144 -53008175 -1118496692 -1335359260 1826919752 -166553777 1011194234 1451717007 -2019499292 145375720
REM
CELL 1.54180   50.00000   50.00000   50.00000   90.00000   90.00000   90.00000
LATT -1
SFAC C  
C      1  0.4439850000000  0.5719860000000  0.4911080000000 1.0
C      1  0.4111450000000  0.4538790000000  0.4937820000000 1.0
C      1  0.5019510000000  0.4057010000000  0.4902810000000 1.0
C      1  0.5999790000000  0.4785380000000  0.4849370000000 1.0
C      1  0.5427820000000  0.5896920000000  0.4989570000000 1.0
C      1  0.4441770000000  0.4280810000000  0.4912140000000 1.0
C      1  0.4110390000000  0.5460830000000  0.4937210000000 1.0
C      1  0.5019460000000  0.5942240000000  0.4902980000000 1.0
C      1  0.6000010000000  0.5214370000000  0.4849510000000 1.0
C      1  0.5427780000000  0.4103080000000  0.4989420000000 1.0
C      1  0.5336910000000  0.4266650000000  0.5365370000000 1.0
C      1  0.5854610000000  0.5209680000000  0.5248800000000 1.0
C      1  0.4888150000000  0.5795600000000  0.5274530000000 1.0
C      1  0.4225640000000  0.5378600000000  0.5332630000000 1.0
C      1  0.4592390000000  0.4373950000000  0.5300630000000 1.0
C      1  0.5337400000000  0.5733000000000  0.5365470000000 1.0
C      1  0.5854420000000  0.4789810000000  0.5248790000000 1.0
C      1  0.4887220000000  0.4202920000000  0.5273740000000 1.0
C      1  0.4227030000000  0.4622190000000  0.5332800000000 1.0
C      1  0.4590430000000  0.5628850000000  0.5301030000000 1.0
C      1  0.5306830000000  0.4567340000000  0.5305340000000 1.0
C      1  0.5549090000000  0.5171540000000  0.5247600000000 1.0
C      1  0.4990030000000  0.5493440000000  0.5211520000000 1.0
C      1  0.4426470000000  0.5166860000000  0.5280810000000 1.0
C      1  0.4713210000000  0.4676440000000  0.5271070000000 1.0
C      1  0.5307320000000  0.5432070000000  0.5305470000000 1.0
C      1  0.5548930000000  0.4828160000000  0.5247700000000 1.0
C      1  0.4989770000000  0.4505480000000  0.5211060000000 1.0
C      1  0.4427270000000  0.4833900000000  0.5279870000000 1.0
C      1  0.4711270000000  0.5326180000000  0.5271220000000 1.0
C      1  0.5029550000000  0.5444800000000  0.4889910000000 1.0
C      1  0.4481690000000  0.5149450000000  0.4957980000000 1.0
C      1  0.4749440000000  0.4695510000000  0.4922780000000 1.0
C      1  0.5322700000000  0.4603320000000  0.4974980000000 1.0
C      1  0.5508510000000  0.5157080000000  0.4908330000000 1.0
C      1  0.5029810000000  0.4553670000000  0.4889760000000 1.0
C      1  0.4482350000000  0.4850250000000  0.4957070000000 1.0
C      1  0.4747700000000  0.5306030000000  0.4923620000000 1.0
C      1  0.5322870000000  0.5396450000000  0.4974920000000 1.0
C      1  0.5508270000000  0.4842820000000  0.4908260000000 1.0
C      1  0.4558540000000  0.5502590000000  0.4735650000000 1.0
C      1  0.4278340000000  0.4723710000000  0.4756240000000 1.0
C      1  0.5053460000000  0.4293090000000  0.4705580000000 1.0
C      1  0.5731600000000  0.4716380000000  0.4756130000000 1.0
C      1  0.5401390000000  0.5666060000000  0.4800940000000 1.0
C      1  0.4559580000000  0.4498030000000  0.4736000000000 1.0
C      1  0.4278070000000  0.5275830000000  0.4756630000000 1.0
C      1  0.5053470000000  0.5705890000000  0.4706300000000 1.0
C      1  0.5731870000000  0.5283500000000  0.4756250000000 1.0
C      1  0.5401190000000  0.4333820000000  0.4800660000000 1.0
C      1  0.4264100000000  0.5651870000000  0.5167830000000 1.0
C      1  0.5182250000000  0.4041540000000  0.5188760000000 1.0
C      1  0.4266030000000  0.4348700000000  0.5168780000000 1.0
C      1  0.6048550000000  0.4999760000000  0.5083140000000 1.0
C      1  0.5182390000000  0.5958220000000  0.5189090000000 1.0
C      1  0.5650420000000  0.5552960000000  0.4667200000000 1.0
C      1  0.4786250000000  0.5621720000000  0.4566610000000 1.0
C      1  0.5650120000000  0.4447010000000  0.4666880000000 1.0
C      1  0.4786300000000  0.4378140000000  0.4566380000000 1.0
C      1  0.4190920000000  0.4999880000000  0.4635370000000 1.0
END
