TITL C-3985245-9316-633 -8.81716979704476e-06 125000 -335.744967037703 0 0 60 (C3) n - 1
REM
REM in /home/nfs/bkarasulu/CARBON/AIRSS/Generating-Clusters/TERSOFF/Higher-Symm/Only-C60
REM
REM
REM
REM
REM
REM ./C.cell (28575a23ae977d3b5fae324c64b13b57)
REM
REM compiler GCC version 9.2.1 20190827 (Red Hat 9.2.1-1)
REM options -cpp -mtune=generic -march=x86-64 -g -O0 -fpre-include=/usr/include/finclude/math-vector-fortran.h
REM seed 309975168 219162995 1334893751 700704968 2084805096 -1699970981 -1514770527 -497126943 -1144303836 -1998127709 795832991 -590273827 -769431598 1571701590 -236679771 -175589381 1295862801 -1904895269 -49596878 1062948076 1674023413 1175133171 -1532253708 2145674894 1060405163 -1734092395 -1569716754 781636967 -1492231815 -28638680 1956438263 1418491894 1037428756
REM
CELL 1.54180   50.00000   50.00000   50.00000   90.00000   90.00000   90.00000
LATT -1
SFAC C  
C      1  0.4798070000000  0.5413930000000  0.4593590000000 1.0
C      1  0.5459420000000  0.4968010000000  0.4593740000000 1.0
C      1  0.4742530000000  0.4618130000000  0.4593610000000 1.0
C      1  0.5430330000000  0.5604450000000  0.4965710000000 1.0
C      1  0.5308270000000  0.4324970000000  0.4965710000000 1.0
C      1  0.4261360000000  0.5070400000000  0.4965650000000 1.0
C      1  0.5076210000000  0.5504400000000  0.4427730000000 1.0
C      1  0.5398880000000  0.4681920000000  0.4427770000000 1.0
C      1  0.4525160000000  0.4813750000000  0.4427660000000 1.0
C      1  0.4726310000000  0.4403980000000  0.5089840000000 1.0
C      1  0.4620630000000  0.5535070000000  0.5089830000000 1.0
C      1  0.5653060000000  0.5060960000000  0.5089820000000 1.0
C      1  0.4562510000000  0.5456120000000  0.4797300000000 1.0
C      1  0.5613830000000  0.5150850000000  0.4797230000000 1.0
C      1  0.4823690000000  0.4393070000000  0.4797220000000 1.0
C      1  0.4907170000000  0.5341170000000  0.5704310000000 1.0
C      1  0.5341940000000  0.4909800000000  0.5704290000000 1.0
C      1  0.4750940000000  0.4749010000000  0.5704300000000 1.0
C      1  0.4824930000000  0.4763420000000  0.5281810000000 1.0
C      1  0.4882580000000  0.5269880000000  0.5281760000000 1.0
C      1  0.5292500000000  0.4966670000000  0.5281870000000 1.0
C      1  0.5210940000000  0.5136770000000  0.4578290000000 1.0
C      1  0.5013000000000  0.4748820000000  0.4578330000000 1.0
C      1  0.4776160000000  0.5114190000000  0.4578470000000 1.0
C      1  0.5231220000000  0.4311190000000  0.5249780000000 1.0
C      1  0.4287840000000  0.5144140000000  0.5249790000000 1.0
C      1  0.5480920000000  0.5544660000000  0.5249810000000 1.0
C      1  0.4962340000000  0.5594850000000  0.5183960000000 1.0
C      1  0.5534050000000  0.4735130000000  0.5183970000000 1.0
C      1  0.4503590000000  0.4669940000000  0.5183950000000 1.0
C      1  0.5076170000000  0.5195370000000  0.4296050000000 1.0
C      1  0.5131090000000  0.4836370000000  0.4295960000000 1.0
C      1  0.4792750000000  0.4968410000000  0.4295840000000 1.0
C      1  0.5100900000000  0.5272040000000  0.4845640000000 1.0
C      1  0.5184860000000  0.4776580000000  0.4845680000000 1.0
C      1  0.4713230000000  0.4951670000000  0.4845230000000 1.0
C      1  0.5258150000000  0.4396470000000  0.4484270000000 1.0
C      1  0.4348170000000  0.5078210000000  0.4484250000000 1.0
C      1  0.5393710000000  0.5525420000000  0.4484320000000 1.0
C      1  0.5211120000000  0.5592890000000  0.5393830000000 1.0
C      1  0.5407860000000  0.4520730000000  0.5393820000000 1.0
C      1  0.4380990000000  0.4886420000000  0.5393840000000 1.0
C      1  0.4450300000000  0.4846510000000  0.4934120000000 1.0
C      1  0.5141850000000  0.5552810000000  0.4934170000000 1.0
C      1  0.5407930000000  0.4600650000000  0.4934120000000 1.0
C      1  0.4957030000000  0.4612230000000  0.5529370000000 1.0
C      1  0.4685680000000  0.5231140000000  0.5529440000000 1.0
C      1  0.5357330000000  0.5156620000000  0.5529410000000 1.0
C      1  0.5537520000000  0.5445340000000  0.4741950000000 1.0
C      1  0.5116930000000  0.4311910000000  0.4741930000000 1.0
C      1  0.4345680000000  0.5242810000000  0.4741930000000 1.0
C      1  0.5586430000000  0.5264200000000  0.5317330000000 1.0
C      1  0.4935580000000  0.4360090000000  0.5317320000000 1.0
C      1  0.4477990000000  0.5375780000000  0.5317350000000 1.0
C      1  0.5239990000000  0.5037060000000  0.4985130000000 1.0
C      1  0.4912030000000  0.4773750000000  0.4985260000000 1.0
C      1  0.4848420000000  0.5188810000000  0.4985330000000 1.0
C      1  0.5247290000000  0.4654810000000  0.5599950000000 1.0
C      1  0.4577340000000  0.4958460000000  0.5600030000000 1.0
C      1  0.5175330000000  0.5386750000000  0.5600000000000 1.0
END
