TITL C-3985245-9316-777 0.00180942089195847 125000 -323.731249871949 0 0 60 (C3i) n - 1
REM
REM in /home/nfs/bkarasulu/CARBON/AIRSS/Generating-Clusters/TERSOFF/Higher-Symm/Only-C60
REM
REM
REM
REM
REM
REM ./C.cell (28575a23ae977d3b5fae324c64b13b57)
REM
REM compiler GCC version 9.2.1 20190827 (Red Hat 9.2.1-1)
REM options -cpp -mtune=generic -march=x86-64 -g -O0 -fpre-include=/usr/include/finclude/math-vector-fortran.h
REM seed -836110286 -20747810 -830024908 1046373072 608312618 -133784645 1139269560 -1429530625 -1480647558 988139632 1851017820 -1370075776 1994747796 227744738 -1490454630 -1011705238 1980074820 1343010987 -417938001 -715179625 -2025552513 -398174073 922448877 935557626 197561220 2123408641 1206055010 642782558 1989563734 -1037512083 -486934400 215707529 -1838951886
REM
CELL 1.54180   50.00000   50.00000   50.00000   90.00000   90.00000   90.00000
LATT -1
SFAC C  
C      1  0.4658910000000  0.5600760000000  0.4650420000000 1.0
C      1  0.5349700000000  0.5595580000000  0.5349760000000 1.0
C      1  0.5690450000000  0.4994750000000  0.4650240000000 1.0
C      1  0.5341090000000  0.4399240000000  0.5349580000000 1.0
C      1  0.4650300000000  0.4404420000000  0.4650240000000 1.0
C      1  0.4309450000000  0.5005190000000  0.5349740000000 1.0
C      1  0.4704330000000  0.4958300000000  0.5048450000000 1.0
C      1  0.4815910000000  0.5235090000000  0.4951550000000 1.0
C      1  0.5111610000000  0.5276960000000  0.5048430000000 1.0
C      1  0.5295670000000  0.5041700000000  0.4951550000000 1.0
C      1  0.5184090000000  0.4764910000000  0.5048450000000 1.0
C      1  0.4888390000000  0.4723040000000  0.4951570000000 1.0
C      1  0.5147640000000  0.5139380000000  0.4183280000000 1.0
C      1  0.5194450000000  0.4941910000000  0.5816770000000 1.0
C      1  0.5046930000000  0.4802320000000  0.4183250000000 1.0
C      1  0.4852360000000  0.4860620000000  0.5816720000000 1.0
C      1  0.4805550000000  0.5058090000000  0.4183230000000 1.0
C      1  0.4953060000000  0.5197680000000  0.5816750000000 1.0
C      1  0.5628860000000  0.4639990000000  0.4637840000000 1.0
C      1  0.5002850000000  0.4275460000000  0.5361990000000 1.0
C      1  0.4373860000000  0.4635510000000  0.4637880000000 1.0
C      1  0.4371140000000  0.5360010000000  0.5362160000000 1.0
C      1  0.4997150000000  0.5724540000000  0.4638010000000 1.0
C      1  0.5626140000000  0.5364490000000  0.5362120000000 1.0
C      1  0.4364350000000  0.4941780000000  0.5033490000000 1.0
C      1  0.4631670000000  0.5521360000000  0.4966550000000 1.0
C      1  0.5267340000000  0.5579620000000  0.5033520000000 1.0
C      1  0.5635650000000  0.5058220000000  0.4966510000000 1.0
C      1  0.5368330000000  0.4478640000000  0.5033450000000 1.0
C      1  0.4732660000000  0.4420380000000  0.4966480000000 1.0
C      1  0.5065800000000  0.5772550000000  0.4930380000000 1.0
C      1  0.5701990000000  0.5329170000000  0.5069750000000 1.0
C      1  0.5636150000000  0.4556580000000  0.4930240000000 1.0
C      1  0.4934200000000  0.4227450000000  0.5069620000000 1.0
C      1  0.4298010000000  0.4670830000000  0.4930250000000 1.0
C      1  0.4363850000000  0.5443420000000  0.5069760000000 1.0
C      1  0.4648900000000  0.5234320000000  0.5441400000000 1.0
C      1  0.5027190000000  0.5421150000000  0.4558690000000 1.0
C      1  0.5378320000000  0.5186830000000  0.5441370000000 1.0
C      1  0.5351190000000  0.4765750000000  0.4558630000000 1.0
C      1  0.4972810000000  0.4578850000000  0.5441310000000 1.0
C      1  0.4621680000000  0.4813170000000  0.4558630000000 1.0
C      1  0.4759620000000  0.4743500000000  0.5558670000000 1.0
C      1  0.4657360000000  0.5079270000000  0.4441740000000 1.0
C      1  0.4897510000000  0.5336500000000  0.5558370000000 1.0
C      1  0.5240380000000  0.5256500000000  0.4441330000000 1.0
C      1  0.5342640000000  0.4920730000000  0.5558260000000 1.0
C      1  0.5102480000000  0.4663490000000  0.4441630000000 1.0
C      1  0.4765410000000  0.5285590000000  0.4626490000000 1.0
C      1  0.5129700000000  0.5346090000000  0.5373360000000 1.0
C      1  0.5364370000000  0.5060810000000  0.4626770000000 1.0
C      1  0.5234590000000  0.4714410000000  0.5373510000000 1.0
C      1  0.4870300000000  0.4653910000000  0.4626640000000 1.0
C      1  0.4635630000000  0.4939180000000  0.5373230000000 1.0
C      1  0.5544580000000  0.5536040000000  0.4920640000000 1.0
C      1  0.5736600000000  0.4796350000000  0.5079340000000 1.0
C      1  0.5191990000000  0.4260360000000  0.4920460000000 1.0
C      1  0.4455420000000  0.4463960000000  0.5079360000000 1.0
C      1  0.4263400000000  0.5203650000000  0.4920660000000 1.0
C      1  0.4808010000000  0.5739640000000  0.5079540000000 1.0
END
