TITL C-3985259-1859-398 -9.4821736185473e-05 125000 -308.841653456719 0 0 60 (C1) n - 1
REM
REM in /home/nfs/bkarasulu/CARBON/AIRSS/Generating-Clusters/TERSOFF/Higher-Symm/Only-C60
REM
REM
REM
REM
REM
REM ./C.cell (28575a23ae977d3b5fae324c64b13b57)
REM
REM compiler GCC version 9.2.1 20190827 (Red Hat 9.2.1-1)
REM options -cpp -mtune=generic -march=x86-64 -g -O0 -fpre-include=/usr/include/finclude/math-vector-fortran.h
REM seed 968621550 -157554619 -251672419 -1040552119 -1256903236 1261096332 162293364 -1260377344 73990657 -1262659617 -1921135501 1156201663 -1872993498 1897307077 1679995110 -1065783111 -840652628 1152025921 1210270893 1420107034 2123480901 1996495397 740152477 1210558639 -1194079917 -1479926682 1335888945 1506699126 -10989436 829709563 -1584711196 357300689 -1014925304
REM
CELL 1.54180   50.00000   50.00000   50.00000   90.00000   90.00000   90.00000
LATT -1
SFAC C  
C      1  0.4855670000000  0.4675120000000  0.5608270000000 1.0
C      1  0.5530360000000  0.5373070000000  0.5412930000000 1.0
C      1  0.4821880000000  0.4840440000000  0.5224030000000 1.0
C      1  0.4265730000000  0.4943280000000  0.5048400000000 1.0
C      1  0.4556550000000  0.4708250000000  0.5424430000000 1.0
C      1  0.4850580000000  0.5507540000000  0.4866360000000 1.0
C      1  0.4456640000000  0.5254670000000  0.4719370000000 1.0
C      1  0.4800780000000  0.5136880000000  0.5432630000000 1.0
C      1  0.5214470000000  0.5105850000000  0.5497510000000 1.0
C      1  0.5705500000000  0.4798990000000  0.4500300000000 1.0
C      1  0.4347310000000  0.4679770000000  0.5172380000000 1.0
C      1  0.4764190000000  0.4279310000000  0.4694110000000 1.0
C      1  0.5753640000000  0.4728930000000  0.5067740000000 1.0
C      1  0.4579500000000  0.5342580000000  0.5236270000000 1.0
C      1  0.5515020000000  0.5193770000000  0.4809970000000 1.0
C      1  0.5071230000000  0.5317850000000  0.5342390000000 1.0
C      1  0.4975770000000  0.4623550000000  0.4804590000000 1.0
C      1  0.4978300000000  0.4954700000000  0.5695220000000 1.0
C      1  0.5613320000000  0.4922020000000  0.5236640000000 1.0
C      1  0.5146270000000  0.4739140000000  0.5184890000000 1.0
C      1  0.5086200000000  0.5630020000000  0.5370550000000 1.0
C      1  0.5083240000000  0.5316190000000  0.4826490000000 1.0
C      1  0.5617270000000  0.5210400000000  0.5155220000000 1.0
C      1  0.5352480000000  0.4854080000000  0.5366230000000 1.0
C      1  0.4372770000000  0.4964150000000  0.4704300000000 1.0
C      1  0.5475900000000  0.4924890000000  0.4365330000000 1.0
C      1  0.4722020000000  0.4563950000000  0.4475320000000 1.0
C      1  0.5097880000000  0.4502300000000  0.5528610000000 1.0
C      1  0.4759440000000  0.4976670000000  0.4948760000000 1.0
C      1  0.5229660000000  0.5355770000000  0.5086930000000 1.0
C      1  0.4315240000000  0.5160580000000  0.5263810000000 1.0
C      1  0.4641250000000  0.4327390000000  0.4986950000000 1.0
C      1  0.4648830000000  0.5276410000000  0.4953730000000 1.0
C      1  0.5304560000000  0.4894510000000  0.5846100000000 1.0
C      1  0.5113780000000  0.4393530000000  0.5213880000000 1.0
C      1  0.4747630000000  0.5597150000000  0.4600550000000 1.0
C      1  0.4447810000000  0.4534760000000  0.4944360000000 1.0
C      1  0.5044130000000  0.4330260000000  0.4866850000000 1.0
C      1  0.5180050000000  0.4826860000000  0.4894470000000 1.0
C      1  0.5447680000000  0.4895290000000  0.4817480000000 1.0
C      1  0.5385840000000  0.5628860000000  0.5387460000000 1.0
C      1  0.5263140000000  0.5667990000000  0.4966140000000 1.0
C      1  0.5279070000000  0.5499560000000  0.4647050000000 1.0
C      1  0.4941740000000  0.4978140000000  0.4507780000000 1.0
C      1  0.4492780000000  0.5015190000000  0.5484030000000 1.0
C      1  0.4592560000000  0.5376910000000  0.4479130000000 1.0
C      1  0.5091640000000  0.5293220000000  0.4274380000000 1.0
C      1  0.4934800000000  0.5735020000000  0.5101000000000 1.0
C      1  0.5378380000000  0.5226340000000  0.4470920000000 1.0
C      1  0.4997970000000  0.4717740000000  0.4396310000000 1.0
C      1  0.4760910000000  0.5163560000000  0.4336930000000 1.0
C      1  0.5346900000000  0.4667860000000  0.5616400000000 1.0
C      1  0.5453200000000  0.5189930000000  0.5696160000000 1.0
C      1  0.4549100000000  0.4875630000000  0.4400730000000 1.0
C      1  0.5667980000000  0.4687370000000  0.4781660000000 1.0
C      1  0.4660300000000  0.5634670000000  0.5244610000000 1.0
C      1  0.5266110000000  0.4738190000000  0.4266440000000 1.0
C      1  0.5002890000000  0.5042390000000  0.4781080000000 1.0
C      1  0.4816480000000  0.4479500000000  0.5186780000000 1.0
C      1  0.4627700000000  0.4721080000000  0.4780650000000 1.0
END
