TITL C-3985259-1859-1124 -0.000636538553627232 125000 -284.552221248736 0 0 60 (Td) n - 1
REM
REM in /home/nfs/bkarasulu/CARBON/AIRSS/Generating-Clusters/TERSOFF/Higher-Symm/Only-C60
REM
REM
REM
REM
REM
REM ./C.cell (28575a23ae977d3b5fae324c64b13b57)
REM
REM compiler GCC version 9.2.1 20190827 (Red Hat 9.2.1-1)
REM options -cpp -mtune=generic -march=x86-64 -g -O0 -fpre-include=/usr/include/finclude/math-vector-fortran.h
REM seed -332663140 -2022961815 -1605919947 -1866164919 -850670088 -2044277435 -1386747515 -445169480 -469327183 -1601843901 -24721068 657152296 -1471050837 -426561164 -1238381752 -1938286000 -506684824 -2100977554 -1056163739 -1755178914 -582554203 416170997 -1007048543 1295625701 388620386 -321546176 1305643677 -154361293 62028032 1604716285 266425781 -133945277 920786732
REM
CELL 1.54180   50.00000   50.00000   50.00000   90.00000   90.00000   90.00000
LATT -1
SFAC C  
C      1  0.5630270000000  0.5416840000000  0.4789230000000 1.0
C      1  0.5416840000000  0.4789230000000  0.5630270000000 1.0
C      1  0.4789230000000  0.5630270000000  0.5416840000000 1.0
C      1  0.4369730000000  0.4583160000000  0.4789230000000 1.0
C      1  0.5630270000000  0.4583160000000  0.5210770000000 1.0
C      1  0.4369730000000  0.5416840000000  0.5210770000000 1.0
C      1  0.4583160000000  0.5210770000000  0.5630270000000 1.0
C      1  0.5416840000000  0.5210770000000  0.4369730000000 1.0
C      1  0.4583160000000  0.4789230000000  0.4369730000000 1.0
C      1  0.5210770000000  0.4369730000000  0.5416840000000 1.0
C      1  0.4789230000000  0.4369730000000  0.4583160000000 1.0
C      1  0.5210770000000  0.5630270000000  0.4583160000000 1.0
C      1  0.5416840000000  0.5630270000000  0.4789230000000 1.0
C      1  0.4789230000000  0.5416840000000  0.5630270000000 1.0
C      1  0.5630270000000  0.4789230000000  0.5416840000000 1.0
C      1  0.4583160000000  0.4369730000000  0.4789230000000 1.0
C      1  0.4583160000000  0.5630270000000  0.5210770000000 1.0
C      1  0.5416840000000  0.4369730000000  0.5210770000000 1.0
C      1  0.5210770000000  0.4583160000000  0.5630270000000 1.0
C      1  0.5210770000000  0.5416840000000  0.4369730000000 1.0
C      1  0.4789230000000  0.4583160000000  0.4369730000000 1.0
C      1  0.4369730000000  0.5210770000000  0.5416840000000 1.0
C      1  0.4369730000000  0.4789230000000  0.4583160000000 1.0
C      1  0.5630270000000  0.5210770000000  0.4583160000000 1.0
C      1  0.4891200000000  0.5620060000000  0.4634990000000 1.0
C      1  0.5620060000000  0.4634990000000  0.4891200000000 1.0
C      1  0.4634990000000  0.4891200000000  0.5620060000000 1.0
C      1  0.5108800000000  0.4379940000000  0.4634990000000 1.0
C      1  0.4891200000000  0.4379940000000  0.5365010000000 1.0
C      1  0.5108800000000  0.5620060000000  0.5365010000000 1.0
C      1  0.4379940000000  0.5365010000000  0.4891200000000 1.0
C      1  0.5620060000000  0.5365010000000  0.5108800000000 1.0
C      1  0.4379940000000  0.4634990000000  0.5108800000000 1.0
C      1  0.5365010000000  0.5108800000000  0.5620060000000 1.0
C      1  0.4634990000000  0.5108800000000  0.4379940000000 1.0
C      1  0.5365010000000  0.4891200000000  0.4379940000000 1.0
C      1  0.5620060000000  0.4891200000000  0.4634990000000 1.0
C      1  0.4634990000000  0.5620060000000  0.4891200000000 1.0
C      1  0.4891200000000  0.4634990000000  0.5620060000000 1.0
C      1  0.4379940000000  0.5108800000000  0.4634990000000 1.0
C      1  0.4379940000000  0.4891200000000  0.5365010000000 1.0
C      1  0.5620060000000  0.5108800000000  0.5365010000000 1.0
C      1  0.5365010000000  0.4379940000000  0.4891200000000 1.0
C      1  0.5365010000000  0.5620060000000  0.5108800000000 1.0
C      1  0.4634990000000  0.4379940000000  0.5108800000000 1.0
C      1  0.5108800000000  0.5365010000000  0.5620060000000 1.0
C      1  0.5108800000000  0.4634990000000  0.4379940000000 1.0
C      1  0.4891200000000  0.5365010000000  0.4379940000000 1.0
C      1  0.4897820000000  0.4897820000000  0.5846550000000 1.0
C      1  0.4897820000000  0.5846550000000  0.4897820000000 1.0
C      1  0.5102180000000  0.4897820000000  0.4153450000000 1.0
C      1  0.5102180000000  0.4153450000000  0.4897820000000 1.0
C      1  0.4897820000000  0.5102180000000  0.4153450000000 1.0
C      1  0.4153450000000  0.5102180000000  0.4897820000000 1.0
C      1  0.4153450000000  0.4897820000000  0.5102180000000 1.0
C      1  0.5846550000000  0.4897820000000  0.4897820000000 1.0
C      1  0.5102180000000  0.5102180000000  0.5846550000000 1.0
C      1  0.4897820000000  0.4153450000000  0.5102180000000 1.0
C      1  0.5102180000000  0.5846550000000  0.5102180000000 1.0
C      1  0.5846550000000  0.5102180000000  0.5102180000000 1.0
END
