TITL C-3985253-1688-550 -3.74273339048611e-05 125000 -318.665017648818 0 0 60 (C1) n - 1
REM
REM in /home/nfs/bkarasulu/CARBON/AIRSS/Generating-Clusters/TERSOFF/Higher-Symm/Only-C60
REM
REM
REM
REM
REM
REM ./C.cell (28575a23ae977d3b5fae324c64b13b57)
REM
REM compiler GCC version 9.2.1 20190827 (Red Hat 9.2.1-1)
REM options -cpp -mtune=generic -march=x86-64 -g -O0 -fpre-include=/usr/include/finclude/math-vector-fortran.h
REM seed -238019844 -45636968 -270065142 -493257989 -776744206 1003456408 -1981258879 -1272291373 -248089164 -194538526 -1660046200 -145340953 -805910352 -437781423 -1561140774 -108396011 2020618136 -1675474969 1993032275 1887122102 940258154 -990093747 679396644 -1189150158 1501884638 1454977942 -185127397 1394330464 -1427327192 -458153546 970341811 -1460614665 1563598842
REM
CELL 1.54180   50.00000   50.00000   50.00000   90.00000   90.00000   90.00000
LATT -1
SFAC C  
C      1  0.4470990000000  0.4529590000000  0.4557300000000 1.0
C      1  0.4278080000000  0.4508230000000  0.5112310000000 1.0
C      1  0.4679430000000  0.4513070000000  0.5535240000000 1.0
C      1  0.5278040000000  0.4506940000000  0.5550860000000 1.0
C      1  0.5709900000000  0.4509410000000  0.5147210000000 1.0
C      1  0.5547210000000  0.4522730000000  0.4589460000000 1.0
C      1  0.5020680000000  0.4487580000000  0.4424730000000 1.0
C      1  0.5373680000000  0.5386630000000  0.4575320000000 1.0
C      1  0.4907190000000  0.5352750000000  0.4462210000000 1.0
C      1  0.4524700000000  0.5343710000000  0.4751480000000 1.0
C      1  0.4462630000000  0.5378870000000  0.5225450000000 1.0
C      1  0.4849620000000  0.5363450000000  0.5561480000000 1.0
C      1  0.5335670000000  0.5340160000000  0.5437280000000 1.0
C      1  0.5533030000000  0.5348980000000  0.5017410000000 1.0
C      1  0.4971570000000  0.4648210000000  0.5631120000000 1.0
C      1  0.5614030000000  0.4607550000000  0.5465610000000 1.0
C      1  0.5765250000000  0.4641170000000  0.4816140000000 1.0
C      1  0.5300300000000  0.4619150000000  0.4375620000000 1.0
C      1  0.4746820000000  0.4645650000000  0.4371930000000 1.0
C      1  0.4230620000000  0.4629200000000  0.4787250000000 1.0
C      1  0.4355110000000  0.4620000000000  0.5442780000000 1.0
C      1  0.5188750000000  0.5245890000000  0.4383000000000 1.0
C      1  0.4644840000000  0.5165090000000  0.4499460000000 1.0
C      1  0.4341390000000  0.5204230000000  0.4966940000000 1.0
C      1  0.4531680000000  0.5211670000000  0.5483270000000 1.0
C      1  0.5142360000000  0.5161280000000  0.5618730000000 1.0
C      1  0.5587710000000  0.5194310000000  0.5293270000000 1.0
C      1  0.5545240000000  0.5185250000000  0.4750790000000 1.0
C      1  0.5349610000000  0.4946540000000  0.4645060000000 1.0
C      1  0.5037510000000  0.4900000000000  0.4678670000000 1.0
C      1  0.4500480000000  0.4931260000000  0.4676310000000 1.0
C      1  0.4380520000000  0.4944630000000  0.5148330000000 1.0
C      1  0.4739590000000  0.5015970000000  0.5353920000000 1.0
C      1  0.5337360000000  0.4924110000000  0.5494420000000 1.0
C      1  0.5623000000000  0.4944590000000  0.5086080000000 1.0
C      1  0.5345700000000  0.4648090000000  0.4807660000000 1.0
C      1  0.5003620000000  0.4564530000000  0.4731440000000 1.0
C      1  0.4663700000000  0.4673190000000  0.4782580000000 1.0
C      1  0.4540280000000  0.4692010000000  0.5063220000000 1.0
C      1  0.4736360000000  0.4698220000000  0.5286880000000 1.0
C      1  0.5241600000000  0.4699070000000  0.5295410000000 1.0
C      1  0.5450320000000  0.4692950000000  0.5088790000000 1.0
C      1  0.4931970000000  0.5577070000000  0.4666930000000 1.0
C      1  0.4687400000000  0.5581200000000  0.4843510000000 1.0
C      1  0.4672190000000  0.5590140000000  0.5151270000000 1.0
C      1  0.4907140000000  0.5587820000000  0.5358620000000 1.0
C      1  0.5211210000000  0.5581830000000  0.5299690000000 1.0
C      1  0.5347660000000  0.5586560000000  0.5025380000000 1.0
C      1  0.5225930000000  0.5596600000000  0.4746820000000 1.0
C      1  0.5788100000000  0.4964710000000  0.4824200000000 1.0
C      1  0.5288120000000  0.4937840000000  0.4322730000000 1.0
C      1  0.4850890000000  0.4929700000000  0.4445750000000 1.0
C      1  0.4204970000000  0.4952670000000  0.4767000000000 1.0
C      1  0.4322270000000  0.4946550000000  0.5452190000000 1.0
C      1  0.4926080000000  0.4944760000000  0.5575540000000 1.0
C      1  0.5645000000000  0.4930740000000  0.5517970000000 1.0
C      1  0.4996050000000  0.5357930000000  0.5019130000000 1.0
C      1  0.4958320000000  0.4911630000000  0.4963190000000 1.0
C      1  0.4839380000000  0.5130850000000  0.5080920000000 1.0
C      1  0.4995050000000  0.4695860000000  0.5149940000000 1.0
END
