TITL C-3985253-1688-20 0.000847081539296178 125000 -322.072231350977 0 0 60 (C2v) n - 1
REM
REM in /home/nfs/bkarasulu/CARBON/AIRSS/Generating-Clusters/TERSOFF/Higher-Symm/Only-C60
REM
REM
REM
REM
REM
REM ./C.cell (28575a23ae977d3b5fae324c64b13b57)
REM
REM compiler GCC version 9.2.1 20190827 (Red Hat 9.2.1-1)
REM options -cpp -mtune=generic -march=x86-64 -g -O0 -fpre-include=/usr/include/finclude/math-vector-fortran.h
REM seed 1556203471 -372126087 1056664344 774520870 200332170 -1495741596 -900937861 -1952023510 -1876178108 -1930892366 1556791099 396189408 -410223362 -190504198 1865887656 -242504715 734785322 1676481561 -2100163911 515485185 -174745319 -312923595 1776912673 -986343785 -78322296 -595940515 283955004 112013179 -1114661884 146585997 532908412 895591430 1132084173
REM
CELL 1.54180   50.00000   50.00000   50.00000   90.00000   90.00000   90.00000
LATT -1
SFAC C  
C      1  0.5435450000000  0.4597540000000  0.4523150000000 1.0
C      1  0.5435450000000  0.5402460000000  0.5476850000000 1.0
C      1  0.5435450000000  0.4597540000000  0.5476870000000 1.0
C      1  0.5435450000000  0.5402460000000  0.4523130000000 1.0
C      1  0.5133010000000  0.5165420000000  0.5292920000000 1.0
C      1  0.5133010000000  0.4834580000000  0.4707080000000 1.0
C      1  0.5133000000000  0.5165420000000  0.4707080000000 1.0
C      1  0.5133000000000  0.4834580000000  0.5292920000000 1.0
C      1  0.4604720000000  0.4437290000000  0.5147480000000 1.0
C      1  0.4604710000000  0.5562700000000  0.4852520000000 1.0
C      1  0.4604790000000  0.4437250000000  0.4852530000000 1.0
C      1  0.4604780000000  0.5562740000000  0.5147460000000 1.0
C      1  0.4344900000000  0.5155910000000  0.4838630000000 1.0
C      1  0.4344900000000  0.4844090000000  0.5161370000000 1.0
C      1  0.4344890000000  0.5155930000000  0.5161380000000 1.0
C      1  0.4344890000000  0.4844070000000  0.4838620000000 1.0
C      1  0.4931540000000  0.5314320000000  0.4348600000000 1.0
C      1  0.4931540000000  0.4685680000000  0.5651400000000 1.0
C      1  0.4931540000000  0.5314320000000  0.5651420000000 1.0
C      1  0.4931540000000  0.4685680000000  0.4348580000000 1.0
C      1  0.5655320000000  0.5180130000000  0.4642910000000 1.0
C      1  0.5655320000000  0.4819870000000  0.5357090000000 1.0
C      1  0.5655320000000  0.5180130000000  0.5357100000000 1.0
C      1  0.5655320000000  0.4819870000000  0.4642900000000 1.0
C      1  0.4583280000000  0.4709430000000  0.4713060000000 1.0
C      1  0.4583280000000  0.5290570000000  0.5286940000000 1.0
C      1  0.4583270000000  0.4709460000000  0.5286940000000 1.0
C      1  0.4583270000000  0.5290540000000  0.4713060000000 1.0
C      1  0.4697560000000  0.4842690000000  0.4448720000000 1.0
C      1  0.4697560000000  0.5157310000000  0.5551280000000 1.0
C      1  0.4697570000000  0.4842690000000  0.5551260000000 1.0
C      1  0.4697570000000  0.5157310000000  0.4448740000000 1.0
C      1  0.4888750000000  0.5872220000000  0.5143330000000 1.0
C      1  0.4888740000000  0.4127790000000  0.4856670000000 1.0
C      1  0.4888870000000  0.5872320000000  0.4856660000000 1.0
C      1  0.4888860000000  0.4127700000000  0.5143340000000 1.0
C      1  0.5042830000000  0.5688430000000  0.4695710000000 1.0
C      1  0.5042830000000  0.4311570000000  0.5304290000000 1.0
C      1  0.5042800000000  0.5688410000000  0.5304290000000 1.0
C      1  0.5042800000000  0.4311590000000  0.4695710000000 1.0
C      1  0.4840480000000  0.5163790000000  0.4843750000000 1.0
C      1  0.4840480000000  0.4836210000000  0.5156250000000 1.0
C      1  0.4840480000000  0.5163810000000  0.5156240000000 1.0
C      1  0.4840480000000  0.4836190000000  0.4843760000000 1.0
C      1  0.4941300000000  0.5596720000000  0.4433580000000 1.0
C      1  0.4941300000000  0.4403280000000  0.5566420000000 1.0
C      1  0.4941300000000  0.5596720000000  0.5566430000000 1.0
C      1  0.4941310000000  0.4403280000000  0.4433570000000 1.0
C      1  0.5200480000000  0.4819610000000  0.4387550000000 1.0
C      1  0.5200480000000  0.5180390000000  0.5612450000000 1.0
C      1  0.5200480000000  0.4819600000000  0.5612440000000 1.0
C      1  0.5200480000000  0.5180400000000  0.4387560000000 1.0
C      1  0.5408980000000  0.4847060000000  0.5144510000000 1.0
C      1  0.5408980000000  0.5152940000000  0.4855490000000 1.0
C      1  0.5408990000000  0.4847040000000  0.4855470000000 1.0
C      1  0.5408990000000  0.5152960000000  0.5144530000000 1.0
C      1  0.5291330000000  0.5554460000000  0.4818440000000 1.0
C      1  0.5291330000000  0.4445540000000  0.5181560000000 1.0
C      1  0.5291330000000  0.5554460000000  0.5181560000000 1.0
C      1  0.5291330000000  0.4445540000000  0.4818440000000 1.0
END
