TITL C-3985245-9316-335 6.02080786119803e-07 125000 -349.522453870676 0 0 60 (D2d) n - 1
REM
REM in /home/nfs/bkarasulu/CARBON/AIRSS/Generating-Clusters/TERSOFF/Higher-Symm/Only-C60
REM
REM
REM
REM
REM
REM ./C.cell (28575a23ae977d3b5fae324c64b13b57)
REM
REM compiler GCC version 9.2.1 20190827 (Red Hat 9.2.1-1)
REM options -cpp -mtune=generic -march=x86-64 -g -O0 -fpre-include=/usr/include/finclude/math-vector-fortran.h
REM seed -1209491335 189494994 -1626785471 1137338346 490003029 1629317552 -1350541798 -611825932 1340764079 -887240975 406898244 1243297954 16170167 -1357768560 -1169266422 -1250489489 1438403073 379472469 -1231250187 -1034465834 -1541049257 2116398229 384199283 896627312 -810396177 404082817 -1263963437 -1691462611 712408388 247147545 969314648 -1957076899 752760053
REM
CELL 1.54180   50.00000   50.00000   50.00000   90.00000   90.00000   90.00000
LATT -1
SFAC C  
C      1  0.4890960000000  0.5102210000000  0.4075800000000 1.0
C      1  0.5109040000000  0.5102210000000  0.5924200000000 1.0
C      1  0.4890960000000  0.4897790000000  0.5924200000000 1.0
C      1  0.5109040000000  0.4897790000000  0.4075800000000 1.0
C      1  0.4075800000000  0.5102210000000  0.4890960000000 1.0
C      1  0.5924200000000  0.5102210000000  0.5109040000000 1.0
C      1  0.5924200000000  0.4897790000000  0.4890960000000 1.0
C      1  0.4075800000000  0.4897790000000  0.5109040000000 1.0
C      1  0.5074270000000  0.5250190000000  0.4714350000000 1.0
C      1  0.4925730000000  0.5250190000000  0.5285650000000 1.0
C      1  0.5074270000000  0.4749810000000  0.5285650000000 1.0
C      1  0.4925730000000  0.4749810000000  0.4714350000000 1.0
C      1  0.4714350000000  0.5250190000000  0.5074270000000 1.0
C      1  0.5285650000000  0.5250190000000  0.4925730000000 1.0
C      1  0.5285650000000  0.4749810000000  0.5074270000000 1.0
C      1  0.4714350000000  0.4749810000000  0.4925730000000 1.0
C      1  0.4382330000000  0.5541560000000  0.4806700000000 1.0
C      1  0.5617670000000  0.5541560000000  0.5193300000000 1.0
C      1  0.4382330000000  0.4458440000000  0.5193300000000 1.0
C      1  0.5617670000000  0.4458440000000  0.4806700000000 1.0
C      1  0.4806700000000  0.5541560000000  0.4382330000000 1.0
C      1  0.5193300000000  0.5541560000000  0.5617670000000 1.0
C      1  0.5193300000000  0.4458440000000  0.4382330000000 1.0
C      1  0.4806700000000  0.4458440000000  0.5617670000000 1.0
C      1  0.5868570000000  0.4593620000000  0.4938850000000 1.0
C      1  0.4131430000000  0.4593620000000  0.5061150000000 1.0
C      1  0.5868570000000  0.5406380000000  0.5061150000000 1.0
C      1  0.4131430000000  0.5406380000000  0.4938850000000 1.0
C      1  0.4938850000000  0.4593620000000  0.5868570000000 1.0
C      1  0.5061150000000  0.4593620000000  0.4131430000000 1.0
C      1  0.5061150000000  0.5406380000000  0.5868570000000 1.0
C      1  0.4938850000000  0.5406380000000  0.4131430000000 1.0
C      1  0.5232220000000  0.5068070000000  0.5648530000000 1.0
C      1  0.4767780000000  0.5068070000000  0.4351470000000 1.0
C      1  0.5232220000000  0.4931930000000  0.4351470000000 1.0
C      1  0.4767780000000  0.4931930000000  0.5648530000000 1.0
C      1  0.5648530000000  0.5068070000000  0.5232220000000 1.0
C      1  0.4351470000000  0.5068070000000  0.4767780000000 1.0
C      1  0.4351470000000  0.4931930000000  0.5232220000000 1.0
C      1  0.5648530000000  0.4931930000000  0.4767780000000 1.0
C      1  0.4412880000000  0.4692270000000  0.5387630000000 1.0
C      1  0.5587120000000  0.4692270000000  0.4612370000000 1.0
C      1  0.4412880000000  0.5307730000000  0.4612370000000 1.0
C      1  0.5587120000000  0.5307730000000  0.5387630000000 1.0
C      1  0.5387630000000  0.4692270000000  0.4412880000000 1.0
C      1  0.4612370000000  0.4692270000000  0.5587120000000 1.0
C      1  0.4612370000000  0.5307730000000  0.4412880000000 1.0
C      1  0.5387630000000  0.5307730000000  0.5587120000000 1.0
C      1  0.4679880000000  0.5485640000000  0.4893890000000 1.0
C      1  0.5320120000000  0.5485640000000  0.5106110000000 1.0
C      1  0.4679880000000  0.4514360000000  0.5106110000000 1.0
C      1  0.5320120000000  0.4514360000000  0.4893890000000 1.0
C      1  0.4893890000000  0.5485640000000  0.4679880000000 1.0
C      1  0.5106110000000  0.5485640000000  0.5320120000000 1.0
C      1  0.5106110000000  0.4514360000000  0.4679880000000 1.0
C      1  0.4893890000000  0.4514360000000  0.5320120000000 1.0
C      1  0.5000000000000  0.5000000000000  0.4554550000000 1.0
C      1  0.5000000000000  0.5000000000000  0.5445450000000 1.0
C      1  0.5445450000000  0.5000000000000  0.5000000000000 1.0
C      1  0.4554550000000  0.5000000000000  0.5000000000000 1.0
END
