TITL C-3985250-725-618 0.0069843887432335 125000 -344.424656567455 0 0 60 (S4) n - 1
REM
REM in /home/nfs/bkarasulu/CARBON/AIRSS/Generating-Clusters/TERSOFF/Higher-Symm/Only-C60
REM
REM
REM
REM
REM
REM ./C.cell (28575a23ae977d3b5fae324c64b13b57)
REM
REM compiler GCC version 9.2.1 20190827 (Red Hat 9.2.1-1)
REM options -cpp -mtune=generic -march=x86-64 -g -O0 -fpre-include=/usr/include/finclude/math-vector-fortran.h
REM seed -722171495 -1602652710 1000256980 -1218895130 823579027 1423678942 1864385301 -1315179529 -641241008 808649435 615326022 125998117 -930164884 678663525 2121223712 -1999404304 -403635267 -809107121 -1030880186 247700319 672955707 153834382 867615711 1744221839 -1334635487 -938873058 855514169 -945388392 1963954815 1618067695 -262837453 -1340911518 2049592035
REM
CELL 1.54180   50.00000   50.00000   50.00000   90.00000   90.00000   90.00000
LATT -1
SFAC C  
C      1  0.4602880000000  0.5335390000000  0.5527110000000 1.0
C      1  0.5335380000000  0.5397120000000  0.4472900000000 1.0
C      1  0.5397120000000  0.4664610000000  0.5527110000000 1.0
C      1  0.4664610000000  0.4602880000000  0.4472890000000 1.0
C      1  0.5651700000000  0.5314510000000  0.4812620000000 1.0
C      1  0.5314510000000  0.4348300000000  0.5187380000000 1.0
C      1  0.4348300000000  0.4685490000000  0.4812620000000 1.0
C      1  0.4685490000000  0.5651700000000  0.5187380000000 1.0
C      1  0.5301580000000  0.5002280000000  0.4335960000000 1.0
C      1  0.5002280000000  0.4698420000000  0.5664050000000 1.0
C      1  0.4698420000000  0.4997720000000  0.4335960000000 1.0
C      1  0.4997720000000  0.5301580000000  0.5664050000000 1.0
C      1  0.4854920000000  0.4787090000000  0.5105920000000 1.0
C      1  0.4787510000000  0.5144720000000  0.4894290000000 1.0
C      1  0.5145180000000  0.5213110000000  0.5105940000000 1.0
C      1  0.5212880000000  0.4854940000000  0.4894050000000 1.0
C      1  0.5021370000000  0.4418590000000  0.4775190000000 1.0
C      1  0.4418590000000  0.4978630000000  0.5224800000000 1.0
C      1  0.4978630000000  0.5581400000000  0.4775200000000 1.0
C      1  0.5581400000000  0.5021380000000  0.5224800000000 1.0
C      1  0.4884690000000  0.4740760000000  0.4309150000000 1.0
C      1  0.4740760000000  0.5115310000000  0.5690850000000 1.0
C      1  0.5115310000000  0.5259240000000  0.4309150000000 1.0
C      1  0.5259240000000  0.4884690000000  0.5690850000000 1.0
C      1  0.4754590000000  0.4836110000000  0.5591760000000 1.0
C      1  0.4836110000000  0.5245410000000  0.4408240000000 1.0
C      1  0.5245410000000  0.5163890000000  0.5591760000000 1.0
C      1  0.5163890000000  0.4754590000000  0.4408240000000 1.0
C      1  0.5224490000000  0.4633450000000  0.4678390000000 1.0
C      1  0.4633500000000  0.4775520000000  0.5321590000000 1.0
C      1  0.4775510000000  0.5366500000000  0.4678370000000 1.0
C      1  0.5366550000000  0.5224500000000  0.5321660000000 1.0
C      1  0.5138120000000  0.4781080000000  0.5169070000000 1.0
C      1  0.4781120000000  0.4861850000000  0.4830900000000 1.0
C      1  0.4861920000000  0.5218880000000  0.5169060000000 1.0
C      1  0.5218910000000  0.5138070000000  0.4830980000000 1.0
C      1  0.5388680000000  0.5535910000000  0.5215120000000 1.0
C      1  0.5536040000000  0.4611220000000  0.4784840000000 1.0
C      1  0.4611230000000  0.4463970000000  0.5215150000000 1.0
C      1  0.4463440000000  0.5389180000000  0.4784670000000 1.0
C      1  0.4277800000000  0.4928110000000  0.4976040000000 1.0
C      1  0.4928110000000  0.5722200000000  0.5023960000000 1.0
C      1  0.5722200000000  0.5071890000000  0.4976040000000 1.0
C      1  0.5071890000000  0.4277800000000  0.5023960000000 1.0
C      1  0.5125080000000  0.5679550000000  0.5262560000000 1.0
C      1  0.5679530000000  0.4874920000000  0.4737440000000 1.0
C      1  0.4874920000000  0.4320480000000  0.5262560000000 1.0
C      1  0.4320470000000  0.5125080000000  0.4737440000000 1.0
C      1  0.4446670000000  0.5261970000000  0.5295500000000 1.0
C      1  0.5261970000000  0.5553320000000  0.4704500000000 1.0
C      1  0.5553320000000  0.4738030000000  0.5295500000000 1.0
C      1  0.4738030000000  0.4446680000000  0.4704500000000 1.0
C      1  0.4436330000000  0.4872130000000  0.4517200000000 1.0
C      1  0.4872130000000  0.5563670000000  0.5482790000000 1.0
C      1  0.5563670000000  0.5127870000000  0.4517210000000 1.0
C      1  0.5127870000000  0.4436330000000  0.5482790000000 1.0
C      1  0.5466960000000  0.5524000000000  0.4917960000000 1.0
C      1  0.5523990000000  0.4533050000000  0.5082040000000 1.0
C      1  0.4533060000000  0.4476010000000  0.4917960000000 1.0
C      1  0.4476010000000  0.5466950000000  0.5082040000000 1.0
END
