TITL C-3985256-5419-70 0.000626012534417758 125000 -325.607653494646 0 0 60 (C5) n - 1
REM
REM in /home/nfs/bkarasulu/CARBON/AIRSS/Generating-Clusters/TERSOFF/Higher-Symm/Only-C60
REM
REM
REM
REM
REM
REM ./C.cell (28575a23ae977d3b5fae324c64b13b57)
REM
REM compiler GCC version 9.2.1 20190827 (Red Hat 9.2.1-1)
REM options -cpp -mtune=generic -march=x86-64 -g -O0 -fpre-include=/usr/include/finclude/math-vector-fortran.h
REM seed -1113232703 593588926 1937007001 -1467379308 -1189050775 1874664770 1571438782 -717136351 1646597759 1353798937 -316517807 1384965688 938590301 -956032789 -196164420 69451632 -1922521337 481913472 -871071032 -1502018989 2005802798 1941256857 2123049734 1924482028 -2037019946 -522119906 -96521290 -1408495395 1764721224 1307710278 1824765092 -1130399305 -343192116
REM
CELL 1.54180   50.00000   50.00000   50.00000   90.00000   90.00000   90.00000
LATT -1
SFAC C  
C      1  0.5341520000000  0.5398860000000  0.4361270000000 1.0
C      1  0.4726180000000  0.5448020000000  0.4361250000000 1.0
C      1  0.4489250000000  0.4877990000000  0.4361280000000 1.0
C      1  0.4958180000000  0.4476560000000  0.4361270000000 1.0
C      1  0.5484870000000  0.4798440000000  0.4361260000000 1.0
C      1  0.5497830000000  0.4900020000000  0.5498820000000 1.0
C      1  0.5248940000000  0.5442590000000  0.5498840000000 1.0
C      1  0.4656020000000  0.5373510000000  0.5498830000000 1.0
C      1  0.4538510000000  0.4788290000000  0.5498850000000 1.0
C      1  0.5058740000000  0.4495650000000  0.5498810000000 1.0
C      1  0.4767110000000  0.4892340000000  0.5651810000000 1.0
C      1  0.5030440000000  0.4745230000000  0.5651810000000 1.0
C      1  0.5251720000000  0.4950230000000  0.5651820000000 1.0
C      1  0.5125140000000  0.5224030000000  0.5651820000000 1.0
C      1  0.4825630000000  0.5188250000000  0.5651810000000 1.0
C      1  0.5577740000000  0.5407620000000  0.4825520000000 1.0
C      1  0.4790880000000  0.5675430000000  0.4825470000000 1.0
C      1  0.4292980000000  0.5009840000000  0.4825500000000 1.0
C      1  0.4772170000000  0.4330660000000  0.4825500000000 1.0
C      1  0.5566190000000  0.4576480000000  0.4825510000000 1.0
C      1  0.5003120000000  0.4737790000000  0.4509680000000 1.0
C      1  0.5250330000000  0.4921930000000  0.4509680000000 1.0
C      1  0.5151600000000  0.5213940000000  0.4509670000000 1.0
C      1  0.4843370000000  0.5210270000000  0.4509660000000 1.0
C      1  0.4751600000000  0.4916000000000  0.4509670000000 1.0
C      1  0.4602440000000  0.4854840000000  0.4774590000000 1.0
C      1  0.5015210000000  0.4577060000000  0.4774590000000 1.0
C      1  0.5406940000000  0.4883760000000  0.4774610000000 1.0
C      1  0.5236320000000  0.5351110000000  0.4774630000000 1.0
C      1  0.4739100000000  0.5333240000000  0.4774620000000 1.0
C      1  0.4375990000000  0.4883060000000  0.5123860000000 1.0
C      1  0.4918400000000  0.4370390000000  0.5123900000000 1.0
C      1  0.5573590000000  0.4727850000000  0.5123880000000 1.0
C      1  0.5436080000000  0.5461440000000  0.5123890000000 1.0
C      1  0.4695950000000  0.5557340000000  0.5123870000000 1.0
C      1  0.5550610000000  0.4612390000000  0.5402430000000 1.0
C      1  0.5538790000000  0.5403900000000  0.5402430000000 1.0
C      1  0.4782370000000  0.5637240000000  0.5402420000000 1.0
C      1  0.4326730000000  0.4989960000000  0.5402420000000 1.0
C      1  0.4801500000000  0.4356570000000  0.5402430000000 1.0
C      1  0.5640240000000  0.4610980000000  0.4523120000000 1.0
C      1  0.5567800000000  0.5488720000000  0.4523140000000 1.0
C      1  0.4710680000000  0.5691020000000  0.4523090000000 1.0
C      1  0.4253360000000  0.4938340000000  0.4523130000000 1.0
C      1  0.4827870000000  0.4270880000000  0.4523120000000 1.0
C      1  0.5077210000000  0.5595730000000  0.4952230000000 1.0
C      1  0.4457270000000  0.5257490000000  0.4952290000000 1.0
C      1  0.4587370000000  0.4563420000000  0.4952320000000 1.0
C      1  0.5287690000000  0.4472630000000  0.4952340000000 1.0
C      1  0.5590430000000  0.5110650000000  0.4952310000000 1.0
C      1  0.5181230000000  0.5206840000000  0.5070690000000 1.0
C      1  0.4859300000000  0.5236280000000  0.5070680000000 1.0
C      1  0.4731810000000  0.4939230000000  0.5070690000000 1.0
C      1  0.4974920000000  0.4726150000000  0.5070690000000 1.0
C      1  0.5252710000000  0.4891540000000  0.5070700000000 1.0
C      1  0.4449570000000  0.5254250000000  0.5305870000000 1.0
C      1  0.4588070000000  0.4555100000000  0.5305890000000 1.0
C      1  0.5295830000000  0.4470720000000  0.5305910000000 1.0
C      1  0.5594780000000  0.5117810000000  0.5305900000000 1.0
C      1  0.5071750000000  0.5602100000000  0.5305900000000 1.0
END
