TITL C-3985253-1688-99 0.00109729452470882 125000 -332.609464401814 0 0 60 (C1) n - 1
REM
REM in /home/nfs/bkarasulu/CARBON/AIRSS/Generating-Clusters/TERSOFF/Higher-Symm/Only-C60
REM
REM
REM
REM
REM
REM ./C.cell (28575a23ae977d3b5fae324c64b13b57)
REM
REM compiler GCC version 9.2.1 20190827 (Red Hat 9.2.1-1)
REM options -cpp -mtune=generic -march=x86-64 -g -O0 -fpre-include=/usr/include/finclude/math-vector-fortran.h
REM seed 538096552 -247739070 -1915564354 1475144062 104161069 528616510 -169498537 -1549986047 516860483 -1235462381 649073233 -944995204 -1387823466 -1868621072 -1958758376 702795953 -482281219 -868180471 28232445 -1130384614 1580450225 1607447070 -1911449570 -281228383 216140622 1175077571 -1640580971 -1577048909 1282016095 1998880677 -13677360 -1085218537 1480447199
REM
CELL 1.54180   50.00000   50.00000   50.00000   90.00000   90.00000   90.00000
LATT -1
SFAC C  
C      1  0.4659380000000  0.5705620000000  0.5206080000000 1.0
C      1  0.5451480000000  0.4757680000000  0.5172390000000 1.0
C      1  0.4480540000000  0.4866840000000  0.4645180000000 1.0
C      1  0.5491270000000  0.4973370000000  0.5573640000000 1.0
C      1  0.5715090000000  0.4699090000000  0.4637890000000 1.0
C      1  0.4965220000000  0.4839940000000  0.5099060000000 1.0
C      1  0.4980740000000  0.4725660000000  0.4327750000000 1.0
C      1  0.4685780000000  0.4437490000000  0.4928840000000 1.0
C      1  0.4273130000000  0.5195370000000  0.4989330000000 1.0
C      1  0.4802190000000  0.5096320000000  0.5058960000000 1.0
C      1  0.5533770000000  0.5396750000000  0.4865370000000 1.0
C      1  0.4979000000000  0.4648170000000  0.5723730000000 1.0
C      1  0.4717590000000  0.4751560000000  0.5632990000000 1.0
C      1  0.5530190000000  0.4493120000000  0.4708810000000 1.0
C      1  0.5159090000000  0.5719450000000  0.4845490000000 1.0
C      1  0.4217930000000  0.4999550000000  0.4762660000000 1.0
C      1  0.4823560000000  0.4559940000000  0.5181560000000 1.0
C      1  0.4572620000000  0.4899270000000  0.4963650000000 1.0
C      1  0.4636850000000  0.5619350000000  0.4924990000000 1.0
C      1  0.4526520000000  0.5335100000000  0.4851380000000 1.0
C      1  0.4962700000000  0.4871940000000  0.4611210000000 1.0
C      1  0.5107310000000  0.5474600000000  0.5281360000000 1.0
C      1  0.5219100000000  0.4947850000000  0.5197010000000 1.0
C      1  0.4660750000000  0.5032840000000  0.5680180000000 1.0
C      1  0.5659770000000  0.5117120000000  0.4948430000000 1.0
C      1  0.4490480000000  0.5168350000000  0.5465520000000 1.0
C      1  0.5321070000000  0.4402290000000  0.4506330000000 1.0
C      1  0.5254810000000  0.5204260000000  0.4804310000000 1.0
C      1  0.5351480000000  0.5578270000000  0.4641240000000 1.0
C      1  0.5267170000000  0.5668550000000  0.5129930000000 1.0
C      1  0.5234320000000  0.5220600000000  0.5354800000000 1.0
C      1  0.5643080000000  0.4976190000000  0.4663480000000 1.0
C      1  0.5058000000000  0.4401020000000  0.5303310000000 1.0
C      1  0.5195340000000  0.5131520000000  0.5667390000000 1.0
C      1  0.4775410000000  0.4524800000000  0.4424320000000 1.0
C      1  0.4831160000000  0.5526200000000  0.5370620000000 1.0
C      1  0.4611420000000  0.4637280000000  0.5377970000000 1.0
C      1  0.4547710000000  0.4924970000000  0.4319720000000 1.0
C      1  0.4912990000000  0.5550370000000  0.4839890000000 1.0
C      1  0.4413170000000  0.4781260000000  0.5197460000000 1.0
C      1  0.5370910000000  0.4554230000000  0.4955970000000 1.0
C      1  0.5569410000000  0.5192230000000  0.5293070000000 1.0
C      1  0.4996170000000  0.5283840000000  0.4914700000000 1.0
C      1  0.4713960000000  0.5132550000000  0.4644410000000 1.0
C      1  0.5243470000000  0.4589790000000  0.4286570000000 1.0
C      1  0.4700520000000  0.5267810000000  0.5292780000000 1.0
C      1  0.5178690000000  0.4537100000000  0.5539960000000 1.0
C      1  0.4940130000000  0.5234110000000  0.4400550000000 1.0
C      1  0.4297660000000  0.5049410000000  0.5271580000000 1.0
C      1  0.5537180000000  0.5520930000000  0.5145250000000 1.0
C      1  0.5077540000000  0.4410880000000  0.4692480000000 1.0
C      1  0.5439830000000  0.4687570000000  0.5474900000000 1.0
C      1  0.5234940000000  0.5280440000000  0.4493440000000 1.0
C      1  0.4832510000000  0.5493310000000  0.5669060000000 1.0
C      1  0.4835050000000  0.4987380000000  0.4228190000000 1.0
C      1  0.5479450000000  0.5100340000000  0.4445410000000 1.0
C      1  0.4621470000000  0.4578690000000  0.4665790000000 1.0
C      1  0.4895680000000  0.5214750000000  0.5756110000000 1.0
C      1  0.5061150000000  0.4700400000000  0.4840060000000 1.0
C      1  0.5255120000000  0.4324320000000  0.5105460000000 1.0
END
