TITL C-3985254-1270-1924 -0.000195581992121008 125000 -301.39768859302 0 0 60 (C3h) n - 1
REM
REM in /home/nfs/bkarasulu/CARBON/AIRSS/Generating-Clusters/TERSOFF/Higher-Symm/Only-C60
REM
REM
REM
REM
REM
REM ./C.cell (28575a23ae977d3b5fae324c64b13b57)
REM
REM compiler GCC version 9.2.1 20190827 (Red Hat 9.2.1-1)
REM options -cpp -mtune=generic -march=x86-64 -g -O0 -fpre-include=/usr/include/finclude/math-vector-fortran.h
REM seed 1275085992 1348263770 -976538465 99077554 -1471327414 -1012743333 -917082000 -521393736 49070072 1962106316 1766065201 -1128283054 68066624 -787788205 -294250389 -28600701 -145880644 -1046666532 751494330 -997961057 1441758924 496338627 1294224900 910859279 -1703499564 -1548677013 -1938212204 -2122810219 -708184899 -811403260 1724510271 -1849602004 -1849924337
REM
CELL 1.54180   50.00000   50.00000   50.00000   90.00000   90.00000   90.00000
LATT -1
SFAC C  
C      1  0.5267380000000  0.5333110000000  0.4331160000000 1.0
C      1  0.5267380000000  0.4254220000000  0.5045950000000 1.0
C      1  0.5267350000000  0.5412720000000  0.5622890000000 1.0
C      1  0.4732620000000  0.5333110000000  0.4331160000000 1.0
C      1  0.4732620000000  0.4254220000000  0.5045950000000 1.0
C      1  0.4732650000000  0.5412720000000  0.5622890000000 1.0
C      1  0.5535270000000  0.5262500000000  0.5552720000000 1.0
C      1  0.5535310000000  0.5347420000000  0.4496300000000 1.0
C      1  0.5535300000000  0.4390080000000  0.4950970000000 1.0
C      1  0.4464730000000  0.5262500000000  0.5552720000000 1.0
C      1  0.4464690000000  0.5347420000000  0.4496300000000 1.0
C      1  0.4464700000000  0.4390080000000  0.4950970000000 1.0
C      1  0.5682590000000  0.5198440000000  0.5059020000000 1.0
C      1  0.5682570000000  0.4951890000000  0.4798640000000 1.0
C      1  0.5682600000000  0.4849670000000  0.5142350000000 1.0
C      1  0.4317410000000  0.5198440000000  0.5059020000000 1.0
C      1  0.4317430000000  0.4951890000000  0.4798640000000 1.0
C      1  0.4317400000000  0.4849670000000  0.5142350000000 1.0
C      1  0.5284360000000  0.4669890000000  0.5313610000000 1.0
C      1  0.5284390000000  0.5436640000000  0.5129030000000 1.0
C      1  0.5284380000000  0.4893440000000  0.4557280000000 1.0
C      1  0.4715640000000  0.4669890000000  0.5313610000000 1.0
C      1  0.4715610000000  0.5436640000000  0.5129030000000 1.0
C      1  0.4715620000000  0.4893440000000  0.4557280000000 1.0
C      1  0.5168470000000  0.5532950000000  0.4581800000000 1.0
C      1  0.5168480000000  0.4371350000000  0.4747560000000 1.0
C      1  0.5168510000000  0.5095720000000  0.5670630000000 1.0
C      1  0.4831530000000  0.5532950000000  0.4581800000000 1.0
C      1  0.4831520000000  0.4371350000000  0.4747560000000 1.0
C      1  0.4831490000000  0.5095720000000  0.5670630000000 1.0
C      1  0.5164650000000  0.4957060000000  0.5347200000000 1.0
C      1  0.5164680000000  0.5322120000000  0.4863610000000 1.0
C      1  0.5164660000000  0.4720800000000  0.4789230000000 1.0
C      1  0.4835350000000  0.4957060000000  0.5347200000000 1.0
C      1  0.4835320000000  0.5322120000000  0.4863610000000 1.0
C      1  0.4835340000000  0.4720800000000  0.4789230000000 1.0
C      1  0.4855160000000  0.5058110000000  0.4340590000000 1.0
C      1  0.4855140000000  0.4399910000000  0.5279380000000 1.0
C      1  0.4855030000000  0.5541980000000  0.5380060000000 1.0
C      1  0.5144840000000  0.5058110000000  0.4340590000000 1.0
C      1  0.5144860000000  0.4399910000000  0.5279380000000 1.0
C      1  0.5144970000000  0.5541980000000  0.5380060000000 1.0
C      1  0.5554410000000  0.5511370000000  0.4983380000000 1.0
C      1  0.5554420000000  0.4729880000000  0.4565450000000 1.0
C      1  0.5554440000000  0.4758760000000  0.5451210000000 1.0
C      1  0.4445590000000  0.5511370000000  0.4983380000000 1.0
C      1  0.4445580000000  0.4729880000000  0.4565450000000 1.0
C      1  0.4445560000000  0.4758760000000  0.5451210000000 1.0
C      1  0.5420100000000  0.5133860000000  0.4700090000000 1.0
C      1  0.5420100000000  0.4673350000000  0.5034020000000 1.0
C      1  0.5420110000000  0.5192810000000  0.5265890000000 1.0
C      1  0.4579900000000  0.5133860000000  0.4700090000000 1.0
C      1  0.4579900000000  0.4673350000000  0.5034020000000 1.0
C      1  0.4579890000000  0.5192810000000  0.5265890000000 1.0
C      1  0.4497860000000  0.4445580000000  0.4640590000000 1.0
C      1  0.4497840000000  0.4965900000000  0.5659840000000 1.0
C      1  0.4497840000000  0.5588440000000  0.4699560000000 1.0
C      1  0.5502140000000  0.4445580000000  0.4640590000000 1.0
C      1  0.5502160000000  0.4965900000000  0.5659840000000 1.0
C      1  0.5502160000000  0.5588440000000  0.4699560000000 1.0
END
