TITL C-3985250-725-1066 8.47357168703904e-08 125000 -347.076822453031 0 0 60 (C3) n - 1
REM
REM in /home/nfs/bkarasulu/CARBON/AIRSS/Generating-Clusters/TERSOFF/Higher-Symm/Only-C60
REM
REM
REM
REM
REM
REM ./C.cell (28575a23ae977d3b5fae324c64b13b57)
REM
REM compiler GCC version 9.2.1 20190827 (Red Hat 9.2.1-1)
REM options -cpp -mtune=generic -march=x86-64 -g -O0 -fpre-include=/usr/include/finclude/math-vector-fortran.h
REM seed 34408594 -1513333509 12706588 488481669 690738209 -812852713 -1763748091 1052862881 207194990 1258364963 840194079 -1701405192 52409743 -766290092 -1961565701 -1125218176 -825613001 498293623 1394966854 1230754898 -1047710991 303850819 302100755 1021254074 -1866155576 -1199909910 645185986 319813165 1427278566 -1598660150 1638569674 2109073927 -372673402
REM
CELL 1.54180   50.00000   50.00000   50.00000   90.00000   90.00000   90.00000
LATT -1
SFAC C  
C      1  0.4698880000000  0.4633240000000  0.4706550000000 1.0
C      1  0.4698880000000  0.5437510000000  0.4829100000000 1.0
C      1  0.4698880000000  0.4929240000000  0.5464340000000 1.0
C      1  0.4698880000000  0.4633240000000  0.5293450000000 1.0
C      1  0.4698880000000  0.5437510000000  0.5170900000000 1.0
C      1  0.4698880000000  0.4929240000000  0.4535660000000 1.0
C      1  0.4432670000000  0.5007040000000  0.4695040000000 1.0
C      1  0.4432670000000  0.5260590000000  0.5158580000000 1.0
C      1  0.4432670000000  0.4732370000000  0.5146380000000 1.0
C      1  0.4432670000000  0.5007040000000  0.5304960000000 1.0
C      1  0.4432670000000  0.5260590000000  0.4841420000000 1.0
C      1  0.4432670000000  0.4732370000000  0.4853620000000 1.0
C      1  0.4927680000000  0.4194000000000  0.4682200000000 1.0
C      1  0.4927680000000  0.5678220000000  0.4460880000000 1.0
C      1  0.4927680000000  0.5127780000000  0.5856920000000 1.0
C      1  0.4927680000000  0.4194000000000  0.5317800000000 1.0
C      1  0.4927680000000  0.5678220000000  0.5539120000000 1.0
C      1  0.4927680000000  0.5127780000000  0.4143080000000 1.0
C      1  0.4960040000000  0.5258650000000  0.5150620000000 1.0
C      1  0.4960040000000  0.4740240000000  0.5148690000000 1.0
C      1  0.4960040000000  0.5001110000000  0.4700700000000 1.0
C      1  0.4960040000000  0.5258650000000  0.4849380000000 1.0
C      1  0.4960040000000  0.4740240000000  0.4851310000000 1.0
C      1  0.4960040000000  0.5001110000000  0.5299300000000 1.0
C      1  0.4706510000000  0.4405110000000  0.5735080000000 1.0
C      1  0.4706510000000  0.4660850000000  0.4117280000000 1.0
C      1  0.4706510000000  0.5934040000000  0.5147650000000 1.0
C      1  0.4706510000000  0.4405110000000  0.4264920000000 1.0
C      1  0.4706510000000  0.4660850000000  0.5882720000000 1.0
C      1  0.4706510000000  0.5934040000000  0.4852350000000 1.0
C      1  0.5157240000000  0.5488100000000  0.4464520000000 1.0
C      1  0.5157240000000  0.5219690000000  0.5690440000000 1.0
C      1  0.5157240000000  0.4292210000000  0.4845040000000 1.0
C      1  0.5157240000000  0.5488100000000  0.5535480000000 1.0
C      1  0.5157240000000  0.5219690000000  0.4309560000000 1.0
C      1  0.5157240000000  0.4292210000000  0.5154960000000 1.0
C      1  0.4734360000000  0.5691510000000  0.4686460000000 1.0
C      1  0.4734360000000  0.4925780000000  0.5755640000000 1.0
C      1  0.4734360000000  0.4382710000000  0.4557910000000 1.0
C      1  0.4734360000000  0.5691510000000  0.5313540000000 1.0
C      1  0.4734360000000  0.4925780000000  0.4244360000000 1.0
C      1  0.4734360000000  0.4382710000000  0.5442090000000 1.0
C      1  0.5205490000000  0.5397060000000  0.4748820000000 1.0
C      1  0.5205490000000  0.5019000000000  0.5469450000000 1.0
C      1  0.5205490000000  0.4583940000000  0.4781730000000 1.0
C      1  0.5205490000000  0.5397060000000  0.5251180000000 1.0
C      1  0.5205490000000  0.5019000000000  0.4530550000000 1.0
C      1  0.5205490000000  0.4583940000000  0.5218270000000 1.0
C      1  0.5703410000000  0.5000930000000  0.4490030000000 1.0
C      1  0.5703410000000  0.5441180000000  0.5255790000000 1.0
C      1  0.5703410000000  0.4557890000000  0.5254180000000 1.0
C      1  0.5703410000000  0.5000930000000  0.5509970000000 1.0
C      1  0.5703410000000  0.5441180000000  0.4744210000000 1.0
C      1  0.5703410000000  0.4557890000000  0.4745820000000 1.0
C      1  0.5473720000000  0.4999050000000  0.4681360000000 1.0
C      1  0.5473720000000  0.5276430000000  0.5158490000000 1.0
C      1  0.5473720000000  0.4724530000000  0.5160140000000 1.0
C      1  0.5473720000000  0.4999050000000  0.5318640000000 1.0
C      1  0.5473720000000  0.5276430000000  0.4841510000000 1.0
C      1  0.5473720000000  0.4724530000000  0.4839860000000 1.0
END
