TITL C-3985250-725-736 7.00918188702781e-07 125000 -341.954531027459 0 0 60 (C2h) n - 1
REM
REM in /home/nfs/bkarasulu/CARBON/AIRSS/Generating-Clusters/TERSOFF/Higher-Symm/Only-C60
REM
REM
REM
REM
REM
REM ./C.cell (28575a23ae977d3b5fae324c64b13b57)
REM
REM compiler GCC version 9.2.1 20190827 (Red Hat 9.2.1-1)
REM options -cpp -mtune=generic -march=x86-64 -g -O0 -fpre-include=/usr/include/finclude/math-vector-fortran.h
REM seed 1162960755 995489023 1592452408 1849628266 1614186357 1902159511 1663309847 294514857 -2140474835 -725926398 534561888 589006446 -1763814753 1928766373 1748489539 -588141223 1051853494 -544128376 -706170693 1231553327 -113829086 -625403428 -77278117 807791039 -1871318659 589980393 -657549126 1591452054 793929365 1306881770 130667441 -1323566708 1484889232
REM
CELL 1.54180   50.00000   50.00000   50.00000   90.00000   90.00000   90.00000
LATT -1
SFAC C  
C      1  0.5307560000000  0.5570540000000  0.5307050000000 1.0
C      1  0.5307570000000  0.4429460000000  0.4692940000000 1.0
C      1  0.4692430000000  0.5570540000000  0.5307050000000 1.0
C      1  0.4692440000000  0.4429460000000  0.4692950000000 1.0
C      1  0.4437410000000  0.5133160000000  0.5389400000000 1.0
C      1  0.4437410000000  0.4866830000000  0.4610610000000 1.0
C      1  0.5562590000000  0.5133170000000  0.5389390000000 1.0
C      1  0.5562590000000  0.4866840000000  0.4610600000000 1.0
C      1  0.5142200000000  0.5159510000000  0.5294850000000 1.0
C      1  0.5142200000000  0.4840490000000  0.4705140000000 1.0
C      1  0.4857800000000  0.5159510000000  0.5294860000000 1.0
C      1  0.4857800000000  0.4840490000000  0.4705150000000 1.0
C      1  0.4445430000000  0.5388370000000  0.5223590000000 1.0
C      1  0.4445430000000  0.4611630000000  0.4776420000000 1.0
C      1  0.5554570000000  0.5388370000000  0.5223580000000 1.0
C      1  0.5554570000000  0.4611630000000  0.4776410000000 1.0
C      1  0.5307880000000  0.5098340000000  0.5890220000000 1.0
C      1  0.5307870000000  0.4901660000000  0.4109770000000 1.0
C      1  0.4692140000000  0.5098340000000  0.5890230000000 1.0
C      1  0.4692130000000  0.4901660000000  0.4109780000000 1.0
C      1  0.5154190000000  0.4520510000000  0.4434710000000 1.0
C      1  0.5154190000000  0.5479490000000  0.5565280000000 1.0
C      1  0.4845810000000  0.4520510000000  0.4434720000000 1.0
C      1  0.4845810000000  0.5479490000000  0.5565290000000 1.0
C      1  0.5152610000000  0.4538570000000  0.5434210000000 1.0
C      1  0.5152600000000  0.5461430000000  0.4565790000000 1.0
C      1  0.4847400000000  0.4538570000000  0.5434210000000 1.0
C      1  0.4847390000000  0.5461430000000  0.4565790000000 1.0
C      1  0.4826280000000  0.5182500000000  0.4391140000000 1.0
C      1  0.4826290000000  0.4817500000000  0.5608860000000 1.0
C      1  0.5173710000000  0.5182500000000  0.4391140000000 1.0
C      1  0.5173720000000  0.4817500000000  0.5608860000000 1.0
C      1  0.5295130000000  0.4483010000000  0.5184580000000 1.0
C      1  0.5295110000000  0.5516990000000  0.4815410000000 1.0
C      1  0.4704890000000  0.4483010000000  0.5184590000000 1.0
C      1  0.4704870000000  0.5516990000000  0.4815420000000 1.0
C      1  0.5149180000000  0.4361890000000  0.4946370000000 1.0
C      1  0.5149170000000  0.5638110000000  0.5053630000000 1.0
C      1  0.4850830000000  0.4361880000000  0.4946370000000 1.0
C      1  0.4850820000000  0.5638110000000  0.5053630000000 1.0
C      1  0.4516510000000  0.5310250000000  0.4925230000000 1.0
C      1  0.4516520000000  0.4689750000000  0.5074770000000 1.0
C      1  0.5483480000000  0.5310250000000  0.4925230000000 1.0
C      1  0.5483490000000  0.4689750000000  0.5074770000000 1.0
C      1  0.5157080000000  0.4834210000000  0.5950510000000 1.0
C      1  0.5157060000000  0.5165790000000  0.4049490000000 1.0
C      1  0.4842940000000  0.4834210000000  0.5950510000000 1.0
C      1  0.4842920000000  0.5165790000000  0.4049490000000 1.0
C      1  0.4346910000000  0.5135650000000  0.4731480000000 1.0
C      1  0.4346910000000  0.4864340000000  0.5268530000000 1.0
C      1  0.5653090000000  0.5135660000000  0.4731470000000 1.0
C      1  0.5653090000000  0.4864350000000  0.5268520000000 1.0
C      1  0.5278590000000  0.5124100000000  0.5049820000000 1.0
C      1  0.5278590000000  0.4875900000000  0.4950180000000 1.0
C      1  0.4721410000000  0.5124100000000  0.5049820000000 1.0
C      1  0.4721410000000  0.4875900000000  0.4950180000000 1.0
C      1  0.5305680000000  0.5151950000000  0.5573070000000 1.0
C      1  0.5305680000000  0.4848050000000  0.4426930000000 1.0
C      1  0.4694320000000  0.5151950000000  0.5573070000000 1.0
C      1  0.4694320000000  0.4848050000000  0.4426930000000 1.0
END
