TITL C-3985250-725-102 -7.21287636405123e-06 125000 -335.904535587568 0 0 60 (C5) n - 1
REM
REM in /home/nfs/bkarasulu/CARBON/AIRSS/Generating-Clusters/TERSOFF/Higher-Symm/Only-C60
REM
REM
REM
REM
REM
REM ./C.cell (28575a23ae977d3b5fae324c64b13b57)
REM
REM compiler GCC version 9.2.1 20190827 (Red Hat 9.2.1-1)
REM options -cpp -mtune=generic -march=x86-64 -g -O0 -fpre-include=/usr/include/finclude/math-vector-fortran.h
REM seed -1607145726 -675430051 -1889643536 1112996854 -376462817 -146119253 -828003292 1288014668 -1097900428 -2047277305 565881188 -1043741594 -1268684845 -1416627066 -16433506 -627309861 -425656362 2040655077 1516515503 -593844646 2029816076 -704302885 -1472884150 2037149208 894728885 667767508 -2135093084 -295439971 1720840560 -99798245 1927812374 -152060152 -1514839745
REM
CELL 1.54180   50.00000   50.00000   50.00000   90.00000   90.00000   90.00000
LATT -1
SFAC C  
C      1  0.4860790000000  0.4225730000000  0.4961060000000 1.0
C      1  0.4860790000000  0.4723710000000  0.5724330000000 1.0
C      1  0.4860760000000  0.5603490000000  0.5486600000000 1.0
C      1  0.4860740000000  0.5649280000000  0.4576410000000 1.0
C      1  0.4860760000000  0.4797780000000  0.4251600000000 1.0
C      1  0.5268530000000  0.4955630000000  0.4452860000000 1.0
C      1  0.5268550000000  0.4465930000000  0.4873130000000 1.0
C      1  0.5268560000000  0.4714310000000  0.5468730000000 1.0
C      1  0.5268550000000  0.5357510000000  0.5416550000000 1.0
C      1  0.5268530000000  0.5506650000000  0.4788720000000 1.0
C      1  0.5752670000000  0.5176670000000  0.5204300000000 1.0
C      1  0.5752640000000  0.5248890000000  0.4895120000000 1.0
C      1  0.5752630000000  0.4977170000000  0.4730900000000 1.0
C      1  0.5752650000000  0.4737020000000  0.4938580000000 1.0
C      1  0.5752670000000  0.4860320000000  0.5231150000000 1.0
C      1  0.4938490000000  0.4186950000000  0.4673890000000 1.0
C      1  0.4938500000000  0.4438600000000  0.5672480000000 1.0
C      1  0.4938480000000  0.5466080000000  0.5741730000000 1.0
C      1  0.4938460000000  0.5849460000000  0.4785940000000 1.0
C      1  0.4938460000000  0.5058910000000  0.4125970000000 1.0
C      1  0.4399140000000  0.5085080000000  0.4760970000000 1.0
C      1  0.4399160000000  0.4798940000000  0.4845210000000 1.0
C      1  0.4399170000000  0.4790640000000  0.5143370000000 1.0
C      1  0.4399160000000  0.5071640000000  0.5243410000000 1.0
C      1  0.4399140000000  0.5253620000000  0.5007070000000 1.0
C      1  0.4898900000000  0.5145620000000  0.4534950000000 1.0
C      1  0.4898920000000  0.4602710000000  0.4717800000000 1.0
C      1  0.4898950000000  0.4608850000000  0.5290630000000 1.0
C      1  0.4898940000000  0.5155530000000  0.5461820000000 1.0
C      1  0.4898900000000  0.5487280000000  0.4994790000000 1.0
C      1  0.4580770000000  0.5504210000000  0.5014590000000 1.0
C      1  0.4580760000000  0.5169690000000  0.4524960000000 1.0
C      1  0.4580790000000  0.4600640000000  0.4691820000000 1.0
C      1  0.4580820000000  0.4583500000000  0.5284570000000 1.0
C      1  0.4580810000000  0.5141930000000  0.5484050000000 1.0
C      1  0.5015000000000  0.5076440000000  0.5225950000000 1.0
C      1  0.5014970000000  0.5238520000000  0.4997120000000 1.0
C      1  0.5014960000000  0.5070980000000  0.4772260000000 1.0
C      1  0.5014980000000  0.4805350000000  0.4862120000000 1.0
C      1  0.5015010000000  0.4808730000000  0.5142510000000 1.0
C      1  0.4633570000000  0.5460940000000  0.5349530000000 1.0
C      1  0.4633550000000  0.5474860000000  0.4669620000000 1.0
C      1  0.4633560000000  0.4832520000000  0.4446280000000 1.0
C      1  0.4633590000000  0.4421620000000  0.4988180000000 1.0
C      1  0.4633590000000  0.4810020000000  0.5546400000000 1.0
C      1  0.5419060000000  0.5190220000000  0.5219890000000 1.0
C      1  0.5419040000000  0.5267910000000  0.4887050000000 1.0
C      1  0.5419030000000  0.4975380000000  0.4710310000000 1.0
C      1  0.5419050000000  0.4716880000000  0.4933900000000 1.0
C      1  0.5419070000000  0.4849660000000  0.5248850000000 1.0
C      1  0.5120420000000  0.4880780000000  0.5689140000000 1.0
C      1  0.5120390000000  0.5618560000000  0.5326340000000 1.0
C      1  0.5120370000000  0.5501520000000  0.4512560000000 1.0
C      1  0.5120390000000  0.4691400000000  0.4372400000000 1.0
C      1  0.5120420000000  0.4307750000000  0.5099570000000 1.0
C      1  0.5112670000000  0.5716770000000  0.5014120000000 1.0
C      1  0.5112660000000  0.5234930000000  0.4322680000000 1.0
C      1  0.5112690000000  0.4428420000000  0.4567270000000 1.0
C      1  0.5112710000000  0.4411830000000  0.5409880000000 1.0
C      1  0.5112700000000  0.5208070000000  0.5686040000000 1.0
END
