TITL C-3985247-764-860 0.000195115219389905 125000 -335.65937567516 0 0 60 (D2) n - 1
REM
REM in /home/nfs/bkarasulu/CARBON/AIRSS/Generating-Clusters/TERSOFF/Higher-Symm/Only-C60
REM
REM
REM
REM
REM
REM ./C.cell (28575a23ae977d3b5fae324c64b13b57)
REM
REM compiler GCC version 9.2.1 20190827 (Red Hat 9.2.1-1)
REM options -cpp -mtune=generic -march=x86-64 -g -O0 -fpre-include=/usr/include/finclude/math-vector-fortran.h
REM seed 2132812895 984764188 339210839 1632711580 -931674668 -1881895549 -676590870 -1819526055 852395836 -167792619 -245396676 -1633003245 -1051641984 899028747 -687671897 1802718021 901572266 1418563070 1537684507 -335704363 -2078132393 1359032562 381458497 1336791559 -986835092 2072119921 -1073081522 182571194 1010617072 -1902097299 760650363 -619098661 1987256758
REM
CELL 1.54180   50.00000   50.00000   50.00000   90.00000   90.00000   90.00000
LATT -1
SFAC C  
C      1  0.4616180000000  0.4633860000000  0.4605770000000 1.0
C      1  0.5383850000000  0.5366150000000  0.4605760000000 1.0
C      1  0.5383910000000  0.4633830000000  0.5394280000000 1.0
C      1  0.4616110000000  0.5366170000000  0.5394260000000 1.0
C      1  0.4620440000000  0.4915480000000  0.4460820000000 1.0
C      1  0.5379430000000  0.5084550000000  0.4460900000000 1.0
C      1  0.5379530000000  0.4915480000000  0.5539180000000 1.0
C      1  0.4620490000000  0.5084570000000  0.5539100000000 1.0
C      1  0.5509930000000  0.5150480000000  0.5394150000000 1.0
C      1  0.4490070000000  0.4849420000000  0.5394220000000 1.0
C      1  0.4490050000000  0.5150560000000  0.4605790000000 1.0
C      1  0.5509890000000  0.4849630000000  0.4605930000000 1.0
C      1  0.5266270000000  0.4849210000000  0.4960860000000 1.0
C      1  0.4733770000000  0.5150770000000  0.4960840000000 1.0
C      1  0.4733790000000  0.4849230000000  0.5039170000000 1.0
C      1  0.5266230000000  0.5150760000000  0.5039180000000 1.0
C      1  0.5580970000000  0.5156980000000  0.5072900000000 1.0
C      1  0.4419050000000  0.4843080000000  0.5072880000000 1.0
C      1  0.4419040000000  0.5156930000000  0.4927100000000 1.0
C      1  0.5580990000000  0.4842960000000  0.4927080000000 1.0
C      1  0.4860480000000  0.5600170000000  0.5487560000000 1.0
C      1  0.5139510000000  0.4399840000000  0.5487560000000 1.0
C      1  0.5139520000000  0.5600160000000  0.4512450000000 1.0
C      1  0.4860480000000  0.4399830000000  0.4512440000000 1.0
C      1  0.4855130000000  0.5874470000000  0.5025000000000 1.0
C      1  0.5144870000000  0.4125550000000  0.5025000000000 1.0
C      1  0.5144870000000  0.5874460000000  0.4975010000000 1.0
C      1  0.4855130000000  0.4125540000000  0.4975010000000 1.0
C      1  0.5105350000000  0.5267870000000  0.5257050000000 1.0
C      1  0.4894700000000  0.4732130000000  0.5257060000000 1.0
C      1  0.4894570000000  0.5267890000000  0.4742980000000 1.0
C      1  0.5105470000000  0.4732090000000  0.4742970000000 1.0
C      1  0.5229590000000  0.5839680000000  0.4692780000000 1.0
C      1  0.4770400000000  0.4160310000000  0.4692770000000 1.0
C      1  0.4770410000000  0.5839690000000  0.5307230000000 1.0
C      1  0.5229590000000  0.4160320000000  0.5307220000000 1.0
C      1  0.5176490000000  0.4751530000000  0.5210040000000 1.0
C      1  0.4823420000000  0.5248470000000  0.5210080000000 1.0
C      1  0.4823260000000  0.4751470000000  0.4789900000000 1.0
C      1  0.5176770000000  0.5248430000000  0.4789730000000 1.0
C      1  0.4843460000000  0.5540430000000  0.4637960000000 1.0
C      1  0.5156540000000  0.4459580000000  0.4637950000000 1.0
C      1  0.5156540000000  0.5540450000000  0.5362040000000 1.0
C      1  0.4843440000000  0.4459520000000  0.5362040000000 1.0
C      1  0.5287620000000  0.5739740000000  0.5191740000000 1.0
C      1  0.4712380000000  0.4260250000000  0.5191740000000 1.0
C      1  0.4712380000000  0.5739740000000  0.4808260000000 1.0
C      1  0.5287620000000  0.4260250000000  0.4808260000000 1.0
C      1  0.5057050000000  0.5397440000000  0.4275950000000 1.0
C      1  0.4942950000000  0.4602570000000  0.4275950000000 1.0
C      1  0.4942960000000  0.5397450000000  0.5724050000000 1.0
C      1  0.5057050000000  0.4602560000000  0.5724060000000 1.0
C      1  0.4407350000000  0.5372240000000  0.5159990000000 1.0
C      1  0.5592660000000  0.4627770000000  0.5160000000000 1.0
C      1  0.5592660000000  0.5372240000000  0.4840020000000 1.0
C      1  0.4407330000000  0.4627760000000  0.4840010000000 1.0
C      1  0.4890100000000  0.4895980000000  0.4301050000000 1.0
C      1  0.5109900000000  0.5104020000000  0.4301050000000 1.0
C      1  0.5109900000000  0.4896000000000  0.5698960000000 1.0
C      1  0.4890110000000  0.5104000000000  0.5698950000000 1.0
END
