TITL C-3985253-1688-206 -0.00174095725305776 125000 -295.068197454935 0 0 60 (C5) n - 1
REM
REM in /home/nfs/bkarasulu/CARBON/AIRSS/Generating-Clusters/TERSOFF/Higher-Symm/Only-C60
REM
REM
REM
REM
REM
REM ./C.cell (28575a23ae977d3b5fae324c64b13b57)
REM
REM compiler GCC version 9.2.1 20190827 (Red Hat 9.2.1-1)
REM options -cpp -mtune=generic -march=x86-64 -g -O0 -fpre-include=/usr/include/finclude/math-vector-fortran.h
REM seed 1504117780 -1024645072 1890286993 1995250802 1618896790 1420589724 -1889994398 -79667548 1466551620 81613356 -1129490628 880358328 -424853970 1059260290 1507631236 -1364886523 1534788605 -940625704 -1166614644 -549381233 676122605 115040435 -887386251 -780795641 -1706939433 1718800253 866636477 604961059 -1664587846 810915110 -2053140449 -381788981 2098141764
REM
CELL 1.54180   50.00000   50.00000   50.00000   90.00000   90.00000   90.00000
LATT -1
SFAC C  
C      1  0.4930640000000  0.5703370000000  0.4492230000000 1.0
C      1  0.4309550000000  0.5151290000000  0.4492260000000 1.0
C      1  0.4642480000000  0.4390470000000  0.4492200000000 1.0
C      1  0.5469550000000  0.4471710000000  0.4492220000000 1.0
C      1  0.5647510000000  0.5283260000000  0.4492190000000 1.0
C      1  0.5166560000000  0.4812570000000  0.5415370000000 1.0
C      1  0.5229720000000  0.5100460000000  0.5415390000000 1.0
C      1  0.4975450000000  0.5249490000000  0.5415410000000 1.0
C      1  0.4755160000000  0.5053700000000  0.5415370000000 1.0
C      1  0.4873270000000  0.4783710000000  0.5415390000000 1.0
C      1  0.4495020000000  0.4786440000000  0.5235290000000 1.0
C      1  0.5047050000000  0.4453750000000  0.5235350000000 1.0
C      1  0.5534030000000  0.4875940000000  0.5235390000000 1.0
C      1  0.5283150000000  0.5469590000000  0.5235310000000 1.0
C      1  0.4640960000000  0.5414250000000  0.5235360000000 1.0
C      1  0.4873340000000  0.4512770000000  0.4359200000000 1.0
C      1  0.5424590000000  0.4729110000000  0.4359280000000 1.0
C      1  0.5388820000000  0.5320060000000  0.4359250000000 1.0
C      1  0.4815700000000  0.5468730000000  0.4359270000000 1.0
C      1  0.4497200000000  0.4969460000000  0.4359320000000 1.0
C      1  0.5177950000000  0.5421810000000  0.4782860000000 1.0
C      1  0.4653810000000  0.5299570000000  0.4782860000000 1.0
C      1  0.4608130000000  0.4763300000000  0.4782890000000 1.0
C      1  0.5104010000000  0.4554090000000  0.4782840000000 1.0
C      1  0.5456190000000  0.4961110000000  0.4782900000000 1.0
C      1  0.4979740000000  0.5687670000000  0.4810680000000 1.0
C      1  0.4339730000000  0.5193210000000  0.4810700000000 1.0
C      1  0.4612210000000  0.4431710000000  0.4810710000000 1.0
C      1  0.5420640000000  0.4455530000000  0.4810690000000 1.0
C      1  0.5647770000000  0.5231780000000  0.4810670000000 1.0
C      1  0.5270950000000  0.4943720000000  0.4524060000000 1.0
C      1  0.5137250000000  0.5240270000000  0.4524040000000 1.0
C      1  0.4813900000000  0.5204780000000  0.4524020000000 1.0
C      1  0.4747710000000  0.4886280000000  0.4524040000000 1.0
C      1  0.5030260000000  0.4724950000000  0.4524080000000 1.0
C      1  0.5541310000000  0.5228490000000  0.5143520000000 1.0
C      1  0.4949950000000  0.5585440000000  0.5143490000000 1.0
C      1  0.4427770000000  0.5133340000000  0.5143490000000 1.0
C      1  0.4696380000000  0.4496960000000  0.5143500000000 1.0
C      1  0.5384630000000  0.4555760000000  0.5143550000000 1.0
C      1  0.4506950000000  0.4909090000000  0.5577300000000 1.0
C      1  0.4934090000000  0.4502960000000  0.5577320000000 1.0
C      1  0.5452460000000  0.4783750000000  0.5577410000000 1.0
C      1  0.5345340000000  0.5363480000000  0.5577370000000 1.0
C      1  0.4761100000000  0.5440850000000  0.5577330000000 1.0
C      1  0.4972990000000  0.4735350000000  0.5819830000000 1.0
C      1  0.5243350000000  0.4892600000000  0.5819840000000 1.0
C      1  0.5177330000000  0.5198330000000  0.5819900000000 1.0
C      1  0.4866180000000  0.5230000000000  0.5819860000000 1.0
C      1  0.4739900000000  0.4943890000000  0.5819790000000 1.0
C      1  0.4763220000000  0.4893060000000  0.5025480000000 1.0
C      1  0.5028540000000  0.4741690000000  0.5025530000000 1.0
C      1  0.5254490000000  0.4947290000000  0.5025540000000 1.0
C      1  0.5128750000000  0.5225710000000  0.5025550000000 1.0
C      1  0.4825160000000  0.5192170000000  0.5025480000000 1.0
C      1  0.4686760000000  0.5588290000000  0.4814000000000 1.0
C      1  0.4343730000000  0.4883840000000  0.4814110000000 1.0
C      1  0.4907640000000  0.4339850000000  0.4813780000000 1.0
C      1  0.5599250000000  0.4708170000000  0.4814000000000 1.0
C      1  0.5462710000000  0.5479720000000  0.4813950000000 1.0
END
