TITL C-3985258-5380-42 4.70769368654085e-07 125000 -314.626052258024 0 0 60 (S4) n - 1
REM
REM in /home/nfs/bkarasulu/CARBON/AIRSS/Generating-Clusters/TERSOFF/Higher-Symm/Only-C60
REM
REM
REM
REM
REM
REM ./C.cell (28575a23ae977d3b5fae324c64b13b57)
REM
REM compiler GCC version 9.2.1 20190827 (Red Hat 9.2.1-1)
REM options -cpp -mtune=generic -march=x86-64 -g -O0 -fpre-include=/usr/include/finclude/math-vector-fortran.h
REM seed 1912674182 250673971 -33406961 478728719 -1858097779 1785025509 -1032263994 169847219 87291849 -238313997 891666418 1692700857 -617408283 -535849787 -448834473 -482214792 1012777607 1929077629 2085724058 1229450199 88137312 -246808881 -917377749 -1506172235 1802509823 561209069 -1552263783 1705260622 -907465750 1929641657 1581335126 -902664199 808228920
REM
CELL 1.54180   50.00000   50.00000   50.00000   90.00000   90.00000   90.00000
LATT -1
SFAC C  
C      1  0.5769380000000  0.4878590000000  0.5096890000000 1.0
C      1  0.5096890000000  0.5121410000000  0.4230620000000 1.0
C      1  0.4230620000000  0.4878590000000  0.4903110000000 1.0
C      1  0.4903110000000  0.5121410000000  0.5769380000000 1.0
C      1  0.5399850000000  0.5112610000000  0.4239350000000 1.0
C      1  0.4239350000000  0.4887390000000  0.4600150000000 1.0
C      1  0.4600150000000  0.5112610000000  0.5760650000000 1.0
C      1  0.5760650000000  0.4887390000000  0.5399850000000 1.0
C      1  0.5119200000000  0.5568990000000  0.5267590000000 1.0
C      1  0.5267590000000  0.4431010000000  0.4880800000000 1.0
C      1  0.4880800000000  0.5568990000000  0.4732410000000 1.0
C      1  0.4732410000000  0.4431010000000  0.5119200000000 1.0
C      1  0.5026030000000  0.4832060000000  0.5670590000000 1.0
C      1  0.5670590000000  0.5167940000000  0.4973970000000 1.0
C      1  0.4973970000000  0.4832060000000  0.4329410000000 1.0
C      1  0.4329410000000  0.5167940000000  0.5026030000000 1.0
C      1  0.5391230000000  0.5002300000000  0.4962900000000 1.0
C      1  0.4962900000000  0.4997700000000  0.4608770000000 1.0
C      1  0.4608770000000  0.5002300000000  0.5037100000000 1.0
C      1  0.5037100000000  0.4997700000000  0.5391230000000 1.0
C      1  0.4672500000000  0.4533440000000  0.4582730000000 1.0
C      1  0.4582730000000  0.5466560000000  0.5327500000000 1.0
C      1  0.5327500000000  0.4533440000000  0.5417270000000 1.0
C      1  0.5417270000000  0.5466560000000  0.4672500000000 1.0
C      1  0.5083950000000  0.4460650000000  0.5191600000000 1.0
C      1  0.5191600000000  0.5539350000000  0.4916050000000 1.0
C      1  0.4916050000000  0.4460650000000  0.4808400000000 1.0
C      1  0.4808400000000  0.5539350000000  0.5083950000000 1.0
C      1  0.5059120000000  0.4800000000000  0.5145550000000 1.0
C      1  0.5145550000000  0.5200000000000  0.4940880000000 1.0
C      1  0.4940880000000  0.4800000000000  0.4854450000000 1.0
C      1  0.4854450000000  0.5200000000000  0.5059120000000 1.0
C      1  0.4691620000000  0.5126980000000  0.4556720000000 1.0
C      1  0.4556720000000  0.4873020000000  0.5308380000000 1.0
C      1  0.5308380000000  0.5126980000000  0.5443280000000 1.0
C      1  0.5443280000000  0.4873020000000  0.4691620000000 1.0
C      1  0.5327370000000  0.4618500000000  0.4628040000000 1.0
C      1  0.4628040000000  0.5381500000000  0.4672630000000 1.0
C      1  0.4672630000000  0.4618500000000  0.5371960000000 1.0
C      1  0.5371960000000  0.5381500000000  0.5327370000000 1.0
C      1  0.5516040000000  0.4949520000000  0.5559270000000 1.0
C      1  0.5559270000000  0.5050480000000  0.4483960000000 1.0
C      1  0.4483960000000  0.4949520000000  0.4440730000000 1.0
C      1  0.4440730000000  0.5050480000000  0.5516040000000 1.0
C      1  0.4678100000000  0.4729350000000  0.4350310000000 1.0
C      1  0.4350310000000  0.5270650000000  0.5321900000000 1.0
C      1  0.5321900000000  0.4729350000000  0.5649690000000 1.0
C      1  0.5649690000000  0.5270650000000  0.4678100000000 1.0
C      1  0.5374230000000  0.4761900000000  0.5171380000000 1.0
C      1  0.5171380000000  0.5238100000000  0.4625770000000 1.0
C      1  0.4625770000000  0.4761900000000  0.4828620000000 1.0
C      1  0.4828620000000  0.5238100000000  0.5374230000000 1.0
C      1  0.4423980000000  0.4597510000000  0.5020500000000 1.0
C      1  0.5020500000000  0.5402490000000  0.5576020000000 1.0
C      1  0.5576020000000  0.4597510000000  0.4979500000000 1.0
C      1  0.4979500000000  0.5402490000000  0.4423980000000 1.0
C      1  0.4388090000000  0.5387880000000  0.4834700000000 1.0
C      1  0.4834700000000  0.4612120000000  0.5611910000000 1.0
C      1  0.5611910000000  0.5387880000000  0.5165300000000 1.0
C      1  0.5165300000000  0.4612120000000  0.4388090000000 1.0
END
