TITL C-3985253-1688-184 -3.77117705670965e-06 125000 -317.274040049377 0 0 60 (C3) n - 1
REM
REM in /home/nfs/bkarasulu/CARBON/AIRSS/Generating-Clusters/TERSOFF/Higher-Symm/Only-C60
REM
REM
REM
REM
REM
REM ./C.cell (28575a23ae977d3b5fae324c64b13b57)
REM
REM compiler GCC version 9.2.1 20190827 (Red Hat 9.2.1-1)
REM options -cpp -mtune=generic -march=x86-64 -g -O0 -fpre-include=/usr/include/finclude/math-vector-fortran.h
REM seed -138466545 -1347961162 2000884802 574733026 891448824 1222297861 1834385244 -1070036759 -1978264507 912609244 823654360 473279250 141310224 1562140436 123657920 735085993 -458793841 1716091483 -534747654 1443959528 -646892322 -1577078132 -920046626 -1830398883 2000361710 -49936013 252007424 -1638489103 1211900112 1510086518 -444440122 -1886065651 818572035
REM
CELL 1.54180   50.00000   50.00000   50.00000   90.00000   90.00000   90.00000
LATT -1
SFAC C  
C      1  0.4436280000000  0.4673320000000  0.5434650000000 1.0
C      1  0.4905250000000  0.4673490000000  0.4294450000000 1.0
C      1  0.5658180000000  0.4673050000000  0.5270550000000 1.0
C      1  0.5858370000000  0.5120760000000  0.5056980000000 1.0
C      1  0.4521550000000  0.5120910000000  0.5714880000000 1.0
C      1  0.4620250000000  0.5121290000000  0.4228260000000 1.0
C      1  0.5377020000000  0.5103660000000  0.5083460000000 1.0
C      1  0.4739310000000  0.5103830000000  0.5284790000000 1.0
C      1  0.4883790000000  0.5103940000000  0.4631890000000 1.0
C      1  0.4601540000000  0.5515440000000  0.5081880000000 1.0
C      1  0.5128690000000  0.5515380000000  0.4614060000000 1.0
C      1  0.5270200000000  0.5515150000000  0.5304440000000 1.0
C      1  0.5391230000000  0.4703750000000  0.5727770000000 1.0
C      1  0.4173840000000  0.4704340000000  0.4974840000000 1.0
C      1  0.5434690000000  0.4704120000000  0.4297080000000 1.0
C      1  0.5009010000000  0.5673910000000  0.5338830000000 1.0
C      1  0.4702520000000  0.5674150000000  0.4838530000000 1.0
C      1  0.5289110000000  0.5673970000000  0.4823160000000 1.0
C      1  0.5707610000000  0.5309260000000  0.5240000000000 1.0
C      1  0.4438540000000  0.5309520000000  0.5492870000000 1.0
C      1  0.4854150000000  0.5309730000000  0.4267420000000 1.0
C      1  0.4698360000000  0.4494920000000  0.5379830000000 1.0
C      1  0.4821520000000  0.4495130000000  0.4548810000000 1.0
C      1  0.5479620000000  0.4494750000000  0.5070950000000 1.0
C      1  0.5572250000000  0.5145060000000  0.5477880000000 1.0
C      1  0.4300080000000  0.5145480000000  0.5256660000000 1.0
C      1  0.5127840000000  0.5145490000000  0.4265550000000 1.0
C      1  0.5156960000000  0.4834640000000  0.4276150000000 1.0
C      1  0.5548310000000  0.4834220000000  0.5497720000000 1.0
C      1  0.4294610000000  0.4834660000000  0.5225940000000 1.0
C      1  0.4823400000000  0.5548190000000  0.4545390000000 1.0
C      1  0.5482370000000  0.5547860000000  0.5074420000000 1.0
C      1  0.4694700000000  0.5548000000000  0.5380650000000 1.0
C      1  0.4682660000000  0.4878180000000  0.4784920000000 1.0
C      1  0.5344850000000  0.4877940000000  0.4832730000000 1.0
C      1  0.4972350000000  0.4877930000000  0.5382300000000 1.0
C      1  0.5567560000000  0.4687220000000  0.4821720000000 1.0
C      1  0.4870380000000  0.4687220000000  0.5580610000000 1.0
C      1  0.4561750000000  0.4687610000000  0.4597430000000 1.0
C      1  0.5800870000000  0.4828440000000  0.5030870000000 1.0
C      1  0.4572700000000  0.4828560000000  0.5678060000000 1.0
C      1  0.4626350000000  0.4828940000000  0.4290930000000 1.0
C      1  0.4508260000000  0.5121430000000  0.4817720000000 1.0
C      1  0.5403810000000  0.5121170000000  0.4665330000000 1.0
C      1  0.5088010000000  0.5121050000000  0.5517110000000 1.0
C      1  0.5172480000000  0.5229140000000  0.4551100000000 1.0
C      1  0.5302650000000  0.5228910000000  0.5373870000000 1.0
C      1  0.4525030000000  0.5229230000000  0.5075230000000 1.0
C      1  0.5591960000000  0.4591620000000  0.4537180000000 1.0
C      1  0.5104580000000  0.4591430000000  0.5743950000000 1.0
C      1  0.4303110000000  0.4592000000000  0.4718500000000 1.0
C      1  0.5086690000000  0.4765120000000  0.4773530000000 1.0
C      1  0.5152610000000  0.4765020000000  0.5188320000000 1.0
C      1  0.4760440000000  0.4765170000000  0.5038020000000 1.0
C      1  0.4604190000000  0.5309830000000  0.4603160000000 1.0
C      1  0.5541790000000  0.5309460000000  0.4855670000000 1.0
C      1  0.4854290000000  0.5309500000000  0.5541460000000 1.0
C      1  0.5012630000000  0.4465540000000  0.4792640000000 1.0
C      1  0.5172880000000  0.4465450000000  0.5114570000000 1.0
C      1  0.4813950000000  0.4465550000000  0.5092380000000 1.0
END
