TITL C-3985259-1859-574 -8.45994400637292e-05 125000 -359.128643400022 0 0 60 (S10) n - 1
REM
REM in /home/nfs/bkarasulu/CARBON/AIRSS/Generating-Clusters/TERSOFF/Higher-Symm/Only-C60
REM
REM
REM
REM
REM
REM ./C.cell (28575a23ae977d3b5fae324c64b13b57)
REM
REM compiler GCC version 9.2.1 20190827 (Red Hat 9.2.1-1)
REM options -cpp -mtune=generic -march=x86-64 -g -O0 -fpre-include=/usr/include/finclude/math-vector-fortran.h
REM seed 1199224641 2131964131 -857388668 -1626768042 1734068186 -1511330806 -967167459 868339673 185968425 -1705128109 -897867056 -976898971 742648524 363548282 -182392088 -556862751 -1516013171 315687376 -1489370807 1681323494 322553090 1730476624 -611675080 -1793208801 -1631631633 -582277001 -1201314706 -953427181 -1731343539 1903772980 239029480 642823400 357464171
REM
CELL 1.54180   50.00000   50.00000   50.00000   90.00000   90.00000   90.00000
LATT -1
SFAC C  
C      1  0.4307940000000  0.4906090000000  0.4761050000000 1.0
C      1  0.5692010000000  0.5064520000000  0.4751340000000 1.0
C      1  0.4307950000000  0.5198310000000  0.4836900000000 1.0
C      1  0.5692040000000  0.5256350000000  0.4984470000000 1.0
C      1  0.4307990000000  0.5216470000000  0.5138260000000 1.0
C      1  0.5692060000000  0.5093910000000  0.5238950000000 1.0
C      1  0.4307990000000  0.4935480000000  0.5248660000000 1.0
C      1  0.5692050000000  0.4801690000000  0.5163100000000 1.0
C      1  0.4307960000000  0.4743650000000  0.5015530000000 1.0
C      1  0.5692010000000  0.4783530000000  0.4861740000000 1.0
C      1  0.4844840000000  0.4468900000000  0.4765310000000 1.0
C      1  0.5155020000000  0.4708420000000  0.4497830000000 1.0
C      1  0.4844840000000  0.5059230000000  0.4422330000000 1.0
C      1  0.5155080000000  0.5387340000000  0.4567460000000 1.0
C      1  0.4844920000000  0.5567760000000  0.4877920000000 1.0
C      1  0.5155160000000  0.5531100000000  0.5234690000000 1.0
C      1  0.4844980000000  0.5291580000000  0.5502170000000 1.0
C      1  0.5155160000000  0.4940770000000  0.5577670000000 1.0
C      1  0.4844920000000  0.4612660000000  0.5432540000000 1.0
C      1  0.5155080000000  0.4432240000000  0.5122080000000 1.0
C      1  0.4863040000000  0.4592420000000  0.4483630000000 1.0
C      1  0.5136800000000  0.4973770000000  0.4342640000000 1.0
C      1  0.4863100000000  0.5365160000000  0.4452820000000 1.0
C      1  0.5136880000000  0.5617080000000  0.4771920000000 1.0
C      1  0.4863200000000  0.5633260000000  0.5178210000000 1.0
C      1  0.5136960000000  0.5407580000000  0.5516370000000 1.0
C      1  0.4863200000000  0.5026230000000  0.5657360000000 1.0
C      1  0.5136900000000  0.4634840000000  0.5547180000000 1.0
C      1  0.4863120000000  0.4382920000000  0.5228080000000 1.0
C      1  0.5136800000000  0.4366740000000  0.4821790000000 1.0
C      1  0.4666440000000  0.4373460000000  0.5002510000000 1.0
C      1  0.5333470000000  0.4491670000000  0.4633710000000 1.0
C      1  0.4666390000000  0.4804060000000  0.4404920000000 1.0
C      1  0.5333480000000  0.5191240000000  0.4403330000000 1.0
C      1  0.4666450000000  0.5505430000000  0.4629790000000 1.0
C      1  0.5333560000000  0.5626540000000  0.4997490000000 1.0
C      1  0.4666530000000  0.5508330000000  0.5366290000000 1.0
C      1  0.5333610000000  0.5195940000000  0.5595080000000 1.0
C      1  0.4666520000000  0.4808760000000  0.5596670000000 1.0
C      1  0.5333550000000  0.4494570000000  0.5370210000000 1.0
C      1  0.5194120000000  0.5173840000000  0.4806010000000 1.0
C      1  0.4806010000000  0.5254600000000  0.4945300000000 1.0
C      1  0.5193920000000  0.5237960000000  0.5105450000000 1.0
C      1  0.4805940000000  0.5130750000000  0.5225380000000 1.0
C      1  0.5193850000000  0.4973330000000  0.5258820000000 1.0
C      1  0.4805870000000  0.4826150000000  0.5193990000000 1.0
C      1  0.5193990000000  0.4745400000000  0.5054700000000 1.0
C      1  0.4806080000000  0.4762040000000  0.4894550000000 1.0
C      1  0.5194060000000  0.4869250000000  0.4774620000000 1.0
C      1  0.4806170000000  0.5026680000000  0.4741180000000 1.0
C      1  0.5607580000000  0.4548540000000  0.4711640000000 1.0
C      1  0.4392320000000  0.4804210000000  0.4501470000000 1.0
C      1  0.5607560000000  0.5134670000000  0.4481480000000 1.0
C      1  0.4392350000000  0.5413690000000  0.4659790000000 1.0
C      1  0.5607630000000  0.5534700000000  0.4967800000000 1.0
C      1  0.4392420000000  0.5451460000000  0.5288360000000 1.0
C      1  0.5607680000000  0.5195790000000  0.5498530000000 1.0
C      1  0.4392440000000  0.4865330000000  0.5518520000000 1.0
C      1  0.5607650000000  0.4586310000000  0.5340210000000 1.0
C      1  0.4392370000000  0.4465300000000  0.5032200000000 1.0
END
