TITL C-3985259-1859-1301 -0.000256183830648519 125000 -320.248112867308 0 0 60 (C1) n - 1
REM
REM in /home/nfs/bkarasulu/CARBON/AIRSS/Generating-Clusters/TERSOFF/Higher-Symm/Only-C60
REM
REM
REM
REM
REM
REM ./C.cell (28575a23ae977d3b5fae324c64b13b57)
REM
REM compiler GCC version 9.2.1 20190827 (Red Hat 9.2.1-1)
REM options -cpp -mtune=generic -march=x86-64 -g -O0 -fpre-include=/usr/include/finclude/math-vector-fortran.h
REM seed -1482037339 935694041 1155362417 -1977286617 -229767004 -1354615797 1164869688 1941146711 1880840850 -919523186 -1367125292 -1567022935 -1021743371 1866874922 -40064919 -1357546201 -1073632705 -2065401390 -92477284 -1229113854 1888698299 -76692410 832007550 1222068023 -1815385968 1928292822 -2099070231 1079460426 236627287 -1185143903 -1349942389 1324948331 166306402
REM
CELL 1.54180   50.00000   50.00000   50.00000   90.00000   90.00000   90.00000
LATT -1
SFAC C  
C      1  0.5096570000000  0.4255520000000  0.5252250000000 1.0
C      1  0.5071980000000  0.5010210000000  0.5744550000000 1.0
C      1  0.5173600000000  0.5729620000000  0.5231760000000 1.0
C      1  0.5287680000000  0.5477360000000  0.4313590000000 1.0
C      1  0.5104790000000  0.4585060000000  0.4428440000000 1.0
C      1  0.4888220000000  0.4275420000000  0.4783410000000 1.0
C      1  0.4838040000000  0.5085510000000  0.4324140000000 1.0
C      1  0.4912050000000  0.5658900000000  0.4599130000000 1.0
C      1  0.4878210000000  0.5412760000000  0.5493920000000 1.0
C      1  0.4832770000000  0.4574370000000  0.5616030000000 1.0
C      1  0.5290220000000  0.4537790000000  0.4637670000000 1.0
C      1  0.5257950000000  0.4404840000000  0.5435340000000 1.0
C      1  0.5232310000000  0.5210570000000  0.5622920000000 1.0
C      1  0.5283460000000  0.5835000000000  0.4987460000000 1.0
C      1  0.5263070000000  0.5196300000000  0.4251700000000 1.0
C      1  0.4677290000000  0.4483260000000  0.5395620000000 1.0
C      1  0.4709260000000  0.4435610000000  0.4628400000000 1.0
C      1  0.4778170000000  0.5266290000000  0.4534350000000 1.0
C      1  0.4773180000000  0.5656860000000  0.4858560000000 1.0
C      1  0.4711180000000  0.5185200000000  0.5497800000000 1.0
C      1  0.4733150000000  0.4566170000000  0.5099590000000 1.0
C      1  0.4766790000000  0.4921020000000  0.5336930000000 1.0
C      1  0.4788040000000  0.5444660000000  0.5071730000000 1.0
C      1  0.4641930000000  0.5184680000000  0.4776200000000 1.0
C      1  0.4686880000000  0.4742050000000  0.4656010000000 1.0
C      1  0.5233620000000  0.4592230000000  0.4948070000000 1.0
C      1  0.5226200000000  0.4986540000000  0.4449930000000 1.0
C      1  0.5380750000000  0.5666440000000  0.4772830000000 1.0
C      1  0.5271210000000  0.5217240000000  0.5320310000000 1.0
C      1  0.5279070000000  0.4706950000000  0.5422370000000 1.0
C      1  0.4472610000000  0.4849410000000  0.5415840000000 1.0
C      1  0.4483590000000  0.5354150000000  0.5186110000000 1.0
C      1  0.4361620000000  0.5258530000000  0.4783970000000 1.0
C      1  0.4375190000000  0.4780860000000  0.4618180000000 1.0
C      1  0.4431830000000  0.4473400000000  0.5049920000000 1.0
C      1  0.5427880000000  0.4972360000000  0.4671740000000 1.0
C      1  0.5595050000000  0.5484110000000  0.4853670000000 1.0
C      1  0.5567870000000  0.5262020000000  0.5290240000000 1.0
C      1  0.5603980000000  0.4762250000000  0.5380810000000 1.0
C      1  0.5544570000000  0.4509680000000  0.4970650000000 1.0
C      1  0.4209950000000  0.5018020000000  0.4758780000000 1.0
C      1  0.4239690000000  0.4607860000000  0.4841370000000 1.0
C      1  0.4289660000000  0.4661810000000  0.5254330000000 1.0
C      1  0.4337050000000  0.5078990000000  0.5261540000000 1.0
C      1  0.4288570000000  0.5465400000000  0.4981140000000 1.0
C      1  0.5697300000000  0.5007830000000  0.5227860000000 1.0
C      1  0.5667690000000  0.4515930000000  0.5232150000000 1.0
C      1  0.5636040000000  0.4725980000000  0.4783910000000 1.0
C      1  0.5642630000000  0.5215930000000  0.4735560000000 1.0
C      1  0.5653330000000  0.5486970000000  0.5135650000000 1.0
C      1  0.5195490000000  0.5601230000000  0.4559840000000 1.0
C      1  0.5050940000000  0.5460610000000  0.5257270000000 1.0
C      1  0.4920060000000  0.4819350000000  0.4440870000000 1.0
C      1  0.5007540000000  0.4802980000000  0.5551370000000 1.0
C      1  0.4994180000000  0.4405410000000  0.5023160000000 1.0
C      1  0.4121770000000  0.4889130000000  0.5043100000000 1.0
C      1  0.5758760000000  0.4980070000000  0.4930090000000 1.0
C      1  0.5248470000000  0.4899010000000  0.5146320000000 1.0
C      1  0.4755740000000  0.4903670000000  0.4972850000000 1.0
C      1  0.5040280000000  0.4986920000000  0.4952210000000 1.0
END
