TITL C-3985254-1270-1357 -0.00108093979280305 125000 -354.132817759362 0 0 60 (Cs) n - 1
REM
REM in /home/nfs/bkarasulu/CARBON/AIRSS/Generating-Clusters/TERSOFF/Higher-Symm/Only-C60
REM
REM
REM
REM
REM
REM ./C.cell (28575a23ae977d3b5fae324c64b13b57)
REM
REM compiler GCC version 9.2.1 20190827 (Red Hat 9.2.1-1)
REM options -cpp -mtune=generic -march=x86-64 -g -O0 -fpre-include=/usr/include/finclude/math-vector-fortran.h
REM seed 1996221280 578602646 885389664 -1928912278 -778220547 -397327266 1553273640 -1079038896 1730462408 -1880367107 -1807012522 -424910390 963436783 -1231062171 -1361712341 943791555 -598359691 647771127 -101102290 1951249772 -887421821 -83705868 1783553759 391780480 1331333602 -2040581412 1172703349 -188943316 -1939426213 20571278 1756994329 1967708130 1641816517
REM
CELL 1.54180   50.00000   50.00000   50.00000   90.00000   90.00000   90.00000
LATT -1
SFAC C  
C      1  0.5298920000000  0.4328310000000  0.5120330000000 1.0
C      1  0.4453880000000  0.4499300000000  0.5114440000000 1.0
C      1  0.4358980000000  0.5361330000000  0.5114710000000 1.0
C      1  0.5150450000000  0.5709080000000  0.5124210000000 1.0
C      1  0.5722530000000  0.5072750000000  0.5123610000000 1.0
C      1  0.4701080000000  0.4328310000000  0.5120340000000 1.0
C      1  0.5546130000000  0.4499270000000  0.5114390000000 1.0
C      1  0.5641000000000  0.5361360000000  0.5114740000000 1.0
C      1  0.4849550000000  0.5709080000000  0.5124210000000 1.0
C      1  0.4277450000000  0.5072750000000  0.5123680000000 1.0
C      1  0.4350930000000  0.4633140000000  0.4869520000000 1.0
C      1  0.4456050000000  0.5497840000000  0.4869000000000 1.0
C      1  0.5312850000000  0.5677910000000  0.4877210000000 1.0
C      1  0.5753980000000  0.4907630000000  0.4880480000000 1.0
C      1  0.5147480000000  0.4253000000000  0.4877640000000 1.0
C      1  0.5649060000000  0.4633120000000  0.4869530000000 1.0
C      1  0.5544010000000  0.5497800000000  0.4868980000000 1.0
C      1  0.4687130000000  0.5677900000000  0.4877210000000 1.0
C      1  0.4246040000000  0.4907600000000  0.4880470000000 1.0
C      1  0.4852510000000  0.4253000000000  0.4877630000000 1.0
C      1  0.5153580000000  0.4305770000000  0.5374410000000 1.0
C      1  0.4372240000000  0.4622430000000  0.5367400000000 1.0
C      1  0.4444660000000  0.5482870000000  0.5365830000000 1.0
C      1  0.5290420000000  0.5648070000000  0.5375670000000 1.0
C      1  0.5693900000000  0.4926090000000  0.5376730000000 1.0
C      1  0.4846430000000  0.4305740000000  0.5374390000000 1.0
C      1  0.5627760000000  0.4622440000000  0.5367420000000 1.0
C      1  0.5555360000000  0.5482860000000  0.5365830000000 1.0
C      1  0.4709570000000  0.5648060000000  0.5375670000000 1.0
C      1  0.4305970000000  0.4926220000000  0.5376630000000 1.0
C      1  0.4582140000000  0.4693280000000  0.5591260000000 1.0
C      1  0.4574970000000  0.5312550000000  0.5595830000000 1.0
C      1  0.5150190000000  0.5488750000000  0.5616870000000 1.0
C      1  0.5486710000000  0.5018730000000  0.5612490000000 1.0
C      1  0.5168660000000  0.4529770000000  0.5601930000000 1.0
C      1  0.5418040000000  0.4693400000000  0.5591140000000 1.0
C      1  0.5425020000000  0.5312590000000  0.5595840000000 1.0
C      1  0.4849810000000  0.5488750000000  0.5616870000000 1.0
C      1  0.4513270000000  0.5018740000000  0.5612480000000 1.0
C      1  0.4831310000000  0.4529790000000  0.5601910000000 1.0
C      1  0.4610770000000  0.5288370000000  0.4405770000000 1.0
C      1  0.5152580000000  0.5493890000000  0.4422590000000 1.0
C      1  0.5517180000000  0.5008810000000  0.4442330000000 1.0
C      1  0.5155340000000  0.4516530000000  0.4435530000000 1.0
C      1  0.4610060000000  0.4725630000000  0.4413290000000 1.0
C      1  0.5389250000000  0.5288370000000  0.4405760000000 1.0
C      1  0.4847420000000  0.5493900000000  0.4422600000000 1.0
C      1  0.4482840000000  0.5008800000000  0.4442330000000 1.0
C      1  0.4844660000000  0.4516530000000  0.4435530000000 1.0
C      1  0.5389930000000  0.4725620000000  0.4413290000000 1.0
C      1  0.5249580000000  0.4293190000000  0.4610100000000 1.0
C      1  0.4423790000000  0.4556480000000  0.4597430000000 1.0
C      1  0.4397480000000  0.5409470000000  0.4597690000000 1.0
C      1  0.5209930000000  0.5720030000000  0.4610540000000 1.0
C      1  0.5755230000000  0.5018900000000  0.4615270000000 1.0
C      1  0.4750420000000  0.4293190000000  0.4610110000000 1.0
C      1  0.5576200000000  0.4556480000000  0.4597420000000 1.0
C      1  0.5602500000000  0.5409470000000  0.4597710000000 1.0
C      1  0.4790060000000  0.5720040000000  0.4610550000000 1.0
C      1  0.4244750000000  0.5018890000000  0.4615250000000 1.0
END
