TITL C-3985244-725-386 0.000655489585800829 125000 -327.823884813321 0 0 60 (C3) n - 1
REM
REM in /home/nfs/bkarasulu/CARBON/AIRSS/Generating-Clusters/TERSOFF/Higher-Symm/Only-C60
REM
REM
REM
REM
REM
REM ./C.cell (28575a23ae977d3b5fae324c64b13b57)
REM
REM compiler GCC version 9.2.1 20190827 (Red Hat 9.2.1-1)
REM options -cpp -mtune=generic -march=x86-64 -g -O0 -fpre-include=/usr/include/finclude/math-vector-fortran.h
REM seed -1429527634 -981261677 233665973 674816062 354732454 -1802979443 346474187 -747117043 508893159 587259430 -1097218521 886439770 764307171 -1772100484 1897886877 -1778757803 827931518 1658758497 1544832747 578620550 -1600784052 -1930903512 -510241324 -1030394654 1738118447 -1652570010 -286882560 -1839084715 1562837938 1126368914 91896075 -1670140485 -7802
REM
CELL 1.54180   50.00000   50.00000   50.00000   90.00000   90.00000   90.00000
LATT -1
SFAC C  
C      1  0.5114890000000  0.4250050000000  0.5051900000000 1.0
C      1  0.5114870000000  0.5419960000000  0.5623490000000 1.0
C      1  0.5114860000000  0.5330000000000  0.4324530000000 1.0
C      1  0.5333150000000  0.4853060000000  0.5116130000000 1.0
C      1  0.5333110000000  0.5173970000000  0.5069190000000 1.0
C      1  0.5333160000000  0.4972900000000  0.4814770000000 1.0
C      1  0.4427840000000  0.4976760000000  0.4712760000000 1.0
C      1  0.4427850000000  0.4762860000000  0.5163770000000 1.0
C      1  0.4427830000000  0.5260390000000  0.5123490000000 1.0
C      1  0.5587830000000  0.4519890000000  0.5121410000000 1.0
C      1  0.5587910000000  0.5345140000000  0.5355040000000 1.0
C      1  0.5587910000000  0.5134870000000  0.4523570000000 1.0
C      1  0.4727150000000  0.5427870000000  0.4686100000000 1.0
C      1  0.4726950000000  0.4514340000000  0.4786380000000 1.0
C      1  0.4726950000000  0.5057850000000  0.5527410000000 1.0
C      1  0.4623110000000  0.4539820000000  0.5576180000000 1.0
C      1  0.4623040000000  0.5729100000000  0.5110410000000 1.0
C      1  0.4623060000000  0.4731110000000  0.4313380000000 1.0
C      1  0.4686420000000  0.4391090000000  0.5103000000000 1.0
C      1  0.4686410000000  0.5393670000000  0.5475800000000 1.0
C      1  0.4686370000000  0.5215260000000  0.4421180000000 1.0
C      1  0.4638720000000  0.4810100000000  0.5689800000000 1.0
C      1  0.4638630000000  0.5692340000000  0.4819560000000 1.0
C      1  0.4638670000000  0.4497560000000  0.4490630000000 1.0
C      1  0.5199620000000  0.5570930000000  0.5049060000000 1.0
C      1  0.5199650000000  0.4757020000000  0.4481030000000 1.0
C      1  0.5199630000000  0.4672100000000  0.5469960000000 1.0
C      1  0.4878340000000  0.4840820000000  0.4198090000000 1.0
C      1  0.4878400000000  0.4385130000000  0.5538810000000 1.0
C      1  0.4878340000000  0.5774080000000  0.5263050000000 1.0
C      1  0.4920060000000  0.4750820000000  0.4885560000000 1.0
C      1  0.4920060000000  0.5025480000000  0.5273010000000 1.0
C      1  0.4920020000000  0.5223660000000  0.4841500000000 1.0
C      1  0.5057190000000  0.4366890000000  0.4785410000000 1.0
C      1  0.5057150000000  0.5130760000000  0.5655590000000 1.0
C      1  0.5056920000000  0.5502410000000  0.4559050000000 1.0
C      1  0.5399020000000  0.5584120000000  0.5277650000000 1.0
C      1  0.5398970000000  0.4948450000000  0.4355320000000 1.0
C      1  0.5398940000000  0.4467440000000  0.5367070000000 1.0
C      1  0.5277680000000  0.4942390000000  0.5587470000000 1.0
C      1  0.5277770000000  0.5537530000000  0.4756130000000 1.0
C      1  0.5277700000000  0.4520100000000  0.4656370000000 1.0
C      1  0.4494110000000  0.5503640000000  0.5266000000000 1.0
C      1  0.4494110000000  0.4978560000000  0.4430830000000 1.0
C      1  0.4494150000000  0.4517810000000  0.5303160000000 1.0
C      1  0.4482540000000  0.5023090000000  0.5286520000000 1.0
C      1  0.4482520000000  0.5236570000000  0.4836750000000 1.0
C      1  0.4482540000000  0.4740320000000  0.4876750000000 1.0
C      1  0.4957560000000  0.5508670000000  0.5385930000000 1.0
C      1  0.4957510000000  0.5079990000000  0.4366490000000 1.0
C      1  0.4957540000000  0.4411350000000  0.5247470000000 1.0
C      1  0.5535700000000  0.4576930000000  0.4811590000000 1.0
C      1  0.5535690000000  0.5048340000000  0.5460610000000 1.0
C      1  0.5535710000000  0.5374710000000  0.4727820000000 1.0
C      1  0.5623360000000  0.4815130000000  0.5260280000000 1.0
C      1  0.5623380000000  0.5317730000000  0.5029910000000 1.0
C      1  0.5623450000000  0.4867030000000  0.4709900000000 1.0
C      1  0.5035990000000  0.4742660000000  0.5193760000000 1.0
C      1  0.5035990000000  0.5296490000000  0.5125950000000 1.0
C      1  0.5035970000000  0.4960880000000  0.4680270000000 1.0
END
