TITL C-3985254-1270-1514 1.96060770117232e-05 125000 -308.877193724684 0 0 60 (C3) n - 1
REM
REM in /home/nfs/bkarasulu/CARBON/AIRSS/Generating-Clusters/TERSOFF/Higher-Symm/Only-C60
REM
REM
REM
REM
REM
REM ./C.cell (28575a23ae977d3b5fae324c64b13b57)
REM
REM compiler GCC version 9.2.1 20190827 (Red Hat 9.2.1-1)
REM options -cpp -mtune=generic -march=x86-64 -g -O0 -fpre-include=/usr/include/finclude/math-vector-fortran.h
REM seed 866212266 -1870861955 1113613656 1514576211 1435901139 -1823313295 -1395720460 959829177 -1856981917 1076460911 -1137251702 -924757872 -1196695814 -346662643 340441266 -549828557 -1280872901 -614412342 293281180 1176866115 -1897224065 315051746 728059597 -1494345142 -270651446 200504873 -18383827 109138562 7040763 890090353 1757586822 288869500 -1460838785
REM
CELL 1.54180   50.00000   50.00000   50.00000   90.00000   90.00000   90.00000
LATT -1
SFAC C  
C      1  0.5201410000000  0.5172930000000  0.4228240000000 1.0
C      1  0.4231040000000  0.5172820000000  0.5211500000000 1.0
C      1  0.5567580000000  0.5172890000000  0.5560290000000 1.0
C      1  0.4581120000000  0.4641500000000  0.4642560000000 1.0
C      1  0.4900060000000  0.4641540000000  0.5541630000000 1.0
C      1  0.5518820000000  0.4641490000000  0.4815900000000 1.0
C      1  0.4755830000000  0.5529190000000  0.4813950000000 1.0
C      1  0.4960980000000  0.5529190000000  0.5304460000000 1.0
C      1  0.5283220000000  0.5529220000000  0.4881540000000 1.0
C      1  0.5430290000000  0.4660520000000  0.5524820000000 1.0
C      1  0.5239380000000  0.4660590000000  0.4364800000000 1.0
C      1  0.4330450000000  0.4660570000000  0.5110310000000 1.0
C      1  0.4709270000000  0.5124190000000  0.5139220000000 1.0
C      1  0.5266010000000  0.5124220000000  0.5182180000000 1.0
C      1  0.5024890000000  0.5124280000000  0.4678440000000 1.0
C      1  0.4773360000000  0.4908840000000  0.4329820000000 1.0
C      1  0.4533080000000  0.4908750000000  0.5531460000000 1.0
C      1  0.5693500000000  0.4908830000000  0.5138780000000 1.0
C      1  0.5393420000000  0.4934850000000  0.5624170000000 1.0
C      1  0.5343840000000  0.4934910000000  0.4347120000000 1.0
C      1  0.4262950000000  0.4934880000000  0.5028700000000 1.0
C      1  0.5763690000000  0.4979340000000  0.4856420000000 1.0
C      1  0.4493770000000  0.4979390000000  0.4410310000000 1.0
C      1  0.4742550000000  0.4979450000000  0.5733340000000 1.0
C      1  0.4904640000000  0.5165680000000  0.4255790000000 1.0
C      1  0.4403280000000  0.5165590000000  0.5454750000000 1.0
C      1  0.5692110000000  0.5165650000000  0.5289500000000 1.0
C      1  0.5252890000000  0.5465760000000  0.5205580000000 1.0
C      1  0.5051630000000  0.5465800000000  0.4678160000000 1.0
C      1  0.4695500000000  0.5465730000000  0.5116210000000 1.0
C      1  0.5343770000000  0.4903970000000  0.4907130000000 1.0
C      1  0.4747860000000  0.4903920000000  0.4748530000000 1.0
C      1  0.4908430000000  0.4903850000000  0.5344160000000 1.0
C      1  0.4957560000000  0.4538480000000  0.4791670000000 1.0
C      1  0.4841200000000  0.4537660000000  0.5141240000000 1.0
C      1  0.5200570000000  0.4539280000000  0.5066580000000 1.0
C      1  0.4957630000000  0.5169780000000  0.5665270000000 1.0
C      1  0.5597440000000  0.5169790000000  0.4704050000000 1.0
C      1  0.4445070000000  0.5169740000000  0.4630580000000 1.0
C      1  0.4373860000000  0.4484510000000  0.4875020000000 1.0
C      1  0.5204870000000  0.4484370000000  0.5605010000000 1.0
C      1  0.5421330000000  0.4484460000000  0.4520190000000 1.0
C      1  0.5351790000000  0.4341420000000  0.4843800000000 1.0
C      1  0.4688750000000  0.4341270000000  0.4773400000000 1.0
C      1  0.4959070000000  0.4340880000000  0.5383660000000 1.0
C      1  0.4360740000000  0.5420420000000  0.5090280000000 1.0
C      1  0.5397730000000  0.5420460000000  0.5508500000000 1.0
C      1  0.5241510000000  0.5420500000000  0.4401220000000 1.0
C      1  0.5158180000000  0.5041460000000  0.5466650000000 1.0
C      1  0.5325150000000  0.5041560000000  0.4629580000000 1.0
C      1  0.4516870000000  0.5041460000000  0.4903580000000 1.0
C      1  0.4822080000000  0.5411060000000  0.4416410000000 1.0
C      1  0.4583610000000  0.5411020000000  0.5445910000000 1.0
C      1  0.5594360000000  0.5411060000000  0.5137710000000 1.0
C      1  0.4862010000000  0.5431570000000  0.5583830000000 1.0
C      1  0.5574690000000  0.5431570000000  0.4827620000000 1.0
C      1  0.4563400000000  0.5431550000000  0.4588510000000 1.0
C      1  0.5477840000000  0.4674930000000  0.5232390000000 1.0
C      1  0.4962280000000  0.4674770000000  0.4469700000000 1.0
C      1  0.4559810000000  0.4674600000000  0.5297900000000 1.0
END
