TITL C-3985245-9316-443 -0.000226195020425301 125000 -326.489490368225 0 0 60 (C2v) n - 1
REM
REM in /home/nfs/bkarasulu/CARBON/AIRSS/Generating-Clusters/TERSOFF/Higher-Symm/Only-C60
REM
REM
REM
REM
REM
REM ./C.cell (28575a23ae977d3b5fae324c64b13b57)
REM
REM compiler GCC version 9.2.1 20190827 (Red Hat 9.2.1-1)
REM options -cpp -mtune=generic -march=x86-64 -g -O0 -fpre-include=/usr/include/finclude/math-vector-fortran.h
REM seed -1215584808 -498268337 1209609874 -188879130 1498330137 -938245763 -250458459 1907881941 -1291907904 -1636478034 -1340660813 1804135437 1328610095 -160631718 898771187 346845218 759608714 694735200 638799504 1380091872 1523259911 -843081458 1639976850 270370838 1659362423 -60584723 425713315 582388363 799537296 1193049834 -327649486 1670759546 2031169477
REM
CELL 1.54180   50.00000   50.00000   50.00000   90.00000   90.00000   90.00000
LATT -1
SFAC C  
C      1  0.5564220000000  0.5153250000000  0.4648970000000 1.0
C      1  0.4435780000000  0.4846750000000  0.4648970000000 1.0
C      1  0.5564220000000  0.4846750000000  0.4648970000000 1.0
C      1  0.4435780000000  0.5153250000000  0.4648970000000 1.0
C      1  0.4637520000000  0.4687700000000  0.4461350000000 1.0
C      1  0.5362480000000  0.5312300000000  0.4461350000000 1.0
C      1  0.4637520000000  0.5312300000000  0.4461350000000 1.0
C      1  0.5362480000000  0.4687700000000  0.4461350000000 1.0
C      1  0.5939020000000  0.4853650000000  0.5301540000000 1.0
C      1  0.4060980000000  0.5146350000000  0.5301540000000 1.0
C      1  0.5939020000000  0.5146350000000  0.5301540000000 1.0
C      1  0.4060980000000  0.4853650000000  0.5301540000000 1.0
C      1  0.4563720000000  0.4848930000000  0.5442820000000 1.0
C      1  0.5436270000000  0.5151070000000  0.5442800000000 1.0
C      1  0.4563730000000  0.5151070000000  0.5442780000000 1.0
C      1  0.5436280000000  0.4848930000000  0.5442810000000 1.0
C      1  0.4855720000000  0.4198510000000  0.5414060000000 1.0
C      1  0.5144280000000  0.5801490000000  0.5414060000000 1.0
C      1  0.4855720000000  0.5801490000000  0.5414060000000 1.0
C      1  0.5144280000000  0.4198510000000  0.5414060000000 1.0
C      1  0.4833940000000  0.4686050000000  0.5297870000000 1.0
C      1  0.5166050000000  0.5313960000000  0.5297870000000 1.0
C      1  0.4833950000000  0.5313960000000  0.5297870000000 1.0
C      1  0.5166050000000  0.4686040000000  0.5297870000000 1.0
C      1  0.4840990000000  0.4332750000000  0.4942850000000 1.0
C      1  0.5159010000000  0.5667250000000  0.4942850000000 1.0
C      1  0.4840990000000  0.5667250000000  0.4942850000000 1.0
C      1  0.5159010000000  0.4332750000000  0.4942850000000 1.0
C      1  0.5282940000000  0.4843640000000  0.5052410000000 1.0
C      1  0.4717050000000  0.5156360000000  0.5052440000000 1.0
C      1  0.5282950000000  0.5156360000000  0.5052420000000 1.0
C      1  0.4717070000000  0.4843640000000  0.5052400000000 1.0
C      1  0.4440460000000  0.5242420000000  0.4959650000000 1.0
C      1  0.5559540000000  0.4757580000000  0.4959650000000 1.0
C      1  0.4440460000000  0.4757580000000  0.4959650000000 1.0
C      1  0.5559540000000  0.5242420000000  0.4959650000000 1.0
C      1  0.4853030000000  0.5169720000000  0.4790540000000 1.0
C      1  0.5146970000000  0.4830280000000  0.4790540000000 1.0
C      1  0.4853030000000  0.4830280000000  0.4790540000000 1.0
C      1  0.5146970000000  0.5169720000000  0.4790540000000 1.0
C      1  0.5282850000000  0.4387390000000  0.5229030000000 1.0
C      1  0.4717150000000  0.5612610000000  0.5229030000000 1.0
C      1  0.5282850000000  0.5612610000000  0.5229030000000 1.0
C      1  0.4717150000000  0.4387390000000  0.5229030000000 1.0
C      1  0.4319570000000  0.5285760000000  0.5257900000000 1.0
C      1  0.5680430000000  0.4714240000000  0.5257900000000 1.0
C      1  0.4319570000000  0.4714240000000  0.5257900000000 1.0
C      1  0.5680430000000  0.5285760000000  0.5257900000000 1.0
C      1  0.4418480000000  0.4422630000000  0.5259880000000 1.0
C      1  0.5581520000000  0.5577370000000  0.5259880000000 1.0
C      1  0.4418480000000  0.5577370000000  0.5259880000000 1.0
C      1  0.5581520000000  0.4422630000000  0.5259880000000 1.0
C      1  0.5180260000000  0.4841500000000  0.4274840000000 1.0
C      1  0.4819740000000  0.5158500000000  0.4274840000000 1.0
C      1  0.5180260000000  0.5158500000000  0.4274840000000 1.0
C      1  0.4819740000000  0.4841500000000  0.4274840000000 1.0
C      1  0.4819470000000  0.4523440000000  0.4666300000000 1.0
C      1  0.5180530000000  0.5476560000000  0.4666300000000 1.0
C      1  0.4819470000000  0.5476560000000  0.4666300000000 1.0
C      1  0.5180530000000  0.4523440000000  0.4666300000000 1.0
END
