TITL C-3985245-9316-168 2.46931289431577e-07 125000 -320.22557986198 0 0 60 (C5) n - 1
REM
REM in /home/nfs/bkarasulu/CARBON/AIRSS/Generating-Clusters/TERSOFF/Higher-Symm/Only-C60
REM
REM
REM
REM
REM
REM ./C.cell (28575a23ae977d3b5fae324c64b13b57)
REM
REM compiler GCC version 9.2.1 20190827 (Red Hat 9.2.1-1)
REM options -cpp -mtune=generic -march=x86-64 -g -O0 -fpre-include=/usr/include/finclude/math-vector-fortran.h
REM seed 1562895720 1817191528 1536499724 -1342036172 1425768655 1434760334 -1278962216 -2006606533 830447660 896200505 150644511 1586511155 1417326867 -937142854 663022875 -440632221 1501513872 -731284604 -47509668 658322557 -1350065250 1231883621 -1286309047 387280546 -1183966749 -1998208234 1595090376 233120491 338947937 1690045513 61205819 -1753710663 -277298483
REM
CELL 1.54180   50.00000   50.00000   50.00000   90.00000   90.00000   90.00000
LATT -1
SFAC C  
C      1  0.5028530000000  0.4681990000000  0.5247290000000 1.0
C      1  0.4773630000000  0.4682000000000  0.5103560000000 1.0
C      1  0.4831550000000  0.4682000000000  0.4816720000000 1.0
C      1  0.5122260000000  0.4681990000000  0.4783160000000 1.0
C      1  0.5244000000000  0.4681990000000  0.5049270000000 1.0
C      1  0.5136790000000  0.5491890000000  0.4502910000000 1.0
C      1  0.5515040000000  0.5491880000000  0.4976480000000 1.0
C      1  0.5181530000000  0.5491890000000  0.5482550000000 1.0
C      1  0.4597170000000  0.5491900000000  0.5321750000000 1.0
C      1  0.4569520000000  0.5491900000000  0.4716300000000 1.0
C      1  0.5299750000000  0.4976220000000  0.5630800000000 1.0
C      1  0.4492700000000  0.4976240000000  0.5480010000000 1.0
C      1  0.4386720000000  0.4976240000000  0.4665860000000 1.0
C      1  0.5128270000000  0.4976220000000  0.4313480000000 1.0
C      1  0.5692560000000  0.4976210000000  0.4909850000000 1.0
C      1  0.4786680000000  0.5004000000000  0.4789270000000 1.0
C      1  0.5134490000000  0.5003990000000  0.4732000000000 1.0
C      1  0.5296440000000  0.5003990000000  0.5045100000000 1.0
C      1  0.5048720000000  0.5004000000000  0.5295870000000 1.0
C      1  0.4733670000000  0.5004000000000  0.5137760000000 1.0
C      1  0.5728120000000  0.5250550000000  0.5038320000000 1.0
C      1  0.5188560000000  0.5250570000000  0.5704320000000 1.0
C      1  0.4388430000000  0.5250580000000  0.5396970000000 1.0
C      1  0.4433480000000  0.5250580000000  0.4541020000000 1.0
C      1  0.5261450000000  0.5250560000000  0.4319370000000 1.0
C      1  0.4582450000000  0.4784110000000  0.4495460000000 1.0
C      1  0.5350820000000  0.4784090000000  0.4446980000000 1.0
C      1  0.5634360000000  0.4784080000000  0.5162760000000 1.0
C      1  0.5041240000000  0.4784100000000  0.5653610000000 1.0
C      1  0.4391120000000  0.4784110000000  0.5241200000000 1.0
C      1  0.5253270000000  0.4496570000000  0.4572430000000 1.0
C      1  0.5484910000000  0.4496560000000  0.5108760000000 1.0
C      1  0.5046400000000  0.4496570000000  0.5494790000000 1.0
C      1  0.4543760000000  0.4496580000000  0.5197040000000 1.0
C      1  0.4671610000000  0.4496580000000  0.4626990000000 1.0
C      1  0.4271550000000  0.5247590000000  0.5110270000000 1.0
C      1  0.4670030000000  0.5247580000000  0.4341270000000 1.0
C      1  0.5524530000000  0.5247560000000  0.4482610000000 1.0
C      1  0.5654150000000  0.5247560000000  0.5338970000000 1.0
C      1  0.4879770000000  0.5247580000000  0.5726880000000 1.0
C      1  0.5464260000000  0.5505530000000  0.4660780000000 1.0
C      1  0.5466090000000  0.5505530000000  0.5336700000000 1.0
C      1  0.4823810000000  0.5505550000000  0.5547320000000 1.0
C      1  0.4425030000000  0.5505560000000  0.5001560000000 1.0
C      1  0.4820850000000  0.5505550000000  0.4453640000000 1.0
C      1  0.4757740000000  0.4262570000000  0.5103820000000 1.0
C      1  0.4826390000000  0.4262570000000  0.4801690000000 1.0
C      1  0.5134940000000  0.4262560000000  0.4773620000000 1.0
C      1  0.5256990000000  0.4262560000000  0.5058400000000 1.0
C      1  0.5023870000000  0.4262570000000  0.5262470000000 1.0
C      1  0.5548750000000  0.4972220000000  0.5422320000000 1.0
C      1  0.4767930000000  0.4972240000000  0.5652400000000 1.0
C      1  0.4307820000000  0.4972250000000  0.4980890000000 1.0
C      1  0.4804280000000  0.4972230000000  0.4335790000000 1.0
C      1  0.5571220000000  0.4972220000000  0.4608610000000 1.0
C      1  0.5084940000000  0.5326730000000  0.5245370000000 1.0
C      1  0.4792890000000  0.5326740000000  0.5156600000000 1.0
C      1  0.4787070000000  0.5326740000000  0.4851410000000 1.0
C      1  0.5075520000000  0.5326730000000  0.4751570000000 1.0
C      1  0.5259610000000  0.5326730000000  0.4995050000000 1.0
END
