TITL C-3985254-1270-122 -0.00137438027994662 125000 -291.070005172598 0 0 60 (C4) n - 1
REM
REM in /home/nfs/bkarasulu/CARBON/AIRSS/Generating-Clusters/TERSOFF/Higher-Symm/Only-C60
REM
REM
REM
REM
REM
REM ./C.cell (28575a23ae977d3b5fae324c64b13b57)
REM
REM compiler GCC version 9.2.1 20190827 (Red Hat 9.2.1-1)
REM options -cpp -mtune=generic -march=x86-64 -g -O0 -fpre-include=/usr/include/finclude/math-vector-fortran.h
REM seed 924387703 607722921 1532525309 508003520 -1542946266 1513349083 114439229 1203412099 925067120 1126881150 -757757963 1113543655 1997796830 1395798994 1845824262 873611680 -1120129530 -1031942805 -943235505 -223370602 949756753 -1040761220 -122523507 -1692827676 -1640736318 -891131601 -1476370576 360699969 -662768468 -264019170 1710466553 -1273222110 221468412
REM
CELL 1.54180   50.00000   50.00000   50.00000   90.00000   90.00000   90.00000
LATT -1
SFAC C  
C      1  0.5044080000000  0.4688650000000  0.4841980000000 1.0
C      1  0.4688650000000  0.4955920000000  0.4841980000000 1.0
C      1  0.4955920000000  0.5311350000000  0.4841980000000 1.0
C      1  0.5311350000000  0.5044080000000  0.4841980000000 1.0
C      1  0.5066750000000  0.5340350000000  0.5617600000000 1.0
C      1  0.5340350000000  0.4933250000000  0.5617600000000 1.0
C      1  0.4933250000000  0.4659650000000  0.5617600000000 1.0
C      1  0.4659650000000  0.5066750000000  0.5617600000000 1.0
C      1  0.4993010000000  0.5212750000000  0.4564050000000 1.0
C      1  0.5212750000000  0.5006990000000  0.4564050000000 1.0
C      1  0.5006990000000  0.4787250000000  0.4564050000000 1.0
C      1  0.4787250000000  0.4993010000000  0.4564050000000 1.0
C      1  0.5247620000000  0.4443770000000  0.4551050000000 1.0
C      1  0.4443770000000  0.4752380000000  0.4551050000000 1.0
C      1  0.4752380000000  0.5556230000000  0.4551050000000 1.0
C      1  0.5556230000000  0.5247620000000  0.4551050000000 1.0
C      1  0.4839940000000  0.4341050000000  0.5362940000000 1.0
C      1  0.4341050000000  0.5160060000000  0.5362940000000 1.0
C      1  0.5160060000000  0.5658950000000  0.5362940000000 1.0
C      1  0.5658950000000  0.4839940000000  0.5362940000000 1.0
C      1  0.4433400000000  0.5182800000000  0.4862600000000 1.0
C      1  0.5182800000000  0.5566600000000  0.4862600000000 1.0
C      1  0.5566600000000  0.4817200000000  0.4862600000000 1.0
C      1  0.4817200000000  0.4433400000000  0.4862600000000 1.0
C      1  0.5164760000000  0.4830310000000  0.5316330000000 1.0
C      1  0.4830310000000  0.4835240000000  0.5316330000000 1.0
C      1  0.4835240000000  0.5169690000000  0.5316330000000 1.0
C      1  0.5169690000000  0.5164760000000  0.5316330000000 1.0
C      1  0.4372280000000  0.4689460000000  0.5105720000000 1.0
C      1  0.4689460000000  0.5627720000000  0.5105720000000 1.0
C      1  0.5627720000000  0.5310540000000  0.5105720000000 1.0
C      1  0.5310540000000  0.4372280000000  0.5105720000000 1.0
C      1  0.4973200000000  0.4537100000000  0.4388250000000 1.0
C      1  0.4537100000000  0.5026800000000  0.4388250000000 1.0
C      1  0.5026800000000  0.5462900000000  0.4388250000000 1.0
C      1  0.5462900000000  0.4973200000000  0.4388250000000 1.0
C      1  0.4855360000000  0.5717230000000  0.4817150000000 1.0
C      1  0.5717230000000  0.5144640000000  0.4817150000000 1.0
C      1  0.5144640000000  0.4282770000000  0.4817150000000 1.0
C      1  0.4282770000000  0.4855360000000  0.4817150000000 1.0
C      1  0.4477660000000  0.4828190000000  0.5404270000000 1.0
C      1  0.4828190000000  0.5522340000000  0.5404270000000 1.0
C      1  0.5522340000000  0.5171810000000  0.5404270000000 1.0
C      1  0.5171810000000  0.4477660000000  0.5404270000000 1.0
C      1  0.5740350000000  0.4758690000000  0.5100770000000 1.0
C      1  0.4758690000000  0.4259650000000  0.5100770000000 1.0
C      1  0.4259650000000  0.5241310000000  0.5100770000000 1.0
C      1  0.5241310000000  0.5740350000000  0.5100770000000 1.0
C      1  0.4534850000000  0.5361200000000  0.5537510000000 1.0
C      1  0.5361200000000  0.5465150000000  0.5537510000000 1.0
C      1  0.5465150000000  0.4638800000000  0.5537510000000 1.0
C      1  0.4638800000000  0.4534850000000  0.5537510000000 1.0
C      1  0.4521320000000  0.5325170000000  0.4566810000000 1.0
C      1  0.5325170000000  0.5478680000000  0.4566810000000 1.0
C      1  0.5478680000000  0.4674830000000  0.4566810000000 1.0
C      1  0.4674830000000  0.4521320000000  0.4566810000000 1.0
C      1  0.4642850000000  0.4695050000000  0.4962980000000 1.0
C      1  0.4695050000000  0.5357150000000  0.4962980000000 1.0
C      1  0.5357150000000  0.5304950000000  0.4962980000000 1.0
C      1  0.5304950000000  0.4642850000000  0.4962980000000 1.0
END
