TITL C-3985259-1859-1101 0.000216322221884451 125000 -310.305592452861 0 0 60 (C2v) n - 1
REM
REM in /home/nfs/bkarasulu/CARBON/AIRSS/Generating-Clusters/TERSOFF/Higher-Symm/Only-C60
REM
REM
REM
REM
REM
REM ./C.cell (28575a23ae977d3b5fae324c64b13b57)
REM
REM compiler GCC version 9.2.1 20190827 (Red Hat 9.2.1-1)
REM options -cpp -mtune=generic -march=x86-64 -g -O0 -fpre-include=/usr/include/finclude/math-vector-fortran.h
REM seed 2025478681 1720812174 2020495842 -2082058139 463908601 -1663810594 1761491563 1043662350 -1972774362 179849930 -614445530 1717025937 -1853751063 1543977070 -1604999874 1331077039 -474009090 -622989268 -1762626580 301894577 3390804 1476719662 -1821667532 2059435609 1462322990 -1214871549 1392676560 -344130723 -588997551 9297665 469750024 -181675896 1901042481
REM
CELL 1.54180   50.00000   50.00000   50.00000   90.00000   90.00000   90.00000
LATT -1
SFAC C  
C      1  0.5174940000000  0.5522870000000  0.4796320000000 1.0
C      1  0.4825030000000  0.4477120000000  0.4796320000000 1.0
C      1  0.5174970000000  0.4477130000000  0.4796320000000 1.0
C      1  0.4825010000000  0.5522880000000  0.4796320000000 1.0
C      1  0.4824530000000  0.5161000000000  0.5569900000000 1.0
C      1  0.5175470000000  0.4839000000000  0.5569900000000 1.0
C      1  0.4824520000000  0.4839000000000  0.5569900000000 1.0
C      1  0.5175470000000  0.5161000000000  0.5569900000000 1.0
C      1  0.4710910000000  0.5597240000000  0.5328260000000 1.0
C      1  0.5289100000000  0.4402770000000  0.5328260000000 1.0
C      1  0.4710910000000  0.4402770000000  0.5328260000000 1.0
C      1  0.5289100000000  0.5597230000000  0.5328260000000 1.0
C      1  0.5144570000000  0.4263090000000  0.5548280000000 1.0
C      1  0.4855430000000  0.5736910000000  0.5548270000000 1.0
C      1  0.5144570000000  0.5736910000000  0.5548280000000 1.0
C      1  0.4855430000000  0.4263090000000  0.5548280000000 1.0
C      1  0.5561490000000  0.5155200000000  0.4621360000000 1.0
C      1  0.4438490000000  0.4844800000000  0.4621360000000 1.0
C      1  0.5561500000000  0.4844800000000  0.4621360000000 1.0
C      1  0.4438520000000  0.5155200000000  0.4621360000000 1.0
C      1  0.5542370000000  0.4747960000000  0.4903060000000 1.0
C      1  0.4457620000000  0.5252040000000  0.4903070000000 1.0
C      1  0.5542390000000  0.5252040000000  0.4903070000000 1.0
C      1  0.4457620000000  0.4747960000000  0.4903070000000 1.0
C      1  0.5542570000000  0.5427830000000  0.5409220000000 1.0
C      1  0.4457440000000  0.4572170000000  0.5409210000000 1.0
C      1  0.5542570000000  0.4572170000000  0.5409220000000 1.0
C      1  0.4457440000000  0.5427830000000  0.5409220000000 1.0
C      1  0.5273400000000  0.4858140000000  0.4189050000000 1.0
C      1  0.4726590000000  0.5141860000000  0.4189050000000 1.0
C      1  0.5273400000000  0.5141870000000  0.4189050000000 1.0
C      1  0.4726590000000  0.4858130000000  0.4189050000000 1.0
C      1  0.4678600000000  0.4714700000000  0.4436650000000 1.0
C      1  0.5321400000000  0.5285300000000  0.4436660000000 1.0
C      1  0.4678610000000  0.5285290000000  0.4436650000000 1.0
C      1  0.5321390000000  0.4714710000000  0.4436650000000 1.0
C      1  0.4493560000000  0.4829170000000  0.5575270000000 1.0
C      1  0.5506430000000  0.5170830000000  0.5575280000000 1.0
C      1  0.4493570000000  0.5170840000000  0.5575280000000 1.0
C      1  0.5506430000000  0.4829170000000  0.5575290000000 1.0
C      1  0.4710950000000  0.4842040000000  0.5057440000000 1.0
C      1  0.5289060000000  0.5157960000000  0.5057440000000 1.0
C      1  0.4710950000000  0.5157960000000  0.5057440000000 1.0
C      1  0.5289060000000  0.4842040000000  0.5057440000000 1.0
C      1  0.5159810000000  0.4305540000000  0.5063080000000 1.0
C      1  0.4840200000000  0.5694460000000  0.5063080000000 1.0
C      1  0.5159810000000  0.5694470000000  0.5063080000000 1.0
C      1  0.4840190000000  0.4305540000000  0.5063080000000 1.0
C      1  0.4839200000000  0.5179250000000  0.4743580000000 1.0
C      1  0.5160810000000  0.4820750000000  0.4743590000000 1.0
C      1  0.4839210000000  0.4820750000000  0.4743590000000 1.0
C      1  0.5160810000000  0.5179250000000  0.4743590000000 1.0
C      1  0.4836300000000  0.4431920000000  0.4476430000000 1.0
C      1  0.5163700000000  0.5568080000000  0.4476430000000 1.0
C      1  0.4836300000000  0.5568080000000  0.4476430000000 1.0
C      1  0.5163700000000  0.4431920000000  0.4476430000000 1.0
C      1  0.5160140000000  0.5309650000000  0.5282080000000 1.0
C      1  0.4839850000000  0.4690350000000  0.5282080000000 1.0
C      1  0.5160140000000  0.4690350000000  0.5282080000000 1.0
C      1  0.4839860000000  0.5309650000000  0.5282080000000 1.0
END
