TITL C-3985251-913-362 0.00036172853295428 125000 -322.59452037099 0 0 60 (Ci) n - 1
REM
REM in /home/nfs/bkarasulu/CARBON/AIRSS/Generating-Clusters/TERSOFF/Higher-Symm/Only-C60
REM
REM
REM
REM
REM
REM ./C.cell (28575a23ae977d3b5fae324c64b13b57)
REM
REM compiler GCC version 9.2.1 20190827 (Red Hat 9.2.1-1)
REM options -cpp -mtune=generic -march=x86-64 -g -O0 -fpre-include=/usr/include/finclude/math-vector-fortran.h
REM seed -356639928 1328228014 -1266029164 764145575 715144642 1490466969 -1386690242 -582188958 -1193890048 -1605191478 -155232415 -693648369 1983140682 -986826549 2073657671 1647878033 -1441221499 -1214753871 -2081222454 2128343560 -510550890 135285156 229102759 291374557 1125793476 -1433419083 -1889352350 852802484 -2040579491 1669893266 -804267266 1214050402 -1570096487
REM
CELL 1.54180   50.00000   50.00000   50.00000   90.00000   90.00000   90.00000
LATT -1
SFAC C  
C      1  0.5626040000000  0.5068330000000  0.4728920000000 1.0
C      1  0.4373960000000  0.4931670000000  0.5271080000000 1.0
C      1  0.5015510000000  0.5238640000000  0.5408890000000 1.0
C      1  0.4984490000000  0.4761360000000  0.4591110000000 1.0
C      1  0.5262240000000  0.4812850000000  0.4559570000000 1.0
C      1  0.4737760000000  0.5187150000000  0.5440430000000 1.0
C      1  0.5663720000000  0.4880210000000  0.5369860000000 1.0
C      1  0.4336280000000  0.5119790000000  0.4630150000000 1.0
C      1  0.4503740000000  0.4444850000000  0.5239070000000 1.0
C      1  0.5496260000000  0.5555160000000  0.4760930000000 1.0
C      1  0.4721250000000  0.4792040000000  0.5060480000000 1.0
C      1  0.5278740000000  0.5207970000000  0.4939510000000 1.0
C      1  0.4703980000000  0.5639070000000  0.5009530000000 1.0
C      1  0.5296020000000  0.4360930000000  0.4990460000000 1.0
C      1  0.5300450000000  0.5058550000000  0.4390960000000 1.0
C      1  0.4699550000000  0.4941450000000  0.5609040000000 1.0
C      1  0.5062040000000  0.5187720000000  0.4246030000000 1.0
C      1  0.4937960000000  0.4812270000000  0.5753970000000 1.0
C      1  0.4437740000000  0.4795920000000  0.5554430000000 1.0
C      1  0.5562260000000  0.5204080000000  0.4445570000000 1.0
C      1  0.5005150000000  0.5795700000000  0.4595620000000 1.0
C      1  0.4994850000000  0.4204310000000  0.5404380000000 1.0
C      1  0.4395540000000  0.4687660000000  0.5090920000000 1.0
C      1  0.5604460000000  0.5312340000000  0.4909090000000 1.0
C      1  0.4945310000000  0.5460390000000  0.4913660000000 1.0
C      1  0.5054700000000  0.4539610000000  0.5086340000000 1.0
C      1  0.5490150000000  0.5112950000000  0.5422940000000 1.0
C      1  0.4509840000000  0.4887050000000  0.4577060000000 1.0
C      1  0.5337880000000  0.5591310000000  0.5249070000000 1.0
C      1  0.4662120000000  0.4408690000000  0.4750930000000 1.0
C      1  0.4233850000000  0.4636970000000  0.4857650000000 1.0
C      1  0.5766160000000  0.5363030000000  0.5142350000000 1.0
C      1  0.5169860000000  0.4788890000000  0.5577270000000 1.0
C      1  0.4830140000000  0.5211100000000  0.4422730000000 1.0
C      1  0.5147590000000  0.4901880000000  0.5053160000000 1.0
C      1  0.4852410000000  0.5098120000000  0.4946840000000 1.0
C      1  0.4431330000000  0.4604230000000  0.4647130000000 1.0
C      1  0.5568670000000  0.5395770000000  0.5352870000000 1.0
C      1  0.4881700000000  0.4618330000000  0.4813040000000 1.0
C      1  0.5118300000000  0.5381670000000  0.5186970000000 1.0
C      1  0.4813150000000  0.4748210000000  0.5358460000000 1.0
C      1  0.5186860000000  0.5251790000000  0.4641530000000 1.0
C      1  0.5421480000000  0.4830360000000  0.4822190000000 1.0
C      1  0.4578520000000  0.5169640000000  0.5177810000000 1.0
C      1  0.5475480000000  0.5508940000000  0.4466790000000 1.0
C      1  0.4524520000000  0.4491060000000  0.5533210000000 1.0
C      1  0.5253390000000  0.5658960000000  0.4905470000000 1.0
C      1  0.4746620000000  0.4341040000000  0.5094530000000 1.0
C      1  0.4480730000000  0.5426340000000  0.5023110000000 1.0
C      1  0.5519270000000  0.4573660000000  0.4976890000000 1.0
C      1  0.5210230000000  0.5016260000000  0.5390140000000 1.0
C      1  0.4789770000000  0.4983740000000  0.4609860000000 1.0
C      1  0.4849350000000  0.4458220000000  0.5491030000000 1.0
C      1  0.5150650000000  0.5541780000000  0.4508970000000 1.0
C      1  0.5250010000000  0.4575580000000  0.5379190000000 1.0
C      1  0.4749990000000  0.5424420000000  0.4620800000000 1.0
C      1  0.4761770000000  0.5817390000000  0.4768560000000 1.0
C      1  0.5238230000000  0.4182620000000  0.5231430000000 1.0
C      1  0.5540000000000  0.4628370000000  0.5275840000000 1.0
C      1  0.4460000000000  0.5371630000000  0.4724160000000 1.0
END
