TITL C-3985259-1859-639 -1.46109965382842e-07 125000 -371.016118246692 0 0 60 (D10) n - 1
REM
REM in /home/nfs/bkarasulu/CARBON/AIRSS/Generating-Clusters/TERSOFF/Higher-Symm/Only-C60
REM
REM
REM
REM
REM
REM ./C.cell (28575a23ae977d3b5fae324c64b13b57)
REM
REM compiler GCC version 9.2.1 20190827 (Red Hat 9.2.1-1)
REM options -cpp -mtune=generic -march=x86-64 -g -O0 -fpre-include=/usr/include/finclude/math-vector-fortran.h
REM seed 964462013 -1830261998 1611038648 317482719 1357527831 654556463 593190217 1019002057 -86301072 2000400992 -1570283597 2066096780 1264332877 146585880 -553117838 541507066 1296167573 1269738167 421330597 -1288829575 -699529030 -1304927125 -1854941553 -249072839 -1024645549 1285358659 -1783287106 235373216 272635202 -95639099 -1713038536 396391701 -422594941
REM
CELL 1.54180   50.00000   50.00000   50.00000   90.00000   90.00000   90.00000
LATT -1
SFAC C  
C      1  0.4407600000000  0.4853440000000  0.5576760000000 1.0
C      1  0.4181720000000  0.4853450000000  0.5118400000000 1.0
C      1  0.4268400000000  0.4853450000000  0.4614810000000 1.0
C      1  0.4634530000000  0.4853450000000  0.4258360000000 1.0
C      1  0.5140250000000  0.4853450000000  0.4185180000000 1.0
C      1  0.5592400000000  0.4853440000000  0.4423240000000 1.0
C      1  0.5818280000000  0.4853450000000  0.4881600000000 1.0
C      1  0.5731600000000  0.4853450000000  0.5385190000000 1.0
C      1  0.5365470000000  0.4853450000000  0.5741640000000 1.0
C      1  0.4859750000000  0.4853450000000  0.5814820000000 1.0
C      1  0.4639450000000  0.4512110000000  0.4629670000000 1.0
C      1  0.4925980000000  0.4512110000000  0.4488480000000 1.0
C      1  0.5240780000000  0.4512110000000  0.4542670000000 1.0
C      1  0.5463610000000  0.4512110000000  0.4771540000000 1.0
C      1  0.5509360000000  0.4512110000000  0.5087680000000 1.0
C      1  0.5360550000000  0.4512110000000  0.5370330000000 1.0
C      1  0.5074020000000  0.4512110000000  0.5511520000000 1.0
C      1  0.4759220000000  0.4512110000000  0.5457330000000 1.0
C      1  0.4536390000000  0.4512110000000  0.5228460000000 1.0
C      1  0.4490640000000  0.4512110000000  0.4912320000000 1.0
C      1  0.4759220000000  0.5487890000000  0.5457330000000 1.0
C      1  0.4536390000000  0.5487890000000  0.5228460000000 1.0
C      1  0.4490640000000  0.5487890000000  0.4912320000000 1.0
C      1  0.4639450000000  0.5487890000000  0.4629670000000 1.0
C      1  0.4925980000000  0.5487890000000  0.4488480000000 1.0
C      1  0.5240780000000  0.5487890000000  0.4542670000000 1.0
C      1  0.5463610000000  0.5487890000000  0.4771540000000 1.0
C      1  0.5509360000000  0.5487890000000  0.5087680000000 1.0
C      1  0.5360550000000  0.5487890000000  0.5370330000000 1.0
C      1  0.5074020000000  0.5487890000000  0.5511520000000 1.0
C      1  0.4634530000000  0.5146550000000  0.4258360000000 1.0
C      1  0.5140250000000  0.5146550000000  0.4185180000000 1.0
C      1  0.5592400000000  0.5146550000000  0.4423240000000 1.0
C      1  0.5818280000000  0.5146550000000  0.4881600000000 1.0
C      1  0.5731600000000  0.5146560000000  0.5385180000000 1.0
C      1  0.5365470000000  0.5146550000000  0.5741640000000 1.0
C      1  0.4859750000000  0.5146550000000  0.5814820000000 1.0
C      1  0.4407600000000  0.5146550000000  0.5576760000000 1.0
C      1  0.4181720000000  0.5146550000000  0.5118400000000 1.0
C      1  0.4268400000000  0.5146560000000  0.4614820000000 1.0
C      1  0.5351510000000  0.4711530000000  0.4332360000000 1.0
C      1  0.5676800000000  0.4711530000000  0.4666480000000 1.0
C      1  0.5743590000000  0.4711530000000  0.5128000000000 1.0
C      1  0.5526350000000  0.4711530000000  0.5540620000000 1.0
C      1  0.5108060000000  0.4711530000000  0.5746740000000 1.0
C      1  0.4648490000000  0.4711530000000  0.5667640000000 1.0
C      1  0.4323200000000  0.4711530000000  0.5333520000000 1.0
C      1  0.4256410000000  0.4711530000000  0.4872000000000 1.0
C      1  0.4473650000000  0.4711530000000  0.4459380000000 1.0
C      1  0.4891940000000  0.4711530000000  0.4253260000000 1.0
C      1  0.5108050000000  0.5288470000000  0.5746750000000 1.0
C      1  0.4648490000000  0.5288470000000  0.5667640000000 1.0
C      1  0.4323190000000  0.5288470000000  0.5333520000000 1.0
C      1  0.4256410000000  0.5288470000000  0.4872010000000 1.0
C      1  0.4473650000000  0.5288470000000  0.4459380000000 1.0
C      1  0.4891950000000  0.5288470000000  0.4253250000000 1.0
C      1  0.5351510000000  0.5288470000000  0.4332360000000 1.0
C      1  0.5676810000000  0.5288470000000  0.4666480000000 1.0
C      1  0.5743590000000  0.5288470000000  0.5127990000000 1.0
C      1  0.5526350000000  0.5288470000000  0.5540620000000 1.0
END
