TITL C-3985259-1859-683 -0.0030321530127392 125000 -317.029723976919 0 0 60 (C1) n - 1
REM
REM in /home/nfs/bkarasulu/CARBON/AIRSS/Generating-Clusters/TERSOFF/Higher-Symm/Only-C60
REM
REM
REM
REM
REM
REM ./C.cell (28575a23ae977d3b5fae324c64b13b57)
REM
REM compiler GCC version 9.2.1 20190827 (Red Hat 9.2.1-1)
REM options -cpp -mtune=generic -march=x86-64 -g -O0 -fpre-include=/usr/include/finclude/math-vector-fortran.h
REM seed 1843129221 -2089716679 -567760924 -1991031543 78680684 -1456700169 636526276 -756913706 -389014159 -98361691 -1196103087 456758900 573826593 652321988 -1768818500 -1033894042 1317641790 1529874391 1490299495 -2142518185 -1367848299 -1631487799 -426858473 562102451 -957026948 641467787 528195147 1663975532 836926715 -1518491021 -528576494 -574572031 893387783
REM
CELL 1.54180   50.00000   50.00000   50.00000   90.00000   90.00000   90.00000
LATT -1
SFAC C  
C      1  0.5074390000000  0.5711490000000  0.5065320000000 1.0
C      1  0.4348290000000  0.4712860000000  0.5058810000000 1.0
C      1  0.5573830000000  0.4577870000000  0.5058330000000 1.0
C      1  0.5410550000000  0.5407630000000  0.5324000000000 1.0
C      1  0.4440810000000  0.5149190000000  0.5321030000000 1.0
C      1  0.5147620000000  0.4438460000000  0.5330170000000 1.0
C      1  0.4253040000000  0.5138250000000  0.4636400000000 1.0
C      1  0.5259020000000  0.4281260000000  0.4647580000000 1.0
C      1  0.5500570000000  0.5578200000000  0.4630770000000 1.0
C      1  0.4384750000000  0.4826020000000  0.5357840000000 1.0
C      1  0.5457620000000  0.4560340000000  0.5354470000000 1.0
C      1  0.5149850000000  0.5607070000000  0.5355590000000 1.0
C      1  0.5019720000000  0.5506340000000  0.4658550000000 1.0
C      1  0.4566810000000  0.4768170000000  0.4630560000000 1.0
C      1  0.5392400000000  0.4756220000000  0.4657070000000 1.0
C      1  0.4523990000000  0.5572660000000  0.4669120000000 1.0
C      1  0.4744800000000  0.4299090000000  0.4676570000000 1.0
C      1  0.5736010000000  0.5126100000000  0.4662750000000 1.0
C      1  0.4733500000000  0.5060030000000  0.5370490000000 1.0
C      1  0.5076090000000  0.4734640000000  0.5366400000000 1.0
C      1  0.5190030000000  0.5189200000000  0.5362540000000 1.0
C      1  0.4882210000000  0.4809900000000  0.4611320000000 1.0
C      1  0.5170700000000  0.4996360000000  0.4655270000000 1.0
C      1  0.4927940000000  0.5223560000000  0.4664520000000 1.0
C      1  0.4934790000000  0.4803820000000  0.5666490000000 1.0
C      1  0.5198980000000  0.5040080000000  0.5664180000000 1.0
C      1  0.4861830000000  0.5152230000000  0.5670150000000 1.0
C      1  0.4973490000000  0.4597250000000  0.4419210000000 1.0
C      1  0.5324730000000  0.5161340000000  0.4437670000000 1.0
C      1  0.4704930000000  0.5197080000000  0.4460750000000 1.0
C      1  0.4921670000000  0.5272720000000  0.5236180000000 1.0
C      1  0.4790720000000  0.4779570000000  0.5262170000000 1.0
C      1  0.5283840000000  0.4921070000000  0.5227760000000 1.0
C      1  0.5416500000000  0.5362080000000  0.5007040000000 1.0
C      1  0.4515200000000  0.5164620000000  0.5004810000000 1.0
C      1  0.5093270000000  0.4504300000000  0.5015430000000 1.0
C      1  0.5664330000000  0.4848650000000  0.4591950000000 1.0
C      1  0.4791460000000  0.5683920000000  0.4597690000000 1.0
C      1  0.4524710000000  0.4477500000000  0.4587540000000 1.0
C      1  0.4830940000000  0.5116540000000  0.4954350000000 1.0
C      1  0.4927420000000  0.4798740000000  0.4955000000000 1.0
C      1  0.5250380000000  0.5099630000000  0.4956780000000 1.0
C      1  0.5353140000000  0.4506850000000  0.4833340000000 1.0
C      1  0.5261420000000  0.5594420000000  0.4828920000000 1.0
C      1  0.4383950000000  0.4930300000000  0.4822810000000 1.0
C      1  0.5666170000000  0.5156210000000  0.4947630000000 1.0
C      1  0.4554760000000  0.5476110000000  0.4946180000000 1.0
C      1  0.4807460000000  0.4378270000000  0.4951890000000 1.0
C      1  0.4998480000000  0.4318460000000  0.4508360000000 1.0
C      1  0.5565760000000  0.5318470000000  0.4506320000000 1.0
C      1  0.4440660000000  0.5328570000000  0.4506620000000 1.0
C      1  0.4544350000000  0.5423050000000  0.5464700000000 1.0
C      1  0.4857520000000  0.4394070000000  0.5478420000000 1.0
C      1  0.5596070000000  0.5180790000000  0.5468380000000 1.0
C      1  0.4862530000000  0.5466710000000  0.5520090000000 1.0
C      1  0.4640920000000  0.4643610000000  0.5534820000000 1.0
C      1  0.5477460000000  0.4879950000000  0.5517380000000 1.0
C      1  0.5589980000000  0.4896080000000  0.5104940000000 1.0
C      1  0.4810260000000  0.5542710000000  0.5104860000000 1.0
C      1  0.4615380000000  0.4553280000000  0.5113760000000 1.0
END
