TITL C-3985253-1688-461 -6.44466508931605e-05 125000 -321.880017053039 0 0 60 (D4h) n - 1
REM
REM in /home/nfs/bkarasulu/CARBON/AIRSS/Generating-Clusters/TERSOFF/Higher-Symm/Only-C60
REM
REM
REM
REM
REM
REM ./C.cell (28575a23ae977d3b5fae324c64b13b57)
REM
REM compiler GCC version 9.2.1 20190827 (Red Hat 9.2.1-1)
REM options -cpp -mtune=generic -march=x86-64 -g -O0 -fpre-include=/usr/include/finclude/math-vector-fortran.h
REM seed -1021032338 -1517488875 1778762137 -585722470 839732029 -1557325161 419782049 -1047871412 -1994398197 950447015 791029554 -1792161759 1292495781 -344552236 -600857313 809059054 -1098096274 -1215904141 -2035251411 1108616088 -131867197 -583911453 -1705205692 -469675910 53578429 -116301253 1558729564 1568014622 -794399116 1771561471 -560871690 -1669051335 455787542
REM
CELL 1.54180   50.00000   50.00000   50.00000   90.00000   90.00000   90.00000
LATT -1
SFAC C  
C      1  0.5064730000000  0.4381390000000  0.5221150000000 1.0
C      1  0.4381390000000  0.4935270000000  0.5221150000000 1.0
C      1  0.4935270000000  0.5618610000000  0.5221150000000 1.0
C      1  0.5618610000000  0.5064730000000  0.5221150000000 1.0
C      1  0.5064730000000  0.4381390000000  0.4744270000000 1.0
C      1  0.4381390000000  0.4935270000000  0.4744270000000 1.0
C      1  0.4935270000000  0.5618610000000  0.4744270000000 1.0
C      1  0.5618610000000  0.5064730000000  0.4744270000000 1.0
C      1  0.5109030000000  0.4798040000000  0.4772750000000 1.0
C      1  0.4798050000000  0.4890970000000  0.4772750000000 1.0
C      1  0.4890970000000  0.5201960000000  0.4772750000000 1.0
C      1  0.5201960000000  0.5109030000000  0.4772750000000 1.0
C      1  0.5109030000000  0.4798040000000  0.5192660000000 1.0
C      1  0.4798050000000  0.4890970000000  0.5192660000000 1.0
C      1  0.4890970000000  0.5201950000000  0.5192660000000 1.0
C      1  0.5201960000000  0.5109030000000  0.5192660000000 1.0
C      1  0.4794970000000  0.4313860000000  0.4834810000000 1.0
C      1  0.4313860000000  0.5205030000000  0.4834810000000 1.0
C      1  0.5205030000000  0.5686140000000  0.4834810000000 1.0
C      1  0.5686140000000  0.4794970000000  0.4834810000000 1.0
C      1  0.4794960000000  0.4313860000000  0.5130610000000 1.0
C      1  0.4313860000000  0.5205040000000  0.5130610000000 1.0
C      1  0.5205040000000  0.5686140000000  0.5130610000000 1.0
C      1  0.5686140000000  0.4794960000000  0.5130610000000 1.0
C      1  0.4925760000000  0.4751560000000  0.5597020000000 1.0
C      1  0.4751560000000  0.5074240000000  0.5597020000000 1.0
C      1  0.5074240000000  0.5248440000000  0.5597020000000 1.0
C      1  0.5248440000000  0.4925760000000  0.5597020000000 1.0
C      1  0.4925750000000  0.4751560000000  0.4368400000000 1.0
C      1  0.4751560000000  0.5074250000000  0.4368400000000 1.0
C      1  0.5074250000000  0.5248440000000  0.4368400000000 1.0
C      1  0.5248440000000  0.4925750000000  0.4368400000000 1.0
C      1  0.5104060000000  0.4493790000000  0.4471640000000 1.0
C      1  0.4493790000000  0.4895940000000  0.4471640000000 1.0
C      1  0.4895940000000  0.5506210000000  0.4471640000000 1.0
C      1  0.5506210000000  0.5104060000000  0.4471640000000 1.0
C      1  0.5104060000000  0.4493790000000  0.5493780000000 1.0
C      1  0.4493790000000  0.4895940000000  0.5493780000000 1.0
C      1  0.4895940000000  0.5506210000000  0.5493780000000 1.0
C      1  0.5506210000000  0.5104060000000  0.5493780000000 1.0
C      1  0.4518330000000  0.5393520000000  0.5221150000000 1.0
C      1  0.5393520000000  0.5481670000000  0.5221150000000 1.0
C      1  0.5481670000000  0.4606480000000  0.5221150000000 1.0
C      1  0.4606480000000  0.4518330000000  0.5221150000000 1.0
C      1  0.4518330000000  0.5393520000000  0.4744270000000 1.0
C      1  0.5393520000000  0.5481670000000  0.4744270000000 1.0
C      1  0.5481670000000  0.4606480000000  0.4744270000000 1.0
C      1  0.4606480000000  0.4518330000000  0.4744270000000 1.0
C      1  0.4635260000000  0.4633870000000  0.5493780000000 1.0
C      1  0.4633870000000  0.5364740000000  0.5493780000000 1.0
C      1  0.5364740000000  0.5366130000000  0.5493780000000 1.0
C      1  0.5366130000000  0.4635260000000  0.5493780000000 1.0
C      1  0.4635260000000  0.4633870000000  0.4471640000000 1.0
C      1  0.4633870000000  0.5364740000000  0.4471640000000 1.0
C      1  0.5364740000000  0.5366130000000  0.4471640000000 1.0
C      1  0.5366130000000  0.4635260000000  0.4471640000000 1.0
C      1  0.5246600000000  0.4543220000000  0.4982710000000 1.0
C      1  0.4543220000000  0.4753400000000  0.4982710000000 1.0
C      1  0.4753400000000  0.5456780000000  0.4982710000000 1.0
C      1  0.5456780000000  0.5246600000000  0.4982710000000 1.0
END
