TITL C-3985254-1270-794 -0.000689027834163071 125000 -321.432312518332 0 0 60 (C1) n - 1
REM
REM in /home/nfs/bkarasulu/CARBON/AIRSS/Generating-Clusters/TERSOFF/Higher-Symm/Only-C60
REM
REM
REM
REM
REM
REM ./C.cell (28575a23ae977d3b5fae324c64b13b57)
REM
REM compiler GCC version 9.2.1 20190827 (Red Hat 9.2.1-1)
REM options -cpp -mtune=generic -march=x86-64 -g -O0 -fpre-include=/usr/include/finclude/math-vector-fortran.h
REM seed 1251421173 -369755376 -1425954875 -814815719 -471593973 124626933 2034296318 874099652 1678263093 -1836812451 23743254 -529202811 1951059195 1400313781 481530286 -913125687 692184907 687803138 432742610 -271381189 -814426691 915232653 1733345804 1445860135 -915906538 1698729789 -1123515817 1570990558 -1275449992 92379025 -1741215002 -375805443 1869170446
REM
CELL 1.54180   50.00000   50.00000   50.00000   90.00000   90.00000   90.00000
LATT -1
SFAC C  
C      1  0.4769140000000  0.4466930000000  0.4511740000000 1.0
C      1  0.4439490000000  0.5053160000000  0.4513970000000 1.0
C      1  0.4886920000000  0.5551150000000  0.4537580000000 1.0
C      1  0.5482180000000  0.5271430000000  0.4533980000000 1.0
C      1  0.5446490000000  0.4606290000000  0.4503210000000 1.0
C      1  0.5230300000000  0.4885870000000  0.4819970000000 1.0
C      1  0.4954530000000  0.4755920000000  0.4893440000000 1.0
C      1  0.4739430000000  0.4961920000000  0.4915840000000 1.0
C      1  0.4861260000000  0.5232990000000  0.4909430000000 1.0
C      1  0.5156220000000  0.5221560000000  0.4817870000000 1.0
C      1  0.5288440000000  0.4994180000000  0.4478930000000 1.0
C      1  0.5135750000000  0.4687720000000  0.4364540000000 1.0
C      1  0.4783640000000  0.4779360000000  0.4369290000000 1.0
C      1  0.4742470000000  0.5139650000000  0.4391500000000 1.0
C      1  0.5067180000000  0.5279970000000  0.4470940000000 1.0
C      1  0.5476970000000  0.5222440000000  0.5233750000000 1.0
C      1  0.5357740000000  0.4611720000000  0.5237740000000 1.0
C      1  0.4734750000000  0.4538090000000  0.5246950000000 1.0
C      1  0.4474630000000  0.5108920000000  0.5253130000000 1.0
C      1  0.4936740000000  0.5530000000000  0.5246850000000 1.0
C      1  0.4747430000000  0.4896900000000  0.5716390000000 1.0
C      1  0.4828860000000  0.5207400000000  0.5709770000000 1.0
C      1  0.5146210000000  0.5225490000000  0.5699110000000 1.0
C      1  0.5262180000000  0.4932190000000  0.5696370000000 1.0
C      1  0.5018400000000  0.4730180000000  0.5702820000000 1.0
C      1  0.4472700000000  0.4690400000000  0.5281100000000 1.0
C      1  0.4536450000000  0.5406600000000  0.5282610000000 1.0
C      1  0.5237300000000  0.5565820000000  0.5270970000000 1.0
C      1  0.5605570000000  0.4949120000000  0.5264820000000 1.0
C      1  0.5132810000000  0.4408090000000  0.5271680000000 1.0
C      1  0.4430350000000  0.4901620000000  0.5010040000000 1.0
C      1  0.4716190000000  0.5512700000000  0.5014500000000 1.0
C      1  0.5397250000000  0.5421810000000  0.4996060000000 1.0
C      1  0.5509010000000  0.4750630000000  0.4992030000000 1.0
C      1  0.4920050000000  0.4443510000000  0.5001600000000 1.0
C      1  0.5164680000000  0.4825800000000  0.5302460000000 1.0
C      1  0.4879800000000  0.4788910000000  0.5310940000000 1.0
C      1  0.4755220000000  0.5051270000000  0.5326250000000 1.0
C      1  0.4968590000000  0.5247060000000  0.5316070000000 1.0
C      1  0.5218170000000  0.5106310000000  0.5302810000000 1.0
C      1  0.5619860000000  0.5252650000000  0.4801900000000 1.0
C      1  0.5423970000000  0.4502150000000  0.4784110000000 1.0
C      1  0.4662130000000  0.4448370000000  0.4790370000000 1.0
C      1  0.4367940000000  0.5149670000000  0.4788380000000 1.0
C      1  0.4946310000000  0.5671340000000  0.4807550000000 1.0
C      1  0.5156740000000  0.4364970000000  0.4788060000000 1.0
C      1  0.4446380000000  0.4656300000000  0.4789710000000 1.0
C      1  0.4495350000000  0.5422230000000  0.4789280000000 1.0
C      1  0.5251650000000  0.5629990000000  0.4789950000000 1.0
C      1  0.5674940000000  0.4950760000000  0.4795730000000 1.0
C      1  0.4656700000000  0.5427250000000  0.5569060000000 1.0
C      1  0.5299860000000  0.5457250000000  0.5557220000000 1.0
C      1  0.5526840000000  0.4858200000000  0.5552210000000 1.0
C      1  0.5025470000000  0.4456220000000  0.5558670000000 1.0
C      1  0.4486530000000  0.4806910000000  0.5568900000000 1.0
C      1  0.4463790000000  0.4760080000000  0.4507590000000 1.0
C      1  0.4613550000000  0.5441540000000  0.4513110000000 1.0
C      1  0.5308960000000  0.5519680000000  0.4510180000000 1.0
C      1  0.5605840000000  0.4866380000000  0.4510990000000 1.0
C      1  0.5055720000000  0.4396960000000  0.4507980000000 1.0
END
