TITL C-3985254-1270-1538 -0.00233067903628321 125000 -357.44459245828 0 0 60 (C4) n - 1
REM
REM in /home/nfs/bkarasulu/CARBON/AIRSS/Generating-Clusters/TERSOFF/Higher-Symm/Only-C60
REM
REM
REM
REM
REM
REM ./C.cell (28575a23ae977d3b5fae324c64b13b57)
REM
REM compiler GCC version 9.2.1 20190827 (Red Hat 9.2.1-1)
REM options -cpp -mtune=generic -march=x86-64 -g -O0 -fpre-include=/usr/include/finclude/math-vector-fortran.h
REM seed -758064781 -1717402295 1926596821 2141177906 -897009432 12506689 1740878562 250113182 1096720025 -1865289360 -820402526 1934209010 -400001492 -948923300 1125260538 -441559078 -1235099583 1849820883 -1026270375 1014190516 -1025997457 643389465 104768935 -1793515527 -132659093 53991045 400777478 -192250966 1241902762 -968671747 -1216100527 -1609442689 707715948
REM
CELL 1.54180   50.00000   50.00000   50.00000   90.00000   90.00000   90.00000
LATT -1
SFAC C  
C      1  0.4703350000000  0.5256760000000  0.5601780000000 1.0
C      1  0.4703340000000  0.5601780000000  0.4743240000000 1.0
C      1  0.4703340000000  0.4743240000000  0.4398220000000 1.0
C      1  0.4703340000000  0.4398220000000  0.5256760000000 1.0
C      1  0.5299420000000  0.5250010000000  0.4391830000000 1.0
C      1  0.5299420000000  0.5608170000000  0.5250010000000 1.0
C      1  0.5299430000000  0.4749990000000  0.5608170000000 1.0
C      1  0.5299420000000  0.4391830000000  0.4749990000000 1.0
C      1  0.4854550000000  0.5478090000000  0.4512270000000 1.0
C      1  0.4854540000000  0.4512270000000  0.4521910000000 1.0
C      1  0.4854540000000  0.4521910000000  0.5487730000000 1.0
C      1  0.4854540000000  0.5487730000000  0.5478090000000 1.0
C      1  0.5147050000000  0.5485220000000  0.5481330000000 1.0
C      1  0.5147050000000  0.4518670000000  0.5485220000000 1.0
C      1  0.5147050000000  0.4514780000000  0.4518670000000 1.0
C      1  0.5147050000000  0.5481330000000  0.4514780000000 1.0
C      1  0.5543950000000  0.4812810000000  0.5419920000000 1.0
C      1  0.5543950000000  0.5419920000000  0.5187200000000 1.0
C      1  0.5543920000000  0.5187180000000  0.4580100000000 1.0
C      1  0.5544170000000  0.4579920000000  0.4812630000000 1.0
C      1  0.4469910000000  0.4818470000000  0.4586180000000 1.0
C      1  0.4469910000000  0.5413820000000  0.4818470000000 1.0
C      1  0.4469910000000  0.5181530000000  0.5413820000000 1.0
C      1  0.4469910000000  0.4586190000000  0.5181520000000 1.0
C      1  0.5256260000000  0.4785050000000  0.5038730000000 1.0
C      1  0.5256280000000  0.5038770000000  0.5215010000000 1.0
C      1  0.5256290000000  0.5215010000000  0.4961220000000 1.0
C      1  0.5256320000000  0.4961220000000  0.4784960000000 1.0
C      1  0.4739820000000  0.4793180000000  0.4935480000000 1.0
C      1  0.4739820000000  0.5064530000000  0.4793160000000 1.0
C      1  0.4739810000000  0.5206840000000  0.5064530000000 1.0
C      1  0.4739820000000  0.4935470000000  0.5206840000000 1.0
C      1  0.5508510000000  0.5384400000000  0.4855930000000 1.0
C      1  0.5508500000000  0.4855930000000  0.4615610000000 1.0
C      1  0.5508510000000  0.4615590000000  0.5144070000000 1.0
C      1  0.5508520000000  0.5144070000000  0.5384410000000 1.0
C      1  0.4487520000000  0.5379460000000  0.5145150000000 1.0
C      1  0.4487520000000  0.4854850000000  0.5379460000000 1.0
C      1  0.4487520000000  0.4620540000000  0.4854850000000 1.0
C      1  0.4487520000000  0.5145150000000  0.4620540000000 1.0
C      1  0.5294410000000  0.4404330000000  0.5243920000000 1.0
C      1  0.5294410000000  0.5243920000000  0.5595670000000 1.0
C      1  0.5294410000000  0.5595670000000  0.4756080000000 1.0
C      1  0.5294410000000  0.4756080000000  0.4404330000000 1.0
C      1  0.4706440000000  0.4402700000000  0.4765470000000 1.0
C      1  0.4706440000000  0.5234530000000  0.4402700000000 1.0
C      1  0.4706440000000  0.5597300000000  0.5234530000000 1.0
C      1  0.4706450000000  0.4765460000000  0.5597300000000 1.0
C      1  0.5152610000000  0.5721340000000  0.4994870000000 1.0
C      1  0.5152610000000  0.4994880000000  0.4278660000000 1.0
C      1  0.5152610000000  0.4278640000000  0.5005130000000 1.0
C      1  0.5152600000000  0.5005120000000  0.5721320000000 1.0
C      1  0.4848870000000  0.5720800000000  0.4990700000000 1.0
C      1  0.4848780000000  0.5009350000000  0.5721020000000 1.0
C      1  0.4848870000000  0.4279210000000  0.5009300000000 1.0
C      1  0.4848860000000  0.4990690000000  0.4279190000000 1.0
C      1  0.5000130000000  0.4932560000000  0.5337240000000 1.0
C      1  0.5000250000000  0.4662770000000  0.4932460000000 1.0
C      1  0.5000250000000  0.5337200000000  0.5067530000000 1.0
C      1  0.5000240000000  0.5067520000000  0.4662790000000 1.0
END
