TITL C-3985245-9316-295 -4.05934452063035e-07 125000 -372.533085698846 0 0 60 (D6h) n - 1
REM
REM in /home/nfs/bkarasulu/CARBON/AIRSS/Generating-Clusters/TERSOFF/Higher-Symm/Only-C60
REM
REM
REM
REM
REM
REM ./C.cell (28575a23ae977d3b5fae324c64b13b57)
REM
REM compiler GCC version 9.2.1 20190827 (Red Hat 9.2.1-1)
REM options -cpp -mtune=generic -march=x86-64 -g -O0 -fpre-include=/usr/include/finclude/math-vector-fortran.h
REM seed 183578470 574236288 1145439625 1495518983 390365160 -207064136 256964085 -2025680152 -244756036 2083104412 1519578778 1785021490 1604768130 -1834274355 -1564382487 1532928128 257043201 -800118049 -1156401498 613030843 1256427187 579231448 -86855284 1414651496 97488331 -1171722968 919701374 -1475016881 -505555030 2023009383 -2123880332 -1210330016 -251440117
REM
CELL 1.54180   50.00000   50.00000   50.00000   90.00000   90.00000   90.00000
LATT -1
SFAC C  
C      1  0.5358260000000  0.4174060000000  0.4669160000000 1.0
C      1  0.4892610000000  0.4174060000000  0.4524310000000 1.0
C      1  0.4534350000000  0.4174060000000  0.4855160000000 1.0
C      1  0.4641740000000  0.4174060000000  0.5330840000000 1.0
C      1  0.5107390000000  0.4174060000000  0.5475690000000 1.0
C      1  0.5465650000000  0.4174060000000  0.5144840000000 1.0
C      1  0.5358260000000  0.5825940000000  0.4669160000000 1.0
C      1  0.4892610000000  0.5825940000000  0.4524310000000 1.0
C      1  0.4534350000000  0.5825940000000  0.4855160000000 1.0
C      1  0.4641740000000  0.5825940000000  0.5330840000000 1.0
C      1  0.5107390000000  0.5825940000000  0.5475690000000 1.0
C      1  0.5465650000000  0.5825940000000  0.5144840000000 1.0
C      1  0.5352640000000  0.5292870000000  0.4674350000000 1.0
C      1  0.4894300000000  0.5292870000000  0.4531780000000 1.0
C      1  0.4541660000000  0.5292870000000  0.4857430000000 1.0
C      1  0.4647360000000  0.5292870000000  0.5325650000000 1.0
C      1  0.5105700000000  0.5292870000000  0.5468220000000 1.0
C      1  0.5458340000000  0.5292870000000  0.5142570000000 1.0
C      1  0.5352640000000  0.4707130000000  0.4674350000000 1.0
C      1  0.4894300000000  0.4707130000000  0.4531780000000 1.0
C      1  0.4541660000000  0.4707130000000  0.4857430000000 1.0
C      1  0.4647360000000  0.4707130000000  0.5325650000000 1.0
C      1  0.5105700000000  0.4707130000000  0.5468220000000 1.0
C      1  0.5458340000000  0.4707130000000  0.5142570000000 1.0
C      1  0.4846820000000  0.4038980000000  0.5492470000000 1.0
C      1  0.5349900000000  0.4038980000000  0.5378890000000 1.0
C      1  0.5503080000000  0.4038980000000  0.4886430000000 1.0
C      1  0.5153180000000  0.4038980000000  0.4507530000000 1.0
C      1  0.4650100000000  0.4038980000000  0.4621110000000 1.0
C      1  0.4496920000000  0.4038980000000  0.5113570000000 1.0
C      1  0.4846820000000  0.5961020000000  0.5492470000000 1.0
C      1  0.5349900000000  0.5961020000000  0.5378890000000 1.0
C      1  0.5503080000000  0.5961020000000  0.4886430000000 1.0
C      1  0.5153180000000  0.5961020000000  0.4507530000000 1.0
C      1  0.4650100000000  0.5961020000000  0.4621110000000 1.0
C      1  0.4496920000000  0.5961020000000  0.5113570000000 1.0
C      1  0.4761330000000  0.5560330000000  0.5220400000000 1.0
C      1  0.5071540000000  0.5560330000000  0.5316890000000 1.0
C      1  0.5310210000000  0.5560330000000  0.5096490000000 1.0
C      1  0.5238670000000  0.5560330000000  0.4779600000000 1.0
C      1  0.4928460000000  0.5560330000000  0.4683110000000 1.0
C      1  0.4689790000000  0.5560330000000  0.4903510000000 1.0
C      1  0.4761330000000  0.4439670000000  0.5220400000000 1.0
C      1  0.5071540000000  0.4439670000000  0.5316890000000 1.0
C      1  0.5310210000000  0.4439670000000  0.5096490000000 1.0
C      1  0.5238670000000  0.4439670000000  0.4779600000000 1.0
C      1  0.4928460000000  0.4439670000000  0.4683110000000 1.0
C      1  0.4689790000000  0.4439670000000  0.4903510000000 1.0
C      1  0.4503940000000  0.4853810000000  0.5111990000000 1.0
C      1  0.4848950000000  0.4853810000000  0.5485600000000 1.0
C      1  0.5345020000000  0.4853810000000  0.5373610000000 1.0
C      1  0.5496060000000  0.4853810000000  0.4888010000000 1.0
C      1  0.5151050000000  0.4853810000000  0.4514400000000 1.0
C      1  0.4654980000000  0.4853810000000  0.4626390000000 1.0
C      1  0.4503940000000  0.5146190000000  0.5111990000000 1.0
C      1  0.4848950000000  0.5146190000000  0.5485600000000 1.0
C      1  0.5345020000000  0.5146190000000  0.5373610000000 1.0
C      1  0.5496060000000  0.5146190000000  0.4888010000000 1.0
C      1  0.5151050000000  0.5146190000000  0.4514400000000 1.0
C      1  0.4654980000000  0.5146190000000  0.4626390000000 1.0
END
