TITL C-3985245-9316-1044 -0.000282904736774926 125000 -284.817094450872 0 0 60 (S4) n - 1
REM
REM in /home/nfs/bkarasulu/CARBON/AIRSS/Generating-Clusters/TERSOFF/Higher-Symm/Only-C60
REM
REM
REM
REM
REM
REM ./C.cell (28575a23ae977d3b5fae324c64b13b57)
REM
REM compiler GCC version 9.2.1 20190827 (Red Hat 9.2.1-1)
REM options -cpp -mtune=generic -march=x86-64 -g -O0 -fpre-include=/usr/include/finclude/math-vector-fortran.h
REM seed -1090181377 -2122420976 -1293770520 -577550588 1447748369 829885155 529136741 -1401088060 1557820167 -916990307 874695965 -618162092 -1427537008 -355809028 -154707348 1692696207 1457479567 -1273532407 2111202003 1455972075 -700903208 1420479376 -707333502 1990498732 1217994184 1738203911 1801630207 -732571344 -557516944 1793922087 175911937 -1391391028 1770810693
REM
CELL 1.54180   50.00000   50.00000   50.00000   90.00000   90.00000   90.00000
LATT -1
SFAC C  
C      1  0.5186950000000  0.4570250000000  0.5637670000000 1.0
C      1  0.4813060000000  0.5637670000000  0.5429750000000 1.0
C      1  0.5186950000000  0.5429750000000  0.4362330000000 1.0
C      1  0.4813060000000  0.4362330000000  0.4570250000000 1.0
C      1  0.4758560000000  0.5091790000000  0.4761710000000 1.0
C      1  0.5241440000000  0.4761710000000  0.4908200000000 1.0
C      1  0.4758560000000  0.4908210000000  0.5238290000000 1.0
C      1  0.5241450000000  0.5238290000000  0.5091810000000 1.0
C      1  0.5219040000000  0.4342880000000  0.4831370000000 1.0
C      1  0.4780960000000  0.4831370000000  0.5657120000000 1.0
C      1  0.5219040000000  0.5657120000000  0.5168630000000 1.0
C      1  0.4780960000000  0.5168630000000  0.4342880000000 1.0
C      1  0.5546860000000  0.4446190000000  0.4896000000000 1.0
C      1  0.4453140000000  0.4896000000000  0.5553810000000 1.0
C      1  0.5546870000000  0.5553810000000  0.5104000000000 1.0
C      1  0.4453140000000  0.5104000000000  0.4446190000000 1.0
C      1  0.5443070000000  0.4647620000000  0.5475790000000 1.0
C      1  0.4556920000000  0.5475780000000  0.5352400000000 1.0
C      1  0.5443070000000  0.5352380000000  0.4524210000000 1.0
C      1  0.4556930000000  0.4524210000000  0.4647610000000 1.0
C      1  0.5492540000000  0.5020880000000  0.4582800000000 1.0
C      1  0.4507460000000  0.4582800000000  0.4979130000000 1.0
C      1  0.5492540000000  0.4979120000000  0.5417200000000 1.0
C      1  0.4507460000000  0.5417190000000  0.5020870000000 1.0
C      1  0.5065070000000  0.5166690000000  0.4717530000000 1.0
C      1  0.4934920000000  0.4717550000000  0.4833310000000 1.0
C      1  0.5065070000000  0.4833310000000  0.5282450000000 1.0
C      1  0.4934920000000  0.5282450000000  0.5166690000000 1.0
C      1  0.5495390000000  0.5107650000000  0.4891850000000 1.0
C      1  0.4504610000000  0.4891850000000  0.4892350000000 1.0
C      1  0.5495390000000  0.4892350000000  0.5108150000000 1.0
C      1  0.4504610000000  0.5108150000000  0.5107650000000 1.0
C      1  0.4577660000000  0.5339960000000  0.4675410000000 1.0
C      1  0.5422340000000  0.4675410000000  0.4660050000000 1.0
C      1  0.4577660000000  0.4660040000000  0.5324580000000 1.0
C      1  0.5422340000000  0.5324590000000  0.5339950000000 1.0
C      1  0.4852260000000  0.4520540000000  0.5509630000000 1.0
C      1  0.5147730000000  0.5509640000000  0.5479460000000 1.0
C      1  0.4852260000000  0.5479460000000  0.4490360000000 1.0
C      1  0.5147730000000  0.4490360000000  0.4520540000000 1.0
C      1  0.5217570000000  0.4538850000000  0.5138890000000 1.0
C      1  0.4782440000000  0.5138890000000  0.5461160000000 1.0
C      1  0.5217570000000  0.5461150000000  0.4861110000000 1.0
C      1  0.4782440000000  0.4861110000000  0.4538840000000 1.0
C      1  0.4483090000000  0.4765400000000  0.4465930000000 1.0
C      1  0.5516910000000  0.4465920000000  0.5234600000000 1.0
C      1  0.4483090000000  0.5234600000000  0.5534070000000 1.0
C      1  0.5516910000000  0.5534080000000  0.4765400000000 1.0
C      1  0.4802370000000  0.4476740000000  0.4984950000000 1.0
C      1  0.5197630000000  0.4984950000000  0.5523260000000 1.0
C      1  0.4802370000000  0.5523260000000  0.5015040000000 1.0
C      1  0.5197640000000  0.5015060000000  0.4476740000000 1.0
C      1  0.4950690000000  0.4431400000000  0.5240910000000 1.0
C      1  0.5049310000000  0.5240910000000  0.5568600000000 1.0
C      1  0.4950690000000  0.5568590000000  0.4759090000000 1.0
C      1  0.5049310000000  0.4759090000000  0.4431400000000 1.0
C      1  0.4910440000000  0.4226830000000  0.4827430000000 1.0
C      1  0.5089560000000  0.4827430000000  0.5773170000000 1.0
C      1  0.4910440000000  0.5773170000000  0.5172570000000 1.0
C      1  0.5089560000000  0.5172570000000  0.4226830000000 1.0
END
