TITL C-3985256-5419-130 -0.00186688574979196 125000 -305.311891270397 0 0 60 (C2) n - 1
REM
REM in /home/nfs/bkarasulu/CARBON/AIRSS/Generating-Clusters/TERSOFF/Higher-Symm/Only-C60
REM
REM
REM
REM
REM
REM ./C.cell (28575a23ae977d3b5fae324c64b13b57)
REM
REM compiler GCC version 9.2.1 20190827 (Red Hat 9.2.1-1)
REM options -cpp -mtune=generic -march=x86-64 -g -O0 -fpre-include=/usr/include/finclude/math-vector-fortran.h
REM seed 447321095 -2015113102 422788011 1454297073 1204867452 -2071462381 148827689 906474884 188247273 1381847997 512853932 1427893400 -130597367 217475473 294646381 -1088701681 -2010717674 -1978638396 -1889341026 1379448618 -360132273 -417775824 744483552 1875998036 445146331 -1598179145 -339888377 2119311689 835988458 -2012326175 -1027210401 -460830337 -461689922
REM
CELL 1.54180   50.00000   50.00000   50.00000   90.00000   90.00000   90.00000
LATT -1
SFAC C  
C      1  0.4697300000000  0.5401340000000  0.5647830000000 1.0
C      1  0.4697300000000  0.4598660000000  0.4352170000000 1.0
C      1  0.4288210000000  0.4843650000000  0.4908870000000 1.0
C      1  0.4288210000000  0.5156350000000  0.5091130000000 1.0
C      1  0.4601510000000  0.4884230000000  0.4393820000000 1.0
C      1  0.4601510000000  0.5115770000000  0.5606180000000 1.0
C      1  0.5327200000000  0.4872590000000  0.5216440000000 1.0
C      1  0.5327200000000  0.5127410000000  0.4783560000000 1.0
C      1  0.4345600000000  0.4769360000000  0.5246970000000 1.0
C      1  0.4345600000000  0.5230640000000  0.4753030000000 1.0
C      1  0.5085980000000  0.4700780000000  0.5069440000000 1.0
C      1  0.5085980000000  0.5299220000000  0.4930560000000 1.0
C      1  0.4999490000000  0.4404100000000  0.4925950000000 1.0
C      1  0.4999490000000  0.5595900000000  0.5074050000000 1.0
C      1  0.5349240000000  0.5437030000000  0.4634100000000 1.0
C      1  0.5349240000000  0.4562970000000  0.5365900000000 1.0
C      1  0.5457280000000  0.4928940000000  0.4567750000000 1.0
C      1  0.5457280000000  0.5071060000000  0.5432250000000 1.0
C      1  0.4772020000000  0.5669130000000  0.4845850000000 1.0
C      1  0.4772020000000  0.4330870000000  0.5154150000000 1.0
C      1  0.5461190000000  0.5413800000000  0.5376500000000 1.0
C      1  0.5461190000000  0.4586200000000  0.4623500000000 1.0
C      1  0.4841390000000  0.4777170000000  0.5235570000000 1.0
C      1  0.4841390000000  0.5222830000000  0.4764430000000 1.0
C      1  0.5098060000000  0.5145380000000  0.5200090000000 1.0
C      1  0.5098060000000  0.4854620000000  0.4799910000000 1.0
C      1  0.5664700000000  0.4649820000000  0.5324980000000 1.0
C      1  0.5664700000000  0.5350180000000  0.4675020000000 1.0
C      1  0.4626350000000  0.4467550000000  0.4744310000000 1.0
C      1  0.4626350000000  0.5532450000000  0.5255690000000 1.0
C      1  0.5079740000000  0.5515610000000  0.4437700000000 1.0
C      1  0.5079740000000  0.4484390000000  0.5562300000000 1.0
C      1  0.4363310000000  0.5033460000000  0.5421020000000 1.0
C      1  0.4363310000000  0.4966540000000  0.4578980000000 1.0
C      1  0.5030010000000  0.5714300000000  0.4672680000000 1.0
C      1  0.5030010000000  0.4285700000000  0.5327320000000 1.0
C      1  0.4797100000000  0.5067850000000  0.5152140000000 1.0
C      1  0.4797100000000  0.4932150000000  0.4847860000000 1.0
C      1  0.5696830000000  0.4684920000000  0.4811270000000 1.0
C      1  0.5696830000000  0.5315080000000  0.5188730000000 1.0
C      1  0.4858310000000  0.5340640000000  0.4334560000000 1.0
C      1  0.4858310000000  0.4659360000000  0.5665440000000 1.0
C      1  0.5459840000000  0.4339940000000  0.4843540000000 1.0
C      1  0.5459840000000  0.5660060000000  0.5156460000000 1.0
C      1  0.4850710000000  0.5047730000000  0.4351140000000 1.0
C      1  0.4850710000000  0.4952270000000  0.5648860000000 1.0
C      1  0.4608840000000  0.5407630000000  0.4786910000000 1.0
C      1  0.4608840000000  0.4592370000000  0.5213090000000 1.0
C      1  0.5132630000000  0.4663460000000  0.4562930000000 1.0
C      1  0.5132630000000  0.5336540000000  0.5437070000000 1.0
C      1  0.4900850000000  0.4440250000000  0.4580980000000 1.0
C      1  0.4900850000000  0.5559750000000  0.5419020000000 1.0
C      1  0.5090560000000  0.4880160000000  0.4353430000000 1.0
C      1  0.5090560000000  0.5119840000000  0.5646570000000 1.0
C      1  0.5287760000000  0.4334420000000  0.5105430000000 1.0
C      1  0.5287760000000  0.5665580000000  0.4894570000000 1.0
C      1  0.4579260000000  0.5295950000000  0.5095270000000 1.0
C      1  0.4579260000000  0.4704050000000  0.4904730000000 1.0
C      1  0.5648700000000  0.5154140000000  0.4950590000000 1.0
C      1  0.5648700000000  0.4845860000000  0.5049410000000 1.0
END
