TITL C-3985244-725-159 9.86415475374362e-05 125000 -332.483935649647 0 0 60 (C1) n - 1
REM
REM in /home/nfs/bkarasulu/CARBON/AIRSS/Generating-Clusters/TERSOFF/Higher-Symm/Only-C60
REM
REM
REM
REM
REM
REM ./C.cell (28575a23ae977d3b5fae324c64b13b57)
REM
REM compiler GCC version 9.2.1 20190827 (Red Hat 9.2.1-1)
REM options -cpp -mtune=generic -march=x86-64 -g -O0 -fpre-include=/usr/include/finclude/math-vector-fortran.h
REM seed -1351726725 1735236911 -1563852067 1479680845 221195205 -1879915123 -1244509166 1778809299 2110983532 1153514689 -222591862 297212118 -1173192680 -1667649868 1832721430 176017361 -790969319 -1340064035 723890417 -1291970278 -1345562116 341984237 1334363202 1602523850 -522302993 -428133907 -1595623161 -1759489354 -1830750986 1396455570 -446574221 -1088116607 2097533529
REM
CELL 1.54180   50.00000   50.00000   50.00000   90.00000   90.00000   90.00000
LATT -1
SFAC C  
C      1  0.4748820000000  0.5111770000000  0.4407340000000 1.0
C      1  0.5521200000000  0.5411110000000  0.4963470000000 1.0
C      1  0.4842230000000  0.5756780000000  0.4820930000000 1.0
C      1  0.5226000000000  0.4623880000000  0.5255640000000 1.0
C      1  0.4330460000000  0.4647480000000  0.4736070000000 1.0
C      1  0.4841850000000  0.4804870000000  0.5473430000000 1.0
C      1  0.4453640000000  0.5092430000000  0.4778210000000 1.0
C      1  0.5053270000000  0.5399470000000  0.4331200000000 1.0
C      1  0.4844420000000  0.5494940000000  0.5573670000000 1.0
C      1  0.4495600000000  0.5376740000000  0.4876110000000 1.0
C      1  0.5104730000000  0.4692430000000  0.4414260000000 1.0
C      1  0.4375560000000  0.5157910000000  0.5310540000000 1.0
C      1  0.4932080000000  0.4297550000000  0.4791560000000 1.0
C      1  0.4664910000000  0.5556480000000  0.4694210000000 1.0
C      1  0.5390860000000  0.4610970000000  0.4850240000000 1.0
C      1  0.4979640000000  0.5201900000000  0.5201390000000 1.0
C      1  0.5441510000000  0.4848150000000  0.5366450000000 1.0
C      1  0.5280940000000  0.5277680000000  0.5625260000000 1.0
C      1  0.5284130000000  0.4925350000000  0.4325840000000 1.0
C      1  0.4303880000000  0.4878480000000  0.4925070000000 1.0
C      1  0.4952420000000  0.5008960000000  0.4642710000000 1.0
C      1  0.5350080000000  0.4788170000000  0.5677290000000 1.0
C      1  0.4501360000000  0.4981550000000  0.4495050000000 1.0
C      1  0.4897780000000  0.4996590000000  0.5709580000000 1.0
C      1  0.4463510000000  0.4597570000000  0.5259310000000 1.0
C      1  0.4845770000000  0.4991270000000  0.4139550000000 1.0
C      1  0.4884700000000  0.4323530000000  0.5256640000000 1.0
C      1  0.5120440000000  0.5138770000000  0.4190220000000 1.0
C      1  0.5294310000000  0.5731850000000  0.5391410000000 1.0
C      1  0.5189270000000  0.5026740000000  0.5769700000000 1.0
C      1  0.5073130000000  0.4689890000000  0.4737390000000 1.0
C      1  0.5261270000000  0.5160970000000  0.5344810000000 1.0
C      1  0.5335240000000  0.4390330000000  0.5074970000000 1.0
C      1  0.5000010000000  0.4532010000000  0.5462860000000 1.0
C      1  0.5723240000000  0.5059270000000  0.5331390000000 1.0
C      1  0.4762580000000  0.5423880000000  0.4438810000000 1.0
C      1  0.5124000000000  0.5218350000000  0.4737410000000 1.0
C      1  0.4446990000000  0.4886760000000  0.5194950000000 1.0
C      1  0.5080010000000  0.4234700000000  0.5042040000000 1.0
C      1  0.5057380000000  0.5628850000000  0.4969450000000 1.0
C      1  0.5414980000000  0.5230990000000  0.4700290000000 1.0
C      1  0.5826960000000  0.4872160000000  0.4969880000000 1.0
C      1  0.4786760000000  0.5415100000000  0.5298690000000 1.0
C      1  0.4719630000000  0.4912720000000  0.4850130000000 1.0
C      1  0.5522750000000  0.5261840000000  0.5222190000000 1.0
C      1  0.4806300000000  0.4935990000000  0.5170620000000 1.0
C      1  0.4828230000000  0.4707370000000  0.4285740000000 1.0
C      1  0.4557470000000  0.4656130000000  0.4498480000000 1.0
C      1  0.4653730000000  0.4441170000000  0.5106050000000 1.0
C      1  0.5325570000000  0.5680850000000  0.5088480000000 1.0
C      1  0.5561700000000  0.4782450000000  0.5059650000000 1.0
C      1  0.4756030000000  0.5256340000000  0.5732890000000 1.0
C      1  0.4512880000000  0.5391410000000  0.5185880000000 1.0
C      1  0.5200330000000  0.4532420000000  0.5690800000000 1.0
C      1  0.5503200000000  0.4995760000000  0.4516900000000 1.0
C      1  0.4737810000000  0.4557760000000  0.4787180000000 1.0
C      1  0.5147750000000  0.5545230000000  0.5589630000000 1.0
C      1  0.5047110000000  0.4755090000000  0.5059980000000 1.0
C      1  0.5029120000000  0.5350350000000  0.4957810000000 1.0
C      1  0.5582470000000  0.4742490000000  0.4642300000000 1.0
END
