TITL C-3985259-1859-1099 6.6347887923212e-08 125000 -317.138159303698 0 0 60 (Td) n - 1
REM
REM in /home/nfs/bkarasulu/CARBON/AIRSS/Generating-Clusters/TERSOFF/Higher-Symm/Only-C60
REM
REM
REM
REM
REM
REM ./C.cell (28575a23ae977d3b5fae324c64b13b57)
REM
REM compiler GCC version 9.2.1 20190827 (Red Hat 9.2.1-1)
REM options -cpp -mtune=generic -march=x86-64 -g -O0 -fpre-include=/usr/include/finclude/math-vector-fortran.h
REM seed -987444092 1385276407 1751510118 445220741 -1678326123 -381353390 2014495000 -290413686 -467429105 -562054662 -199367580 -358599973 -262451476 -351811129 725259351 -1753253675 1588012791 -501119880 -1009863858 476669022 -1577373218 1575552823 2081024813 1349702437 -89362005 979810142 147369719 -570314018 -1875379540 -1785363111 -1748575759 -962753607 1017611069
REM
CELL 1.54180   50.00000   50.00000   50.00000   90.00000   90.00000   90.00000
LATT -1
SFAC C  
C      1  0.5265140000000  0.5714800000000  0.5489740000000 1.0
C      1  0.5714800000000  0.5489740000000  0.5265140000000 1.0
C      1  0.5489740000000  0.5265140000000  0.5714800000000 1.0
C      1  0.4734860000000  0.5714800000000  0.4510260000000 1.0
C      1  0.4734860000000  0.4285200000000  0.5489740000000 1.0
C      1  0.5265140000000  0.4285200000000  0.4510260000000 1.0
C      1  0.4285200000000  0.5489740000000  0.4734860000000 1.0
C      1  0.4285200000000  0.4510260000000  0.5265140000000 1.0
C      1  0.5714800000000  0.4510260000000  0.4734860000000 1.0
C      1  0.4510260000000  0.5265140000000  0.4285200000000 1.0
C      1  0.4510260000000  0.4734860000000  0.5714800000000 1.0
C      1  0.5489740000000  0.4734860000000  0.4285200000000 1.0
C      1  0.5489740000000  0.5714800000000  0.5265140000000 1.0
C      1  0.5265140000000  0.5489740000000  0.5714800000000 1.0
C      1  0.5714800000000  0.5265140000000  0.5489740000000 1.0
C      1  0.4510260000000  0.5714800000000  0.4734860000000 1.0
C      1  0.5489740000000  0.4285200000000  0.4734860000000 1.0
C      1  0.4510260000000  0.4285200000000  0.5265140000000 1.0
C      1  0.4734860000000  0.5489740000000  0.4285200000000 1.0
C      1  0.5265140000000  0.4510260000000  0.4285200000000 1.0
C      1  0.4734860000000  0.4510260000000  0.5714800000000 1.0
C      1  0.4285200000000  0.5265140000000  0.4510260000000 1.0
C      1  0.5714800000000  0.4734860000000  0.4510260000000 1.0
C      1  0.4285200000000  0.4734860000000  0.5489740000000 1.0
C      1  0.4702830000000  0.5068930000000  0.4475850000000 1.0
C      1  0.5068930000000  0.4475850000000  0.4702830000000 1.0
C      1  0.4475850000000  0.4702830000000  0.5068930000000 1.0
C      1  0.5297170000000  0.5068930000000  0.5524150000000 1.0
C      1  0.5297170000000  0.4931070000000  0.4475850000000 1.0
C      1  0.4702830000000  0.4931070000000  0.5524150000000 1.0
C      1  0.4931070000000  0.4475850000000  0.5297170000000 1.0
C      1  0.4931070000000  0.5524150000000  0.4702830000000 1.0
C      1  0.5068930000000  0.5524150000000  0.5297170000000 1.0
C      1  0.5524150000000  0.4702830000000  0.4931070000000 1.0
C      1  0.5524150000000  0.5297170000000  0.5068930000000 1.0
C      1  0.4475850000000  0.5297170000000  0.4931070000000 1.0
C      1  0.4475850000000  0.5068930000000  0.4702830000000 1.0
C      1  0.4702830000000  0.4475850000000  0.5068930000000 1.0
C      1  0.5068930000000  0.4702830000000  0.4475850000000 1.0
C      1  0.5524150000000  0.5068930000000  0.5297170000000 1.0
C      1  0.4475850000000  0.4931070000000  0.5297170000000 1.0
C      1  0.5524150000000  0.4931070000000  0.4702830000000 1.0
C      1  0.5297170000000  0.4475850000000  0.4931070000000 1.0
C      1  0.4702830000000  0.5524150000000  0.4931070000000 1.0
C      1  0.5297170000000  0.5524150000000  0.5068930000000 1.0
C      1  0.4931070000000  0.4702830000000  0.5524150000000 1.0
C      1  0.5068930000000  0.5297170000000  0.5524150000000 1.0
C      1  0.4931070000000  0.5297170000000  0.4475850000000 1.0
C      1  0.4806310000000  0.5605520000000  0.5193690000000 1.0
C      1  0.4394480000000  0.5193690000000  0.5193690000000 1.0
C      1  0.5193690000000  0.5605520000000  0.4806310000000 1.0
C      1  0.5193690000000  0.4394480000000  0.5193690000000 1.0
C      1  0.4806310000000  0.5193690000000  0.5605520000000 1.0
C      1  0.5605520000000  0.5193690000000  0.4806310000000 1.0
C      1  0.5193690000000  0.4806310000000  0.5605520000000 1.0
C      1  0.5605520000000  0.4806310000000  0.5193690000000 1.0
C      1  0.4806310000000  0.4394480000000  0.4806310000000 1.0
C      1  0.5193690000000  0.5193690000000  0.4394480000000 1.0
C      1  0.4394480000000  0.4806310000000  0.4806310000000 1.0
C      1  0.4806310000000  0.4806310000000  0.4394480000000 1.0
END
