TITL C-3985254-1270-976 0.00130302913333227 125000 -301.269907946034 0 0 60 (C1) n - 1
REM
REM in /home/nfs/bkarasulu/CARBON/AIRSS/Generating-Clusters/TERSOFF/Higher-Symm/Only-C60
REM
REM
REM
REM
REM
REM ./C.cell (28575a23ae977d3b5fae324c64b13b57)
REM
REM compiler GCC version 9.2.1 20190827 (Red Hat 9.2.1-1)
REM options -cpp -mtune=generic -march=x86-64 -g -O0 -fpre-include=/usr/include/finclude/math-vector-fortran.h
REM seed 300907966 -661548108 520403697 -1984666312 1696326766 -864631198 -556376944 -254704772 1060199918 2129168262 -487068111 1202327880 936416730 840958014 939668543 1872802856 2126925762 1839787773 -1882134939 75448668 -1764303277 -1846906022 584877030 339818360 1261618348 -696364036 365365514 238639134 -1535827726 356711410 -208664805 -2112526136 247883458
REM
CELL 1.54180   50.00000   50.00000   50.00000   90.00000   90.00000   90.00000
LATT -1
SFAC C  
C      1  0.4662960000000  0.5145560000000  0.4603120000000 1.0
C      1  0.4714150000000  0.5513680000000  0.5036780000000 1.0
C      1  0.4708220000000  0.5116040000000  0.5479680000000 1.0
C      1  0.4709700000000  0.4571860000000  0.5256450000000 1.0
C      1  0.4665850000000  0.4674200000000  0.4702080000000 1.0
C      1  0.5340680000000  0.4873300000000  0.4660600000000 1.0
C      1  0.5329890000000  0.4644390000000  0.5014090000000 1.0
C      1  0.5327450000000  0.4916090000000  0.5342450000000 1.0
C      1  0.5327540000000  0.5308910000000  0.5186840000000 1.0
C      1  0.5340130000000  0.5279610000000  0.4765420000000 1.0
C      1  0.5364940000000  0.5308970000000  0.5484450000000 1.0
C      1  0.5366700000000  0.4633710000000  0.5431530000000 1.0
C      1  0.5363020000000  0.4470100000000  0.4776910000000 1.0
C      1  0.5371880000000  0.5046980000000  0.4417710000000 1.0
C      1  0.5368410000000  0.5566390000000  0.4858390000000 1.0
C      1  0.4651700000000  0.4667470000000  0.5527880000000 1.0
C      1  0.4645310000000  0.5404220000000  0.5479730000000 1.0
C      1  0.4646730000000  0.5601920000000  0.4764100000000 1.0
C      1  0.4643240000000  0.4966920000000  0.4358190000000 1.0
C      1  0.4642000000000  0.4419560000000  0.4846650000000 1.0
C      1  0.4511320000000  0.4715560000000  0.4444990000000 1.0
C      1  0.4513510000000  0.5396230000000  0.4611950000000 1.0
C      1  0.4515760000000  0.5509510000000  0.5245940000000 1.0
C      1  0.4510590000000  0.4917120000000  0.5549800000000 1.0
C      1  0.4503220000000  0.4440890000000  0.5098300000000 1.0
C      1  0.5530970000000  0.5271490000000  0.4515850000000 1.0
C      1  0.5526260000000  0.4628870000000  0.4592340000000 1.0
C      1  0.5524040000000  0.4511020000000  0.5221270000000 1.0
C      1  0.5523940000000  0.5070510000000  0.5534990000000 1.0
C      1  0.5525370000000  0.5539570000000  0.5102950000000 1.0
C      1  0.4912150000000  0.4314420000000  0.4897200000000 1.0
C      1  0.4919880000000  0.4894720000000  0.4289050000000 1.0
C      1  0.4920770000000  0.5643530000000  0.4671640000000 1.0
C      1  0.4921090000000  0.5501260000000  0.5475300000000 1.0
C      1  0.4924180000000  0.4702730000000  0.5619630000000 1.0
C      1  0.5112760000000  0.5692520000000  0.4898990000000 1.0
C      1  0.5117830000000  0.5115730000000  0.4295110000000 1.0
C      1  0.5106750000000  0.4384890000000  0.4680570000000 1.0
C      1  0.5108440000000  0.4520270000000  0.5463740000000 1.0
C      1  0.5110080000000  0.5308250000000  0.5611020000000 1.0
C      1  0.5010040000000  0.4793260000000  0.4690460000000 1.0
C      1  0.4990020000000  0.4676980000000  0.5092220000000 1.0
C      1  0.5007640000000  0.5210740000000  0.4688000000000 1.0
C      1  0.4984740000000  0.5338610000000  0.5083760000000 1.0
C      1  0.4982040000000  0.5011720000000  0.5341690000000 1.0
C      1  0.5013280000000  0.4001670000000  0.5324510000000 1.0
C      1  0.5016020000000  0.5002240000000  0.6054420000000 1.0
C      1  0.5010730000000  0.6011400000000  0.5321820000000 1.0
C      1  0.5012950000000  0.5607710000000  0.4158060000000 1.0
C      1  0.5015720000000  0.4400610000000  0.4162340000000 1.0
C      1  0.5004530000000  0.4579160000000  0.4407260000000 1.0
C      1  0.5013960000000  0.5000780000000  0.5760390000000 1.0
C      1  0.5012080000000  0.5435670000000  0.4409190000000 1.0
C      1  0.5008120000000  0.4278010000000  0.5227600000000 1.0
C      1  0.5015350000000  0.5733270000000  0.5230870000000 1.0
C      1  0.4396060000000  0.4990010000000  0.5032950000000 1.0
C      1  0.5720550000000  0.5002800000000  0.4999810000000 1.0
C      1  0.5410710000000  0.5004000000000  0.4995850000000 1.0
C      1  0.4627710000000  0.4955640000000  0.4859560000000 1.0
C      1  0.4926900000000  0.5003600000000  0.4983500000000 1.0
END
