TITL C-3985253-1688-490 -0.0135795795953705 125000 -331.813278240719 0 0 60 (C2) n - 1
REM
REM in /home/nfs/bkarasulu/CARBON/AIRSS/Generating-Clusters/TERSOFF/Higher-Symm/Only-C60
REM
REM
REM
REM
REM
REM ./C.cell (28575a23ae977d3b5fae324c64b13b57)
REM
REM compiler GCC version 9.2.1 20190827 (Red Hat 9.2.1-1)
REM options -cpp -mtune=generic -march=x86-64 -g -O0 -fpre-include=/usr/include/finclude/math-vector-fortran.h
REM seed -256615333 1572181406 -1124324796 -388650705 894793656 1525007441 1902808401 -2003268081 1970716401 -1071176138 -619032249 2129837496 1382614654 1936960520 1215020234 -277831418 1742534949 -465580868 -2060306039 1361274284 -1442926250 -1534940959 2138775648 1736417897 -56339880 1982326703 -620371628 -1596917696 -50534249 1769181954 -1182719365 842173747 1035990638
REM
CELL 1.54180   50.00000   50.00000   50.00000   90.00000   90.00000   90.00000
LATT -1
SFAC C  
C      1  0.4542840000000  0.4353200000000  0.5063360000000 1.0
C      1  0.5457160000000  0.5646800000000  0.5063360000000 1.0
C      1  0.4508440000000  0.5561190000000  0.4770760000000 1.0
C      1  0.5491560000000  0.4438810000000  0.4770760000000 1.0
C      1  0.5372370000000  0.5037120000000  0.5067100000000 1.0
C      1  0.4627630000000  0.4962880000000  0.5067100000000 1.0
C      1  0.4356950000000  0.4742470000000  0.4785960000000 1.0
C      1  0.5643050000000  0.5257530000000  0.4785960000000 1.0
C      1  0.5228180000000  0.5598010000000  0.5585050000000 1.0
C      1  0.4771820000000  0.4401990000000  0.5585050000000 1.0
C      1  0.5008340000000  0.5255530000000  0.4770070000000 1.0
C      1  0.4991650000000  0.4744470000000  0.4770070000000 1.0
C      1  0.5213210000000  0.5183430000000  0.5445260000000 1.0
C      1  0.4786790000000  0.4816570000000  0.5445260000000 1.0
C      1  0.5019680000000  0.5558570000000  0.4835770000000 1.0
C      1  0.4980320000000  0.4441430000000  0.4835770000000 1.0
C      1  0.5219560000000  0.4417320000000  0.4637700000000 1.0
C      1  0.4780440000000  0.5582680000000  0.4637700000000 1.0
C      1  0.5663210000000  0.5427280000000  0.5037160000000 1.0
C      1  0.4336790000000  0.4572720000000  0.5037160000000 1.0
C      1  0.4343130000000  0.5327780000000  0.4618540000000 1.0
C      1  0.5656870000000  0.4672220000000  0.4618540000000 1.0
C      1  0.4525140000000  0.4560470000000  0.4590050000000 1.0
C      1  0.5474860000000  0.5439530000000  0.4590050000000 1.0
C      1  0.5541430000000  0.4654820000000  0.5020970000000 1.0
C      1  0.4458570000000  0.5345180000000  0.5020970000000 1.0
C      1  0.4982010000000  0.4825200000000  0.4212010000000 1.0
C      1  0.5017990000000  0.5174800000000  0.4212000000000 1.0
C      1  0.4732840000000  0.5159100000000  0.4637540000000 1.0
C      1  0.5267160000000  0.4840900000000  0.4637540000000 1.0
C      1  0.4789090000000  0.5351070000000  0.4374970000000 1.0
C      1  0.5210910000000  0.4648930000000  0.4374970000000 1.0
C      1  0.5096130000000  0.5118780000000  0.5736700000000 1.0
C      1  0.4903870000000  0.4881220000000  0.5736700000000 1.0
C      1  0.4802010000000  0.4875610000000  0.4587420000000 1.0
C      1  0.5197990000000  0.5124400000000  0.4587410000000 1.0
C      1  0.4687780000000  0.4721570000000  0.4346090000000 1.0
C      1  0.5312220000000  0.5278430000000  0.4346090000000 1.0
C      1  0.4751040000000  0.4321340000000  0.5293800000000 1.0
C      1  0.5248960000000  0.5678660000000  0.5293800000000 1.0
C      1  0.4571490000000  0.5002630000000  0.5752890000000 1.0
C      1  0.5428510000000  0.4997370000000  0.5752890000000 1.0
C      1  0.5447940000000  0.4679640000000  0.5308200000000 1.0
C      1  0.4552060000000  0.5320360000000  0.5308200000000 1.0
C      1  0.4683990000000  0.4372220000000  0.4784610000000 1.0
C      1  0.5316010000000  0.5627790000000  0.4784610000000 1.0
C      1  0.5053460000000  0.5280100000000  0.5229930000000 1.0
C      1  0.4946540000000  0.4719900000000  0.5229930000000 1.0
C      1  0.5023000000000  0.4558190000000  0.5677670000000 1.0
C      1  0.4977000000000  0.5441810000000  0.5677670000000 1.0
C      1  0.5021090000000  0.4419000000000  0.5180340000000 1.0
C      1  0.4978910000000  0.5581000000000  0.5180340000000 1.0
C      1  0.4441950000000  0.5060590000000  0.4819810000000 1.0
C      1  0.5558050000000  0.4939410000000  0.4819810000000 1.0
C      1  0.5084450000000  0.5113820000000  0.5011230000000 1.0
C      1  0.4915560000000  0.4886180000000  0.5011230000000 1.0
C      1  0.5240830000000  0.4490740000000  0.5423230000000 1.0
C      1  0.4759170000000  0.5509260000000  0.5423230000000 1.0
C      1  0.4541090000000  0.5021000000000  0.5395830000000 1.0
C      1  0.5458910000000  0.4979000000000  0.5395830000000 1.0
END
