TITL C-3985254-1270-110 0.00130278436682957 125000 -355.203998499582 0 0 60 (D2d) n - 1
REM
REM in /home/nfs/bkarasulu/CARBON/AIRSS/Generating-Clusters/TERSOFF/Higher-Symm/Only-C60
REM
REM
REM
REM
REM
REM ./C.cell (28575a23ae977d3b5fae324c64b13b57)
REM
REM compiler GCC version 9.2.1 20190827 (Red Hat 9.2.1-1)
REM options -cpp -mtune=generic -march=x86-64 -g -O0 -fpre-include=/usr/include/finclude/math-vector-fortran.h
REM seed 130812511 -206158783 -2043868328 1059050739 1874480272 -1675704254 -2113555861 -1019246033 -1366326277 345703633 996972206 164409594 -1837317123 -1243842059 -1665830247 -2135554851 -1171859180 1980781039 -368033303 1194438711 443256232 557117709 -697990 623790563 -727089637 -1659214941 -1543927365 2021116715 -1442993630 1918151927 1232056993 -1139774894 187261341
REM
CELL 1.54180   50.00000   50.00000   50.00000   90.00000   90.00000   90.00000
LATT -1
SFAC C  
C      1  0.4904050000000  0.4482160000000  0.4677380000000 1.0
C      1  0.5095950000000  0.5517840000000  0.4677380000000 1.0
C      1  0.4904050000000  0.5517840000000  0.5322620000000 1.0
C      1  0.5095950000000  0.4482160000000  0.5322620000000 1.0
C      1  0.4482160000000  0.4904050000000  0.4677380000000 1.0
C      1  0.5517840000000  0.5095950000000  0.4677380000000 1.0
C      1  0.5517840000000  0.4904050000000  0.5322620000000 1.0
C      1  0.4482160000000  0.5095950000000  0.5322620000000 1.0
C      1  0.5108120000000  0.4679090000000  0.5101510000000 1.0
C      1  0.4891880000000  0.5320910000000  0.5101510000000 1.0
C      1  0.5108120000000  0.5320910000000  0.4898490000000 1.0
C      1  0.4891880000000  0.4679090000000  0.4898490000000 1.0
C      1  0.4679090000000  0.5108120000000  0.5101510000000 1.0
C      1  0.5320910000000  0.4891880000000  0.5101510000000 1.0
C      1  0.5320910000000  0.5108120000000  0.4898490000000 1.0
C      1  0.4679090000000  0.4891880000000  0.4898490000000 1.0
C      1  0.4651680000000  0.4902640000000  0.4189650000000 1.0
C      1  0.5348320000000  0.5097360000000  0.4189650000000 1.0
C      1  0.4651680000000  0.5097360000000  0.5810350000000 1.0
C      1  0.5348320000000  0.4902640000000  0.5810350000000 1.0
C      1  0.4902640000000  0.4651680000000  0.4189650000000 1.0
C      1  0.5097360000000  0.5348320000000  0.4189650000000 1.0
C      1  0.5097360000000  0.4651680000000  0.5810350000000 1.0
C      1  0.4902640000000  0.5348320000000  0.5810350000000 1.0
C      1  0.5395980000000  0.5189600000000  0.5698190000000 1.0
C      1  0.4604020000000  0.4810400000000  0.5698190000000 1.0
C      1  0.5395980000000  0.4810400000000  0.4301810000000 1.0
C      1  0.4604020000000  0.5189600000000  0.4301810000000 1.0
C      1  0.5189600000000  0.5395980000000  0.5698190000000 1.0
C      1  0.4810400000000  0.4604020000000  0.5698190000000 1.0
C      1  0.4810400000000  0.5395980000000  0.4301810000000 1.0
C      1  0.5189600000000  0.4604020000000  0.4301810000000 1.0
C      1  0.4731380000000  0.5478700000000  0.5563060000000 1.0
C      1  0.5268620000000  0.4521300000000  0.5563060000000 1.0
C      1  0.4731380000000  0.4521300000000  0.4436940000000 1.0
C      1  0.5268620000000  0.5478700000000  0.4436940000000 1.0
C      1  0.5478700000000  0.4731380000000  0.5563060000000 1.0
C      1  0.4521300000000  0.5268620000000  0.5563060000000 1.0
C      1  0.4521300000000  0.4731380000000  0.4436940000000 1.0
C      1  0.5478700000000  0.5268620000000  0.4436940000000 1.0
C      1  0.5163770000000  0.4435030000000  0.4546390000000 1.0
C      1  0.4836230000000  0.5564970000000  0.4546390000000 1.0
C      1  0.5163770000000  0.5564970000000  0.5453610000000 1.0
C      1  0.4836230000000  0.4435030000000  0.5453610000000 1.0
C      1  0.4435030000000  0.5163770000000  0.4546390000000 1.0
C      1  0.5564970000000  0.4836230000000  0.4546390000000 1.0
C      1  0.5564970000000  0.5163770000000  0.5453610000000 1.0
C      1  0.4435030000000  0.4836230000000  0.5453610000000 1.0
C      1  0.4625400000000  0.4268030000000  0.5346280000000 1.0
C      1  0.5374600000000  0.5731970000000  0.5346280000000 1.0
C      1  0.4625400000000  0.5731970000000  0.4653720000000 1.0
C      1  0.5374600000000  0.4268030000000  0.4653720000000 1.0
C      1  0.4268030000000  0.4625400000000  0.5346280000000 1.0
C      1  0.5731970000000  0.5374600000000  0.5346280000000 1.0
C      1  0.5731970000000  0.4625400000000  0.4653720000000 1.0
C      1  0.4268030000000  0.5374600000000  0.4653720000000 1.0
C      1  0.4359950000000  0.5640050000000  0.4710660000000 1.0
C      1  0.5640050000000  0.4359950000000  0.4710660000000 1.0
C      1  0.4359950000000  0.4359950000000  0.5289340000000 1.0
C      1  0.5640050000000  0.5640050000000  0.5289340000000 1.0
END
