TITL C-3985247-764-557 -3.61188177958685e-07 125000 -364.736734770915 0 0 60 (D3h) n - 1
REM
REM in /home/nfs/bkarasulu/CARBON/AIRSS/Generating-Clusters/TERSOFF/Higher-Symm/Only-C60
REM
REM
REM
REM
REM
REM ./C.cell (28575a23ae977d3b5fae324c64b13b57)
REM
REM compiler GCC version 9.2.1 20190827 (Red Hat 9.2.1-1)
REM options -cpp -mtune=generic -march=x86-64 -g -O0 -fpre-include=/usr/include/finclude/math-vector-fortran.h
REM seed 48037454 2053817992 1637534335 -526034454 997887011 22878319 1100571489 1369180637 -904742481 -1817711029 -680072730 726822878 1876668320 1844129621 -2031121097 1029983131 -876804067 1497880542 -1091124865 1610612023 -812161961 1593110926 -645266125 -1801972909 -98305779 512000433 1639354649 1193332256 573648107 -535649737 1781696721 1695415181 -1053091853
REM
CELL 1.54180   50.00000   50.00000   50.00000   90.00000   90.00000   90.00000
LATT -1
SFAC C  
C      1  0.5000680000000  0.4677820000000  0.4832710000000 1.0
C      1  0.5278680000000  0.5161680000000  0.4832710000000 1.0
C      1  0.4720650000000  0.5160500000000  0.4832710000000 1.0
C      1  0.5000680000000  0.4677820000000  0.5167290000000 1.0
C      1  0.5278680000000  0.5161680000000  0.5167290000000 1.0
C      1  0.4720650000000  0.5160500000000  0.5167290000000 1.0
C      1  0.5000680000000  0.5322180000000  0.4832710000000 1.0
C      1  0.5278680000000  0.4838320000000  0.4832710000000 1.0
C      1  0.4720650000000  0.4839500000000  0.4832710000000 1.0
C      1  0.5000680000000  0.5322180000000  0.5167290000000 1.0
C      1  0.5278680000000  0.4838320000000  0.5167290000000 1.0
C      1  0.4720650000000  0.4839500000000  0.5167290000000 1.0
C      1  0.5572660000000  0.4852010000000  0.4409460000000 1.0
C      1  0.4841830000000  0.5569930000000  0.4409460000000 1.0
C      1  0.4585510000000  0.4578050000000  0.4409460000000 1.0
C      1  0.5572660000000  0.4852010000000  0.5590540000000 1.0
C      1  0.4841830000000  0.5569930000000  0.5590540000000 1.0
C      1  0.4585510000000  0.4578050000000  0.5590540000000 1.0
C      1  0.5572660000000  0.5147990000000  0.4409460000000 1.0
C      1  0.4841830000000  0.4430070000000  0.4409460000000 1.0
C      1  0.4585510000000  0.5421950000000  0.4409460000000 1.0
C      1  0.5572660000000  0.5147990000000  0.5590540000000 1.0
C      1  0.4841830000000  0.4430070000000  0.5590540000000 1.0
C      1  0.4585510000000  0.5421950000000  0.5590540000000 1.0
C      1  0.5254760000000  0.4851650000000  0.4008010000000 1.0
C      1  0.5001090000000  0.5294800000000  0.4008010000000 1.0
C      1  0.4744150000000  0.4853540000000  0.4008010000000 1.0
C      1  0.5254760000000  0.4851650000000  0.5991990000000 1.0
C      1  0.5001090000000  0.5294800000000  0.5991990000000 1.0
C      1  0.4744150000000  0.4853540000000  0.5991990000000 1.0
C      1  0.5254760000000  0.5148350000000  0.4008010000000 1.0
C      1  0.5001090000000  0.4705200000000  0.4008010000000 1.0
C      1  0.4744150000000  0.5146460000000  0.4008010000000 1.0
C      1  0.5254760000000  0.5148350000000  0.5991990000000 1.0
C      1  0.5001090000000  0.4705200000000  0.5991990000000 1.0
C      1  0.4744150000000  0.5146460000000  0.5991990000000 1.0
C      1  0.4518660000000  0.4708810000000  0.5337760000000 1.0
C      1  0.5492840000000  0.4728740000000  0.5337770000000 1.0
C      1  0.4988490000000  0.5562440000000  0.5337770000000 1.0
C      1  0.4518660000000  0.4708810000000  0.4662240000000 1.0
C      1  0.5492840000000  0.4728740000000  0.4662230000000 1.0
C      1  0.4988490000000  0.5562440000000  0.4662230000000 1.0
C      1  0.4518660000000  0.5291190000000  0.5337760000000 1.0
C      1  0.5492840000000  0.5271260000000  0.5337770000000 1.0
C      1  0.4988490000000  0.4437560000000  0.5337770000000 1.0
C      1  0.4518660000000  0.5291190000000  0.4662240000000 1.0
C      1  0.5492840000000  0.5271260000000  0.4662230000000 1.0
C      1  0.4988490000000  0.4437560000000  0.4662230000000 1.0
C      1  0.5477770000000  0.5265490000000  0.5841200000000 1.0
C      1  0.4531190000000  0.5281020000000  0.5841200000000 1.0
C      1  0.4991030000000  0.4453490000000  0.5841200000000 1.0
C      1  0.5477770000000  0.5265490000000  0.4158800000000 1.0
C      1  0.4531190000000  0.5281020000000  0.4158800000000 1.0
C      1  0.4991030000000  0.4453490000000  0.4158800000000 1.0
C      1  0.5477770000000  0.4734510000000  0.5841200000000 1.0
C      1  0.4531190000000  0.4718980000000  0.5841200000000 1.0
C      1  0.4991030000000  0.5546510000000  0.5841200000000 1.0
C      1  0.5477770000000  0.4734510000000  0.4158800000000 1.0
C      1  0.4531190000000  0.4718980000000  0.4158800000000 1.0
C      1  0.4991030000000  0.5546510000000  0.4158800000000 1.0
END
