TITL C-3985250-725-94 0.000427475574199436 125000 -318.114098170111 0 0 60 (C2) n - 1
REM
REM in /home/nfs/bkarasulu/CARBON/AIRSS/Generating-Clusters/TERSOFF/Higher-Symm/Only-C60
REM
REM
REM
REM
REM
REM ./C.cell (28575a23ae977d3b5fae324c64b13b57)
REM
REM compiler GCC version 9.2.1 20190827 (Red Hat 9.2.1-1)
REM options -cpp -mtune=generic -march=x86-64 -g -O0 -fpre-include=/usr/include/finclude/math-vector-fortran.h
REM seed -2135703594 -1501355357 1085371093 -1516921718 -1447912875 866199286 273750251 1538458290 1429849263 -1542475686 1731887395 -1658424941 1058498997 -675767542 -1928608757 1001289709 -1282381517 704085914 530598187 1663713456 -705055296 -1689810162 -306932565 -1378848027 -1432936164 -1467839866 -1875172726 753555644 1695976150 -306704232 -1508602684 1854203362 -642562716
REM
CELL 1.54180   50.00000   50.00000   50.00000   90.00000   90.00000   90.00000
LATT -1
SFAC C  
C      1  0.4372160000000  0.4689850000000  0.5184050000000 1.0
C      1  0.5627830000000  0.4689860000000  0.4815950000000 1.0
C      1  0.4813490000000  0.5046000000000  0.5310680000000 1.0
C      1  0.5186520000000  0.5045990000000  0.4689340000000 1.0
C      1  0.4391210000000  0.5116430000000  0.5036830000000 1.0
C      1  0.5608810000000  0.5116430000000  0.4963180000000 1.0
C      1  0.5352700000000  0.4599530000000  0.5353570000000 1.0
C      1  0.4647120000000  0.4599280000000  0.4646270000000 1.0
C      1  0.5370230000000  0.4883730000000  0.4891080000000 1.0
C      1  0.4629810000000  0.4884070000000  0.5108730000000 1.0
C      1  0.5729760000000  0.4850850000000  0.5104640000000 1.0
C      1  0.4270460000000  0.4850850000000  0.4895510000000 1.0
C      1  0.5118440000000  0.5629790000000  0.5098010000000 1.0
C      1  0.4881550000000  0.5630000000000  0.4901940000000 1.0
C      1  0.5297170000000  0.4422960000000  0.5121780000000 1.0
C      1  0.4702810000000  0.4422960000000  0.4878180000000 1.0
C      1  0.4850640000000  0.5231510000000  0.5031630000000 1.0
C      1  0.5149290000000  0.5231580000000  0.4968480000000 1.0
C      1  0.5024050000000  0.4269180000000  0.5154920000000 1.0
C      1  0.4975940000000  0.4269180000000  0.4845080000000 1.0
C      1  0.4437440000000  0.5382420000000  0.4913170000000 1.0
C      1  0.5562560000000  0.5382410000000  0.5086830000000 1.0
C      1  0.4801990000000  0.4803810000000  0.4222840000000 1.0
C      1  0.5198020000000  0.4803820000000  0.5777150000000 1.0
C      1  0.4830380000000  0.5122200000000  0.4719600000000 1.0
C      1  0.5169490000000  0.5122320000000  0.5280400000000 1.0
C      1  0.4445720000000  0.4817840000000  0.4654010000000 1.0
C      1  0.5554270000000  0.4817850000000  0.5345920000000 1.0
C      1  0.5129020000000  0.4648190000000  0.5542100000000 1.0
C      1  0.4870940000000  0.4648200000000  0.4457820000000 1.0
C      1  0.5636030000000  0.4826210000000  0.4532620000000 1.0
C      1  0.4363970000000  0.4826220000000  0.5467370000000 1.0
C      1  0.4776900000000  0.4472340000000  0.5223070000000 1.0
C      1  0.5223090000000  0.4472330000000  0.4776910000000 1.0
C      1  0.5680240000000  0.5123130000000  0.4548930000000 1.0
C      1  0.4319760000000  0.5123130000000  0.5451070000000 1.0
C      1  0.4640680000000  0.4818240000000  0.5617590000000 1.0
C      1  0.5359320000000  0.4818240000000  0.4382410000000 1.0
C      1  0.4344060000000  0.5435590000000  0.4642880000000 1.0
C      1  0.5655940000000  0.5435590000000  0.5357130000000 1.0
C      1  0.4748160000000  0.5121900000000  0.5718180000000 1.0
C      1  0.5251830000000  0.5121890000000  0.4281810000000 1.0
C      1  0.4967830000000  0.5448110000000  0.4633740000000 1.0
C      1  0.5032200000000  0.5448120000000  0.5366250000000 1.0
C      1  0.5381930000000  0.5578120000000  0.4949940000000 1.0
C      1  0.4618090000000  0.5578100000000  0.5050050000000 1.0
C      1  0.4859090000000  0.4700550000000  0.5417820000000 1.0
C      1  0.5140910000000  0.4700550000000  0.4582190000000 1.0
C      1  0.4971550000000  0.5248850000000  0.4336900000000 1.0
C      1  0.5028450000000  0.5248850000000  0.5663120000000 1.0
C      1  0.4712700000000  0.5491210000000  0.5331810000000 1.0
C      1  0.5287180000000  0.5490950000000  0.4668540000000 1.0
C      1  0.4867510000000  0.4827010000000  0.4921730000000 1.0
C      1  0.5132720000000  0.4827530000000  0.5078240000000 1.0
C      1  0.4579410000000  0.5068290000000  0.4549240000000 1.0
C      1  0.5420620000000  0.5068320000000  0.5450790000000 1.0
C      1  0.4590290000000  0.5246270000000  0.5472980000000 1.0
C      1  0.5409710000000  0.5246280000000  0.4527010000000 1.0
C      1  0.4729090000000  0.5079490000000  0.4283570000000 1.0
C      1  0.5270910000000  0.5079500000000  0.5716420000000 1.0
END
