TITL C-3985256-5419-41 0.000135733014426708 125000 -297.382794695358 0 0 60 (C1) n - 1
REM
REM in /home/nfs/bkarasulu/CARBON/AIRSS/Generating-Clusters/TERSOFF/Higher-Symm/Only-C60
REM
REM
REM
REM
REM
REM ./C.cell (28575a23ae977d3b5fae324c64b13b57)
REM
REM compiler GCC version 9.2.1 20190827 (Red Hat 9.2.1-1)
REM options -cpp -mtune=generic -march=x86-64 -g -O0 -fpre-include=/usr/include/finclude/math-vector-fortran.h
REM seed 411046381 1815992035 -249709283 -267521617 -789289830 862941527 438435397 1840352335 242432733 -1948438473 364859686 -1698253967 -540090445 -604054916 209687461 -1168208971 979839054 981842048 600058561 2036554322 -423572443 -1079143256 727359612 -2040216403 695060248 -1418142378 916988004 1074058388 -865491888 -903056078 1007977582 -1359365466 932224639
REM
CELL 1.54180   50.00000   50.00000   50.00000   90.00000   90.00000   90.00000
LATT -1
SFAC C  
C      1  0.4786060000000  0.4775490000000  0.5506930000000 1.0
C      1  0.4906930000000  0.5309430000000  0.5502680000000 1.0
C      1  0.5308700000000  0.4938020000000  0.5501160000000 1.0
C      1  0.4776030000000  0.5236430000000  0.4474550000000 1.0
C      1  0.4897290000000  0.4699380000000  0.4475790000000 1.0
C      1  0.5301810000000  0.5073210000000  0.4471180000000 1.0
C      1  0.5464620000000  0.4886010000000  0.4655690000000 1.0
C      1  0.4655330000000  0.4653460000000  0.4663210000000 1.0
C      1  0.4858660000000  0.5471030000000  0.4658560000000 1.0
C      1  0.5467300000000  0.5120990000000  0.5309030000000 1.0
C      1  0.4665340000000  0.5354630000000  0.5315320000000 1.0
C      1  0.4863390000000  0.4543890000000  0.5316950000000 1.0
C      1  0.5164600000000  0.4556520000000  0.4878160000000 1.0
C      1  0.4521400000000  0.5082040000000  0.4879440000000 1.0
C      1  0.5296190000000  0.5374530000000  0.4876900000000 1.0
C      1  0.5096180000000  0.5433090000000  0.5090740000000 1.0
C      1  0.4576630000000  0.4882930000000  0.5093740000000 1.0
C      1  0.5314610000000  0.4703670000000  0.5089600000000 1.0
C      1  0.5377770000000  0.4650350000000  0.5519590000000 1.0
C      1  0.4502300000000  0.4859610000000  0.5527490000000 1.0
C      1  0.5121170000000  0.5513290000000  0.5516360000000 1.0
C      1  0.5374250000000  0.5358960000000  0.4455890000000 1.0
C      1  0.4492240000000  0.5156790000000  0.4461430000000 1.0
C      1  0.5107830000000  0.4493290000000  0.4459660000000 1.0
C      1  0.5647780000000  0.4614950000000  0.5398420000000 1.0
C      1  0.4336470000000  0.4641770000000  0.5409010000000 1.0
C      1  0.5014440000000  0.5765330000000  0.5399190000000 1.0
C      1  0.5645070000000  0.5392680000000  0.4579360000000 1.0
C      1  0.4329030000000  0.5375020000000  0.4585490000000 1.0
C      1  0.5001830000000  0.4243450000000  0.4586270000000 1.0
C      1  0.5345220000000  0.4601210000000  0.4636120000000 1.0
C      1  0.4467750000000  0.4898820000000  0.4640950000000 1.0
C      1  0.5164700000000  0.5508810000000  0.4636460000000 1.0
C      1  0.5324340000000  0.5390740000000  0.5309370000000 1.0
C      1  0.4507260000000  0.5093140000000  0.5317660000000 1.0
C      1  0.5168880000000  0.4535630000000  0.5314520000000 1.0
C      1  0.5625430000000  0.4688360000000  0.5108910000000 1.0
C      1  0.4408950000000  0.4621740000000  0.5119170000000 1.0
C      1  0.4954680000000  0.5710660000000  0.5110590000000 1.0
C      1  0.5604770000000  0.5330140000000  0.4871080000000 1.0
C      1  0.4405880000000  0.5371690000000  0.4876660000000 1.0
C      1  0.4970430000000  0.4312130000000  0.4877810000000 1.0
C      1  0.4847460000000  0.5196050000000  0.4974010000000 1.0
C      1  0.4903850000000  0.4780950000000  0.4975040000000 1.0
C      1  0.5235230000000  0.5037340000000  0.4971500000000 1.0
C      1  0.4515260000000  0.5776610000000  0.4973110000000 1.0
C      1  0.4554060000000  0.4209930000000  0.4986870000000 1.0
C      1  0.5904120000000  0.5028620000000  0.4963250000000 1.0
C      1  0.4699940000000  0.4491870000000  0.4990750000000 1.0
C      1  0.4698280000000  0.5517420000000  0.4986420000000 1.0
C      1  0.5588220000000  0.5004780000000  0.4981060000000 1.0
C      1  0.6088700000000  0.4808780000000  0.5000610000000 1.0
C      1  0.4610800000000  0.6043490000000  0.4914710000000 1.0
C      1  0.4652060000000  0.3975180000000  0.4848920000000 1.0
C      1  0.5001100000000  0.5008000000000  0.5553620000000 1.0
C      1  0.4991310000000  0.5002870000000  0.4419440000000 1.0
C      1  0.4997490000000  0.5005570000000  0.5218930000000 1.0
C      1  0.4993860000000  0.5004050000000  0.4748180000000 1.0
C      1  0.4989170000000  0.5001480000000  0.4108650000000 1.0
C      1  0.5003480000000  0.5009280000000  0.5864910000000 1.0
END
