TITL C-3985250-725-980 0.0044625306038659 125000 -295.545661901265 0 0 60 (C3i) n - 1
REM
REM in /home/nfs/bkarasulu/CARBON/AIRSS/Generating-Clusters/TERSOFF/Higher-Symm/Only-C60
REM
REM
REM
REM
REM
REM ./C.cell (28575a23ae977d3b5fae324c64b13b57)
REM
REM compiler GCC version 9.2.1 20190827 (Red Hat 9.2.1-1)
REM options -cpp -mtune=generic -march=x86-64 -g -O0 -fpre-include=/usr/include/finclude/math-vector-fortran.h
REM seed -2134447741 602704156 -1586026232 -640313942 1175915990 1452049900 1930887439 1024767062 -1251507082 1474662913 665631875 -2122740494 416181561 -516469066 -152395093 2067375600 -209709631 -427378126 1137625580 2129868308 581974169 1059545609 669841277 -270147058 -1296260531 858308697 -955967656 1764101483 94671414 2041902548 1071241804 1533676905 -1869169847
REM
CELL 1.54180   50.00000   50.00000   50.00000   90.00000   90.00000   90.00000
LATT -1
SFAC C  
C      1  0.4484290000000  0.4728370000000  0.4883100000000 1.0
C      1  0.4506610000000  0.5310390000000  0.5116650000000 1.0
C      1  0.5022680000000  0.5582700000000  0.4881760000000 1.0
C      1  0.5515710000000  0.5271630000000  0.5116900000000 1.0
C      1  0.5493390000000  0.4689610000000  0.4883350000000 1.0
C      1  0.4977320000000  0.4417300000000  0.5118240000000 1.0
C      1  0.4639100000000  0.5237050000000  0.4455800000000 1.0
C      1  0.5024940000000  0.5431160000000  0.5544120000000 1.0
C      1  0.5385800000000  0.5194060000000  0.4455750000000 1.0
C      1  0.5360900000000  0.4762950000000  0.5544200000000 1.0
C      1  0.4975060000000  0.4568840000000  0.4455880000000 1.0
C      1  0.4614200000000  0.4805940000000  0.5544250000000 1.0
C      1  0.4321780000000  0.5117270000000  0.4795350000000 1.0
C      1  0.4761710000000  0.5645970000000  0.5205820000000 1.0
C      1  0.5440810000000  0.5529440000000  0.4795320000000 1.0
C      1  0.5678220000000  0.4882730000000  0.5204650000000 1.0
C      1  0.5238290000000  0.4354030000000  0.4794180000000 1.0
C      1  0.4559190000000  0.4470560000000  0.5204680000000 1.0
C      1  0.4850550000000  0.4868590000000  0.4086220000000 1.0
C      1  0.4811460000000  0.5063650000000  0.5913850000000 1.0
C      1  0.4960830000000  0.5195150000000  0.4086140000000 1.0
C      1  0.5149450000000  0.5131410000000  0.5913780000000 1.0
C      1  0.5188540000000  0.4936350000000  0.4086150000000 1.0
C      1  0.5039170000000  0.4804850000000  0.5913860000000 1.0
C      1  0.5217550000000  0.5238310000000  0.5645440000000 1.0
C      1  0.5315150000000  0.4930650000000  0.4354640000000 1.0
C      1  0.5097570000000  0.4692510000000  0.5645400000000 1.0
C      1  0.4782450000000  0.4761690000000  0.4354560000000 1.0
C      1  0.4684850000000  0.5069350000000  0.5645360000000 1.0
C      1  0.4902430000000  0.5307490000000  0.4354600000000 1.0
C      1  0.4783000000000  0.5275220000000  0.5448530000000 1.0
C      1  0.5129640000000  0.5325510000000  0.4551340000000 1.0
C      1  0.5346630000000  0.5050370000000  0.5448860000000 1.0
C      1  0.5217000000000  0.4724780000000  0.4551470000000 1.0
C      1  0.4870360000000  0.4674490000000  0.5448660000000 1.0
C      1  0.4653370000000  0.4949630000000  0.4551140000000 1.0
C      1  0.5540590000000  0.5019110000000  0.4900740000000 1.0
C      1  0.5286860000000  0.4541500000000  0.5099310000000 1.0
C      1  0.4745150000000  0.4522230000000  0.4901130000000 1.0
C      1  0.4459410000000  0.4980890000000  0.5099260000000 1.0
C      1  0.4713140000000  0.5458500000000  0.4900690000000 1.0
C      1  0.5254850000000  0.5477770000000  0.5098870000000 1.0
C      1  0.4780950000000  0.5099920000000  0.4858820000000 1.0
C      1  0.4977420000000  0.5240140000000  0.5140810000000 1.0
C      1  0.5196280000000  0.5139570000000  0.4859050000000 1.0
C      1  0.5219050000000  0.4900080000000  0.5141180000000 1.0
C      1  0.5022580000000  0.4759860000000  0.4859190000000 1.0
C      1  0.4803720000000  0.4860430000000  0.5140950000000 1.0
C      1  0.5507130000000  0.4641620000000  0.5312740000000 1.0
C      1  0.4942680000000  0.4381920000000  0.4687620000000 1.0
C      1  0.4436040000000  0.4740000000000  0.5312860000000 1.0
C      1  0.4492870000000  0.5358380000000  0.4687260000000 1.0
C      1  0.5057320000000  0.5618080000000  0.5312380000000 1.0
C      1  0.5563960000000  0.5260000000000  0.4687140000000 1.0
C      1  0.5625750000000  0.5147880000000  0.5375540000000 1.0
C      1  0.5441320000000  0.4532340000000  0.4626140000000 1.0
C      1  0.4817470000000  0.4384140000000  0.5373580000000 1.0
C      1  0.4374250000000  0.4852120000000  0.4624460000000 1.0
C      1  0.4558680000000  0.5467660000000  0.5373860000000 1.0
C      1  0.5182530000000  0.5615860000000  0.4626420000000 1.0
END
