TITL C-3985252-168-315 -1.71430370815967e-07 125000 -329.641447786627 0 0 60 (C2h) n - 1
REM
REM in /home/nfs/bkarasulu/CARBON/AIRSS/Generating-Clusters/TERSOFF/Higher-Symm/Only-C60
REM
REM
REM
REM
REM
REM ./C.cell (28575a23ae977d3b5fae324c64b13b57)
REM
REM compiler GCC version 9.2.1 20190827 (Red Hat 9.2.1-1)
REM options -cpp -mtune=generic -march=x86-64 -g -O0 -fpre-include=/usr/include/finclude/math-vector-fortran.h
REM seed 1322013978 1226292965 60525753 1009833130 -2088534657 918324736 -1082238051 1079035047 -1508529428 -1831836768 1330892187 -1588360101 1253629256 1196577727 1320346921 1743114008 -1827356004 -581647400 -377502838 127126097 -217580093 1720153110 576296706 1630487712 645274889 751281240 -78773675 -63434068 -2056339527 -695280046 605752186 1877113570 847961567
REM
CELL 1.54180   50.00000   50.00000   50.00000   90.00000   90.00000   90.00000
LATT -1
SFAC C  
C      1  0.4868960000000  0.4243460000000  0.4743430000000 1.0
C      1  0.5131040000000  0.5756540000000  0.4743430000000 1.0
C      1  0.4868960000000  0.4243460000000  0.5256570000000 1.0
C      1  0.5131040000000  0.5756540000000  0.5256570000000 1.0
C      1  0.4533160000000  0.4581100000000  0.4581740000000 1.0
C      1  0.5466840000000  0.5418900000000  0.4581740000000 1.0
C      1  0.4533160000000  0.4581100000000  0.5418260000000 1.0
C      1  0.5466840000000  0.5418900000000  0.5418260000000 1.0
C      1  0.4683650000000  0.5524300000000  0.5291520000000 1.0
C      1  0.5316350000000  0.4475700000000  0.5291520000000 1.0
C      1  0.4683650000000  0.5524300000000  0.4708480000000 1.0
C      1  0.5316350000000  0.4475700000000  0.4708480000000 1.0
C      1  0.4706800000000  0.5028570000000  0.5167790000000 1.0
C      1  0.5293200000000  0.4971430000000  0.5167790000000 1.0
C      1  0.4706800000000  0.5028570000000  0.4832210000000 1.0
C      1  0.5293200000000  0.4971430000000  0.4832210000000 1.0
C      1  0.5361240000000  0.5170910000000  0.5530980000000 1.0
C      1  0.4638760000000  0.4829090000000  0.5530980000000 1.0
C      1  0.5361240000000  0.5170910000000  0.4469020000000 1.0
C      1  0.4638760000000  0.4829090000000  0.4469020000000 1.0
C      1  0.5709390000000  0.4809740000000  0.4819270000000 1.0
C      1  0.4290610000000  0.5190260000000  0.4819270000000 1.0
C      1  0.5709390000000  0.4809740000000  0.5180730000000 1.0
C      1  0.4290610000000  0.5190260000000  0.5180730000000 1.0
C      1  0.4497640000000  0.5097220000000  0.5421810000000 1.0
C      1  0.5502360000000  0.4902780000000  0.5421810000000 1.0
C      1  0.4497640000000  0.5097220000000  0.4578190000000 1.0
C      1  0.5502360000000  0.4902780000000  0.4578190000000 1.0
C      1  0.5385430000000  0.4634120000000  0.5572150000000 1.0
C      1  0.4614570000000  0.5365880000000  0.5572150000000 1.0
C      1  0.5385430000000  0.4634120000000  0.4427850000000 1.0
C      1  0.4614570000000  0.5365880000000  0.4427850000000 1.0
C      1  0.5576570000000  0.4520080000000  0.5148440000000 1.0
C      1  0.4423430000000  0.5479920000000  0.5148440000000 1.0
C      1  0.5576570000000  0.4520080000000  0.4851560000000 1.0
C      1  0.4423430000000  0.5479920000000  0.4851560000000 1.0
C      1  0.5163460000000  0.5267410000000  0.5150440000000 1.0
C      1  0.4836540000000  0.4732590000000  0.5150440000000 1.0
C      1  0.5163460000000  0.5267410000000  0.4849560000000 1.0
C      1  0.4836540000000  0.4732590000000  0.4849560000000 1.0
C      1  0.4858710000000  0.5737210000000  0.5152840000000 1.0
C      1  0.5141290000000  0.4262790000000  0.5152840000000 1.0
C      1  0.4858710000000  0.5737210000000  0.4847160000000 1.0
C      1  0.5141290000000  0.4262790000000  0.4847160000000 1.0
C      1  0.4895960000000  0.5253670000000  0.4718190000000 1.0
C      1  0.5104040000000  0.4746330000000  0.4718190000000 1.0
C      1  0.4895960000000  0.5253670000000  0.5281810000000 1.0
C      1  0.5104040000000  0.4746330000000  0.5281810000000 1.0
C      1  0.5139360000000  0.4684770000000  0.4271610000000 1.0
C      1  0.4860640000000  0.5315230000000  0.4271610000000 1.0
C      1  0.5139360000000  0.4684770000000  0.5728390000000 1.0
C      1  0.4860640000000  0.5315230000000  0.5728390000000 1.0
C      1  0.4668900000000  0.4451550000000  0.5180540000000 1.0
C      1  0.5331100000000  0.5548450000000  0.5180540000000 1.0
C      1  0.4668900000000  0.4451550000000  0.4819460000000 1.0
C      1  0.5331100000000  0.5548450000000  0.4819460000000 1.0
C      1  0.5046990000000  0.5147420000000  0.5560130000000 1.0
C      1  0.4953010000000  0.4852580000000  0.5560130000000 1.0
C      1  0.5046990000000  0.5147420000000  0.4439870000000 1.0
C      1  0.4953010000000  0.4852580000000  0.4439870000000 1.0
END
