TITL C-3985247-764-670 -3.50207994092476e-06 125000 -306.906726135093 0 0 60 (D3h) n - 1
REM
REM in /home/nfs/bkarasulu/CARBON/AIRSS/Generating-Clusters/TERSOFF/Higher-Symm/Only-C60
REM
REM
REM
REM
REM
REM ./C.cell (28575a23ae977d3b5fae324c64b13b57)
REM
REM compiler GCC version 9.2.1 20190827 (Red Hat 9.2.1-1)
REM options -cpp -mtune=generic -march=x86-64 -g -O0 -fpre-include=/usr/include/finclude/math-vector-fortran.h
REM seed 684273425 2092153323 861031071 -1972309947 1145846606 1822216069 1576102318 1763962420 -1059103431 -2111762777 1197727925 -1040890949 2060169852 1512786807 1189026803 -172565154 1801799920 -2141712087 2105043373 -1693325327 -1009982064 -1883041819 -1816270633 -1958879767 -466847487 544391168 -1460397156 -806478111 -1947452989 810458422 -379825505 -697590173 689110110
REM
CELL 1.54180   50.00000   50.00000   50.00000   90.00000   90.00000   90.00000
LATT -1
SFAC C  
C      1  0.5145380000000  0.4562230000000  0.5284620000000 1.0
C      1  0.5173800000000  0.4562220000000  0.4731790000000 1.0
C      1  0.4680820000000  0.4562220000000  0.4983590000000 1.0
C      1  0.5145380000000  0.5437770000000  0.5284620000000 1.0
C      1  0.5173800000000  0.5437780000000  0.4731790000000 1.0
C      1  0.4680820000000  0.5437780000000  0.4983590000000 1.0
C      1  0.4854620000000  0.4562230000000  0.5284620000000 1.0
C      1  0.4826200000000  0.4562220000000  0.4731790000000 1.0
C      1  0.5319180000000  0.4562220000000  0.4983590000000 1.0
C      1  0.4854620000000  0.5437770000000  0.5284620000000 1.0
C      1  0.4826200000000  0.5437780000000  0.4731790000000 1.0
C      1  0.5319180000000  0.5437780000000  0.4983590000000 1.0
C      1  0.4698000000000  0.4291910000000  0.5350970000000 1.0
C      1  0.5454950000000  0.4291900000000  0.5086050000000 1.0
C      1  0.4847050000000  0.4291900000000  0.4562980000000 1.0
C      1  0.4698000000000  0.5708090000000  0.5350970000000 1.0
C      1  0.5454950000000  0.5708100000000  0.5086050000000 1.0
C      1  0.4847050000000  0.5708100000000  0.4562980000000 1.0
C      1  0.5302000000000  0.4291910000000  0.5350970000000 1.0
C      1  0.4545050000000  0.4291900000000  0.5086050000000 1.0
C      1  0.5152950000000  0.4291900000000  0.4562980000000 1.0
C      1  0.5302000000000  0.5708090000000  0.5350970000000 1.0
C      1  0.4545050000000  0.5708100000000  0.5086050000000 1.0
C      1  0.5152950000000  0.5708100000000  0.4562980000000 1.0
C      1  0.5172590000000  0.4819520000000  0.4539880000000 1.0
C      1  0.4515220000000  0.4819520000000  0.5080600000000 1.0
C      1  0.5312190000000  0.4819520000000  0.5379530000000 1.0
C      1  0.5172590000000  0.5180480000000  0.4539880000000 1.0
C      1  0.4515220000000  0.5180480000000  0.5080600000000 1.0
C      1  0.5312190000000  0.5180480000000  0.5379530000000 1.0
C      1  0.4827410000000  0.4819520000000  0.4539880000000 1.0
C      1  0.5484780000000  0.4819520000000  0.5080600000000 1.0
C      1  0.4687810000000  0.4819520000000  0.5379530000000 1.0
C      1  0.4827410000000  0.5180480000000  0.4539880000000 1.0
C      1  0.5484780000000  0.5180480000000  0.5080600000000 1.0
C      1  0.4687810000000  0.5180480000000  0.5379530000000 1.0
C      1  0.4688340000000  0.5152060000000  0.5698970000000 1.0
C      1  0.5761160000000  0.5152060000000  0.4920420000000 1.0
C      1  0.4550510000000  0.5152060000000  0.4380610000000 1.0
C      1  0.4688340000000  0.4847940000000  0.5698970000000 1.0
C      1  0.5761160000000  0.4847940000000  0.4920420000000 1.0
C      1  0.4550510000000  0.4847940000000  0.4380610000000 1.0
C      1  0.5311660000000  0.5152060000000  0.5698970000000 1.0
C      1  0.4238840000000  0.5152060000000  0.4920420000000 1.0
C      1  0.5449490000000  0.5152060000000  0.4380610000000 1.0
C      1  0.5311660000000  0.4847940000000  0.5698970000000 1.0
C      1  0.4238840000000  0.4847940000000  0.4920420000000 1.0
C      1  0.5449490000000  0.4847940000000  0.4380610000000 1.0
C      1  0.4854230000000  0.5313440000000  0.5875010000000 1.0
C      1  0.5830660000000  0.5313450000000  0.4688740000000 1.0
C      1  0.4315110000000  0.5313440000000  0.4436250000000 1.0
C      1  0.4854230000000  0.4686560000000  0.5875010000000 1.0
C      1  0.5830660000000  0.4686550000000  0.4688740000000 1.0
C      1  0.4315110000000  0.4686560000000  0.4436250000000 1.0
C      1  0.5145770000000  0.5313440000000  0.5875010000000 1.0
C      1  0.4169340000000  0.5313450000000  0.4688740000000 1.0
C      1  0.5684890000000  0.5313440000000  0.4436250000000 1.0
C      1  0.5145770000000  0.4686560000000  0.5875010000000 1.0
C      1  0.4169340000000  0.4686550000000  0.4688740000000 1.0
C      1  0.5684890000000  0.4686560000000  0.4436250000000 1.0
END
