TITL C-3985252-168-391 -1.0127116610857e-05 125000 -348.49828997844 0 0 60 (C1) n - 1
REM
REM in /home/nfs/bkarasulu/CARBON/AIRSS/Generating-Clusters/TERSOFF/Higher-Symm/Only-C60
REM
REM
REM
REM
REM
REM ./C.cell (28575a23ae977d3b5fae324c64b13b57)
REM
REM compiler GCC version 9.2.1 20190827 (Red Hat 9.2.1-1)
REM options -cpp -mtune=generic -march=x86-64 -g -O0 -fpre-include=/usr/include/finclude/math-vector-fortran.h
REM seed -570298087 1887459841 409739175 1825205937 -1939896549 -1506250774 1709531046 149162396 -1745755219 1663896916 -2023128526 1322625086 2116183406 -291049472 -1228002338 -1717829660 1605240819 -560149957 -478486582 781550373 790482337 1142695118 -95037453 978154328 -450806067 2060783975 925136148 -1753604933 -490562359 1217056190 283238435 1453336553 1007616874
REM
CELL 1.54180   50.00000   50.00000   50.00000   90.00000   90.00000   90.00000
LATT -1
SFAC C  
C      1  0.4671310000000  0.5159800000000  0.5218500000000 1.0
C      1  0.4670060000000  0.4826800000000  0.5232350000000 1.0
C      1  0.4972270000000  0.4834890000000  0.5344540000000 1.0
C      1  0.4969140000000  0.5170400000000  0.5325690000000 1.0
C      1  0.4931870000000  0.4171970000000  0.5081350000000 1.0
C      1  0.4942760000000  0.5820670000000  0.5098440000000 1.0
C      1  0.5396540000000  0.4712430000000  0.5070480000000 1.0
C      1  0.5398530000000  0.5295480000000  0.5054120000000 1.0
C      1  0.5573540000000  0.5153310000000  0.5611010000000 1.0
C      1  0.5596450000000  0.4871940000000  0.5503880000000 1.0
C      1  0.5655350000000  0.4703030000000  0.4696120000000 1.0
C      1  0.5681000000000  0.5298420000000  0.4696730000000 1.0
C      1  0.4962450000000  0.4843270000000  0.4834860000000 1.0
C      1  0.4934120000000  0.5136240000000  0.4768710000000 1.0
C      1  0.5424790000000  0.5167370000000  0.4575030000000 1.0
C      1  0.5410660000000  0.4844810000000  0.4567130000000 1.0
C      1  0.5170420000000  0.5306880000000  0.4657440000000 1.0
C      1  0.5134490000000  0.4711320000000  0.4627080000000 1.0
C      1  0.4491490000000  0.4369970000000  0.5295060000000 1.0
C      1  0.4503170000000  0.5613630000000  0.5301400000000 1.0
C      1  0.5109270000000  0.4726250000000  0.5583310000000 1.0
C      1  0.5090120000000  0.5297190000000  0.5564800000000 1.0
C      1  0.4239860000000  0.4824870000000  0.5121750000000 1.0
C      1  0.4239790000000  0.5164210000000  0.5122380000000 1.0
C      1  0.4394160000000  0.5152910000000  0.4823530000000 1.0
C      1  0.4405610000000  0.4841110000000  0.4832120000000 1.0
C      1  0.4668380000000  0.5715940000000  0.5074120000000 1.0
C      1  0.4653380000000  0.4266930000000  0.5064280000000 1.0
C      1  0.5027010000000  0.5160880000000  0.5816540000000 1.0
C      1  0.5053300000000  0.4873410000000  0.5829450000000 1.0
C      1  0.5454530000000  0.5591590000000  0.5350440000000 1.0
C      1  0.5433800000000  0.4403410000000  0.5352350000000 1.0
C      1  0.4667270000000  0.5333600000000  0.4407400000000 1.0
C      1  0.4652330000000  0.4655390000000  0.4406740000000 1.0
C      1  0.5086480000000  0.5596420000000  0.4654430000000 1.0
C      1  0.5065530000000  0.4416090000000  0.4638460000000 1.0
C      1  0.5390000000000  0.4650620000000  0.5518500000000 1.0
C      1  0.5375350000000  0.5359960000000  0.5522760000000 1.0
C      1  0.4760580000000  0.4418970000000  0.4579420000000 1.0
C      1  0.4775940000000  0.5585020000000  0.4584160000000 1.0
C      1  0.4409900000000  0.5175270000000  0.4498190000000 1.0
C      1  0.4412590000000  0.4815550000000  0.4513050000000 1.0
C      1  0.4844600000000  0.4853970000000  0.4314660000000 1.0
C      1  0.4865830000000  0.5111200000000  0.4446280000000 1.0
C      1  0.5412560000000  0.5603580000000  0.5042550000000 1.0
C      1  0.5396750000000  0.4398800000000  0.5038350000000 1.0
C      1  0.4434110000000  0.5320100000000  0.5325860000000 1.0
C      1  0.4428130000000  0.4664540000000  0.5326500000000 1.0
C      1  0.5636960000000  0.5572100000000  0.4827960000000 1.0
C      1  0.5613930000000  0.4429760000000  0.4819980000000 1.0
C      1  0.5162490000000  0.5724030000000  0.4922870000000 1.0
C      1  0.5145730000000  0.4289200000000  0.4911220000000 1.0
C      1  0.5143210000000  0.5164320000000  0.5060790000000 1.0
C      1  0.5143580000000  0.4848750000000  0.5085470000000 1.0
C      1  0.4652340000000  0.5533760000000  0.4850700000000 1.0
C      1  0.4643500000000  0.4459370000000  0.4848840000000 1.0
C      1  0.5631050000000  0.4857090000000  0.4957720000000 1.0
C      1  0.5635120000000  0.5144650000000  0.4956950000000 1.0
C      1  0.4671640000000  0.5246280000000  0.4915570000000 1.0
C      1  0.4682870000000  0.4740280000000  0.4929610000000 1.0
END
