TITL C-3985245-9316-213 -0.00181571706233237 125000 -298.365863116055 0 0 60 (Ci) n - 1
REM
REM in /home/nfs/bkarasulu/CARBON/AIRSS/Generating-Clusters/TERSOFF/Higher-Symm/Only-C60
REM
REM
REM
REM
REM
REM ./C.cell (28575a23ae977d3b5fae324c64b13b57)
REM
REM compiler GCC version 9.2.1 20190827 (Red Hat 9.2.1-1)
REM options -cpp -mtune=generic -march=x86-64 -g -O0 -fpre-include=/usr/include/finclude/math-vector-fortran.h
REM seed -1730629992 -1597280756 1242131747 -319658376 1698161745 1817247130 415626714 1187752759 1838063355 -729076755 -1805565907 -2064369546 212962431 2054033685 -560231563 -1797058403 525354953 544166039 -2012964376 1337351522 40998548 -1885936034 -136573180 1795086232 -1591133915 -1740567686 1579780913 -1987363113 211370714 2011771205 968380829 -377377464 2006460420
REM
CELL 1.54180   50.00000   50.00000   50.00000   90.00000   90.00000   90.00000
LATT -1
SFAC C  
C      1  0.4824160000000  0.4774440000000  0.4937410000000 1.0
C      1  0.5175630000000  0.5225510000000  0.5062260000000 1.0
C      1  0.5681640000000  0.5324130000000  0.4989640000000 1.0
C      1  0.4318370000000  0.4675870000000  0.5010360000000 1.0
C      1  0.4440880000000  0.4878180000000  0.5206560000000 1.0
C      1  0.5559130000000  0.5121810000000  0.4793440000000 1.0
C      1  0.4714100000000  0.4349250000000  0.5078800000000 1.0
C      1  0.5285860000000  0.5650760000000  0.4921190000000 1.0
C      1  0.4923910000000  0.4244010000000  0.4909080000000 1.0
C      1  0.5076090000000  0.5755980000000  0.5090920000000 1.0
C      1  0.5281940000000  0.5071380000000  0.4346360000000 1.0
C      1  0.4718070000000  0.4928590000000  0.5653650000000 1.0
C      1  0.5532930000000  0.5588110000000  0.5058350000000 1.0
C      1  0.4467080000000  0.4411870000000  0.4941640000000 1.0
C      1  0.5007030000000  0.4908610000000  0.5749310000000 1.0
C      1  0.4992960000000  0.5091390000000  0.4250700000000 1.0
C      1  0.5209840000000  0.5344470000000  0.5369710000000 1.0
C      1  0.4790150000000  0.4655550000000  0.4630310000000 1.0
C      1  0.4794700000000  0.4932060000000  0.4474350000000 1.0
C      1  0.5205510000000  0.5068090000000  0.5525870000000 1.0
C      1  0.5828730000000  0.4528590000000  0.4927790000000 1.0
C      1  0.4171270000000  0.5471410000000  0.5072210000000 1.0
C      1  0.4850800000000  0.5336300000000  0.4379180000000 1.0
C      1  0.5149220000000  0.4663630000000  0.5620870000000 1.0
C      1  0.5442370000000  0.4615350000000  0.4580470000000 1.0
C      1  0.4557630000000  0.5384650000000  0.5419530000000 1.0
C      1  0.5076440000000  0.4930620000000  0.4783660000000 1.0
C      1  0.4923550000000  0.5069540000000  0.5216430000000 1.0
C      1  0.5670910000000  0.4936120000000  0.5157660000000 1.0
C      1  0.4329030000000  0.5063880000000  0.4842310000000 1.0
C      1  0.4697980000000  0.5416330000000  0.5149220000000 1.0
C      1  0.5301930000000  0.4583860000000  0.4850920000000 1.0
C      1  0.4623120000000  0.5442200000000  0.4736790000000 1.0
C      1  0.5376890000000  0.4557810000000  0.5263250000000 1.0
C      1  0.5495950000000  0.5449740000000  0.5344500000000 1.0
C      1  0.4504050000000  0.4550250000000  0.4655500000000 1.0
C      1  0.5371420000000  0.5247420000000  0.4589660000000 1.0
C      1  0.4628540000000  0.4752590000000  0.5410330000000 1.0
C      1  0.5793690000000  0.4954080000000  0.4682410000000 1.0
C      1  0.4206300000000  0.5045920000000  0.5317590000000 1.0
C      1  0.4844330000000  0.4596880000000  0.5251740000000 1.0
C      1  0.5155850000000  0.5403140000000  0.4748420000000 1.0
C      1  0.4963560000000  0.5538110000000  0.5245040000000 1.0
C      1  0.5036530000000  0.4461790000000  0.4754910000000 1.0
C      1  0.5722160000000  0.5213700000000  0.5294350000000 1.0
C      1  0.4277850000000  0.4786300000000  0.4705650000000 1.0
C      1  0.5654880000000  0.4622390000000  0.5199640000000 1.0
C      1  0.4345120000000  0.5377590000000  0.4800350000000 1.0
C      1  0.5146620000000  0.4788790000000  0.5293480000000 1.0
C      1  0.4853220000000  0.5211020000000  0.4706480000000 1.0
C      1  0.4275030000000  0.5344340000000  0.5366830000000 1.0
C      1  0.5724980000000  0.4655660000000  0.4633170000000 1.0
C      1  0.5343250000000  0.4910600000000  0.5006910000000 1.0
C      1  0.4656860000000  0.5089200000000  0.4992990000000 1.0
C      1  0.5029690000000  0.5653250000000  0.4588450000000 1.0
C      1  0.4970290000000  0.4346710000000  0.5411530000000 1.0
C      1  0.4766590000000  0.5159060000000  0.5473140000000 1.0
C      1  0.5233390000000  0.4841050000000  0.4526700000000 1.0
C      1  0.5905030000000  0.4855160000000  0.4955590000000 1.0
C      1  0.4094960000000  0.5144840000000  0.5044420000000 1.0
END
