TITL C-3985251-913-677 -6.66687917018874e-05 125000 -292.080297834429 0 0 60 (C3) n - 1
REM
REM in /home/nfs/bkarasulu/CARBON/AIRSS/Generating-Clusters/TERSOFF/Higher-Symm/Only-C60
REM
REM
REM
REM
REM
REM ./C.cell (28575a23ae977d3b5fae324c64b13b57)
REM
REM compiler GCC version 9.2.1 20190827 (Red Hat 9.2.1-1)
REM options -cpp -mtune=generic -march=x86-64 -g -O0 -fpre-include=/usr/include/finclude/math-vector-fortran.h
REM seed 800999856 132075251 1173975500 78019693 2001517655 678734570 1193267769 -424300644 214957871 -1866883013 1172976307 -2108998961 989434566 1263135135 -647781136 503746385 387410895 -1375598028 -1946263333 1644891186 -1061524793 1246533531 -1505521910 1543802075 1048933947 -493771081 -160719245 -835037566 -947409886 -1468791915 703544042 2074665358 2146754933
REM
CELL 1.54180   50.00000   50.00000   50.00000   90.00000   90.00000   90.00000
LATT -1
SFAC C  
C      1  0.4627390000000  0.4860260000000  0.4698310000000 1.0
C      1  0.5447570000000  0.4860250000000  0.4828160000000 1.0
C      1  0.4925040000000  0.4860270000000  0.5473550000000 1.0
C      1  0.5246970000000  0.4524410000000  0.5527330000000 1.0
C      1  0.4419840000000  0.4524420000000  0.4950240000000 1.0
C      1  0.5333200000000  0.4524420000000  0.4522420000000 1.0
C      1  0.4438780000000  0.5475050000000  0.5182610000000 1.0
C      1  0.5122470000000  0.5475020000000  0.4422700000000 1.0
C      1  0.5438710000000  0.5475040000000  0.5394710000000 1.0
C      1  0.4283360000000  0.5024360000000  0.5065660000000 1.0
C      1  0.5301480000000  0.5024370000000  0.4346520000000 1.0
C      1  0.5415170000000  0.5024370000000  0.5587830000000 1.0
C      1  0.5261520000000  0.5602540000000  0.4881460000000 1.0
C      1  0.4971890000000  0.5602560000000  0.5285750000000 1.0
C      1  0.4766580000000  0.5602550000000  0.4832770000000 1.0
C      1  0.5189520000000  0.4485450000000  0.5070770000000 1.0
C      1  0.4843960000000  0.4485440000000  0.5128720000000 1.0
C      1  0.4966550000000  0.4485420000000  0.4800470000000 1.0
C      1  0.4294760000000  0.5199670000000  0.5358440000000 1.0
C      1  0.5042210000000  0.5199680000000  0.4210020000000 1.0
C      1  0.5663030000000  0.5199680000000  0.5431550000000 1.0
C      1  0.4536770000000  0.4546100000000  0.5247370000000 1.0
C      1  0.5017400000000  0.4546090000000  0.4475110000000 1.0
C      1  0.5445840000000  0.4546090000000  0.5277510000000 1.0
C      1  0.4956510000000  0.4442410000000  0.5461010000000 1.0
C      1  0.4622490000000  0.4442410000000  0.4731840000000 1.0
C      1  0.5421000000000  0.4442400000000  0.4807120000000 1.0
C      1  0.4697070000000  0.5210770000000  0.4472490000000 1.0
C      1  0.5608340000000  0.5210790000000  0.5001420000000 1.0
C      1  0.4694590000000  0.5210860000000  0.5526160000000 1.0
C      1  0.4680580000000  0.4668380000000  0.5532270000000 1.0
C      1  0.4698770000000  0.4668380000000  0.4457250000000 1.0
C      1  0.5620640000000  0.4668360000000  0.5010500000000 1.0
C      1  0.4926960000000  0.5191840000000  0.4703420000000 1.0
C      1  0.5293390000000  0.5191850000000  0.5085030000000 1.0
C      1  0.4779650000000  0.5191890000000  0.5211580000000 1.0
C      1  0.4235430000000  0.4755990000000  0.4915870000000 1.0
C      1  0.5455170000000  0.4756000000000  0.4379910000000 1.0
C      1  0.5309390000000  0.4755990000000  0.5704220000000 1.0
C      1  0.4465330000000  0.5110330000000  0.4638990000000 1.0
C      1  0.5579940000000  0.5110340000000  0.4717490000000 1.0
C      1  0.4954680000000  0.5110360000000  0.5643480000000 1.0
C      1  0.5213400000000  0.5267200000000  0.5585080000000 1.0
C      1  0.4386590000000  0.5267200000000  0.4892300000000 1.0
C      1  0.5400000000000  0.5267190000000  0.4522640000000 1.0
C      1  0.4714290000000  0.5296980000000  0.4920530000000 1.0
C      1  0.5211690000000  0.5296980000000  0.4792260000000 1.0
C      1  0.5074080000000  0.5297000000000  0.5287200000000 1.0
C      1  0.5037610000000  0.4909690000000  0.4512060000000 1.0
C      1  0.5403750000000  0.4909690000000  0.5276540000000 1.0
C      1  0.4558680000000  0.4909720000000  0.5211400000000 1.0
C      1  0.4715570000000  0.5655920000000  0.5137750000000 1.0
C      1  0.5022910000000  0.5655880000000  0.4684800000000 1.0
C      1  0.5261510000000  0.5655900000000  0.5177430000000 1.0
C      1  0.5149920000000  0.4797340000000  0.4783490000000 1.0
C      1  0.5112530000000  0.4797350000000  0.5238080000000 1.0
C      1  0.4737560000000  0.4797360000000  0.4978410000000 1.0
C      1  0.4783790000000  0.4975250000000  0.4280230000000 1.0
C      1  0.5731440000000  0.4975240000000  0.5172650000000 1.0
C      1  0.4484770000000  0.4975270000000  0.5547130000000 1.0
END
