TITL C-3985253-1688-172 6.65582707044564e-06 125000 -323.267319109201 0 0 60 (C5) n - 1
REM
REM in /home/nfs/bkarasulu/CARBON/AIRSS/Generating-Clusters/TERSOFF/Higher-Symm/Only-C60
REM
REM
REM
REM
REM
REM ./C.cell (28575a23ae977d3b5fae324c64b13b57)
REM
REM compiler GCC version 9.2.1 20190827 (Red Hat 9.2.1-1)
REM options -cpp -mtune=generic -march=x86-64 -g -O0 -fpre-include=/usr/include/finclude/math-vector-fortran.h
REM seed -696722559 1451383864 -1942113602 300080820 -826852192 -1109894001 1088039658 1336929806 94009164 -700274550 1073999472 -1065331290 790121896 -2136724951 -988177327 -1134207454 -1556286439 -1963449312 1195038766 2042298278 1396221637 1561762732 347766636 -1325722336 -923670463 -1350293301 341169027 -497284845 -1725447571 -908636874 -756450663 1843182419 1480917254
REM
CELL 1.54180   50.00000   50.00000   50.00000   90.00000   90.00000   90.00000
LATT -1
SFAC C  
C      1  0.5718510000000  0.5016710000000  0.5239250000000 1.0
C      1  0.4994490000000  0.5016700000000  0.5757270000000 1.0
C      1  0.4278090000000  0.5016690000000  0.5228770000000 1.0
C      1  0.4559340000000  0.5016690000000  0.4384120000000 1.0
C      1  0.5449570000000  0.5016700000000  0.4390590000000 1.0
C      1  0.4783620000000  0.4852300000000  0.5396390000000 1.0
C      1  0.4556150000000  0.4852290000000  0.4916700000000 1.0
C      1  0.4942070000000  0.4852290000000  0.4552130000000 1.0
C      1  0.5408050000000  0.4852300000000  0.4806500000000 1.0
C      1  0.5310120000000  0.4852300000000  0.5328280000000 1.0
C      1  0.5192070000000  0.5367990000000  0.5494080000000 1.0
C      1  0.4589440000000  0.5367980000000  0.5335350000000 1.0
C      1  0.4554190000000  0.5367970000000  0.4713170000000 1.0
C      1  0.5135020000000  0.5367980000000  0.4487370000000 1.0
C      1  0.5529250000000  0.5367990000000  0.4970010000000 1.0
C      1  0.5197400000000  0.5679040000000  0.4839560000000 1.0
C      1  0.5213580000000  0.5679040000000  0.5138170000000 1.0
C      1  0.4934580000000  0.5679040000000  0.5245830000000 1.0
C      1  0.4745980000000  0.5679040000000  0.5013760000000 1.0
C      1  0.4908410000000  0.5679040000000  0.4762670000000 1.0
C      1  0.4247790000000  0.5160800000000  0.4953370000000 1.0
C      1  0.4811900000000  0.5160800000000  0.4270200000000 1.0
C      1  0.5635950000000  0.5160810000000  0.4595590000000 1.0
C      1  0.5581130000000  0.5160820000000  0.5479860000000 1.0
C      1  0.4723200000000  0.5160810000000  0.5700980000000 1.0
C      1  0.5214320000000  0.5122490000000  0.4841940000000 1.0
C      1  0.5216550000000  0.5122490000000  0.5154990000000 1.0
C      1  0.4919520000000  0.5122480000000  0.5253840000000 1.0
C      1  0.4733710000000  0.5122480000000  0.5001900000000 1.0
C      1  0.4915910000000  0.5122480000000  0.4747330000000 1.0
C      1  0.4839990000000  0.5436110000000  0.4586120000000 1.0
C      1  0.5344170000000  0.5436120000000  0.4719930000000 1.0
C      1  0.5372710000000  0.5436120000000  0.5240790000000 1.0
C      1  0.4886160000000  0.5436110000000  0.5428880000000 1.0
C      1  0.4556930000000  0.5436100000000  0.5024270000000 1.0
C      1  0.5647540000000  0.5088640000000  0.4934890000000 1.0
C      1  0.5262030000000  0.5088640000000  0.5595730000000 1.0
C      1  0.4514390000000  0.5088620000000  0.5433300000000 1.0
C      1  0.4437850000000  0.5088620000000  0.4672060000000 1.0
C      1  0.5138170000000  0.5088630000000  0.4364020000000 1.0
C      1  0.4582530000000  0.4413290000000  0.4744430000000 1.0
C      1  0.5114070000000  0.4413290000000  0.4523980000000 1.0
C      1  0.5487980000000  0.4413300000000  0.4961390000000 1.0
C      1  0.5187530000000  0.4413300000000  0.5452160000000 1.0
C      1  0.4627930000000  0.4413290000000  0.5318070000000 1.0
C      1  0.5365170000000  0.4505360000000  0.4412720000000 1.0
C      1  0.5671380000000  0.4505370000000  0.5165810000000 1.0
C      1  0.5049780000000  0.4505360000000  0.5689750000000 1.0
C      1  0.4359400000000  0.4505350000000  0.5260490000000 1.0
C      1  0.4554310000000  0.4505350000000  0.4471240000000 1.0
C      1  0.5605250000000  0.4751280000000  0.5308720000000 1.0
C      1  0.4893420000000  0.4751270000000  0.5671020000000 1.0
C      1  0.4328900000000  0.4751260000000  0.5105990000000 1.0
C      1  0.4691810000000  0.4751260000000  0.4394490000000 1.0
C      1  0.5480640000000  0.4751280000000  0.4519780000000 1.0
C      1  0.4754190000000  0.4606020000000  0.4899170000000 1.0
C      1  0.5019940000000  0.4606020000000  0.4735050000000 1.0
C      1  0.5258150000000  0.4606020000000  0.4937090000000 1.0
C      1  0.5139610000000  0.4606030000000  0.5226070000000 1.0
C      1  0.4828150000000  0.4606020000000  0.5202630000000 1.0
END
