TITL C-3985259-1859-796 -9.02846291351954e-08 125000 -317.138281506609 0 0 60 (Td) n - 1
REM
REM in /home/nfs/bkarasulu/CARBON/AIRSS/Generating-Clusters/TERSOFF/Higher-Symm/Only-C60
REM
REM
REM
REM
REM
REM ./C.cell (28575a23ae977d3b5fae324c64b13b57)
REM
REM compiler GCC version 9.2.1 20190827 (Red Hat 9.2.1-1)
REM options -cpp -mtune=generic -march=x86-64 -g -O0 -fpre-include=/usr/include/finclude/math-vector-fortran.h
REM seed -1831775509 -880268718 2079302298 613641721 855506032 -1397353459 551203124 2060230393 152661397 -2048725315 1360907589 -1011441452 953532838 964023391 1629979596 2044026303 497097667 1623290800 -1976283140 1384529264 894266086 484886999 -580988204 -1826408299 570703082 -1445446845 949282327 -414283067 -1047466379 -102307233 -604053483 1112690367 -1283176552
REM
CELL 1.54180   50.00000   50.00000   50.00000   90.00000   90.00000   90.00000
LATT -1
SFAC C  
C      1  0.4931070000000  0.5297170000000  0.5524150000000 1.0
C      1  0.5524150000000  0.4931070000000  0.5297170000000 1.0
C      1  0.5297170000000  0.5524150000000  0.4931070000000 1.0
C      1  0.4931070000000  0.4702830000000  0.4475850000000 1.0
C      1  0.5068930000000  0.4702830000000  0.5524150000000 1.0
C      1  0.5068930000000  0.5297170000000  0.4475850000000 1.0
C      1  0.5524150000000  0.5068930000000  0.4702830000000 1.0
C      1  0.4475850000000  0.5068930000000  0.5297170000000 1.0
C      1  0.4475850000000  0.4931070000000  0.4702830000000 1.0
C      1  0.5297170000000  0.4475850000000  0.5068930000000 1.0
C      1  0.4702830000000  0.4475850000000  0.4931070000000 1.0
C      1  0.4702830000000  0.5524150000000  0.5068930000000 1.0
C      1  0.4931070000000  0.5524150000000  0.5297170000000 1.0
C      1  0.5524150000000  0.5297170000000  0.4931070000000 1.0
C      1  0.5297170000000  0.4931070000000  0.5524150000000 1.0
C      1  0.4931070000000  0.4475850000000  0.4702830000000 1.0
C      1  0.5068930000000  0.5524150000000  0.4702830000000 1.0
C      1  0.5068930000000  0.4475850000000  0.5297170000000 1.0
C      1  0.5524150000000  0.4702830000000  0.5068930000000 1.0
C      1  0.4475850000000  0.5297170000000  0.5068930000000 1.0
C      1  0.4475850000000  0.4702830000000  0.4931070000000 1.0
C      1  0.5297170000000  0.5068930000000  0.4475850000000 1.0
C      1  0.4702830000000  0.4931070000000  0.4475850000000 1.0
C      1  0.4702830000000  0.5068930000000  0.5524150000000 1.0
C      1  0.5714800000000  0.5489740000000  0.4734860000000 1.0
C      1  0.4734860000000  0.5714800000000  0.5489740000000 1.0
C      1  0.5489740000000  0.4734860000000  0.5714800000000 1.0
C      1  0.5714800000000  0.4510260000000  0.5265140000000 1.0
C      1  0.4285200000000  0.4510260000000  0.4734860000000 1.0
C      1  0.4285200000000  0.5489740000000  0.5265140000000 1.0
C      1  0.4734860000000  0.4285200000000  0.4510260000000 1.0
C      1  0.5265140000000  0.4285200000000  0.5489740000000 1.0
C      1  0.5265140000000  0.5714800000000  0.4510260000000 1.0
C      1  0.5489740000000  0.5265140000000  0.4285200000000 1.0
C      1  0.4510260000000  0.5265140000000  0.5714800000000 1.0
C      1  0.4510260000000  0.4734860000000  0.4285200000000 1.0
C      1  0.5714800000000  0.4734860000000  0.5489740000000 1.0
C      1  0.4734860000000  0.5489740000000  0.5714800000000 1.0
C      1  0.5489740000000  0.5714800000000  0.4734860000000 1.0
C      1  0.5714800000000  0.5265140000000  0.4510260000000 1.0
C      1  0.4285200000000  0.4734860000000  0.4510260000000 1.0
C      1  0.4285200000000  0.5265140000000  0.5489740000000 1.0
C      1  0.4734860000000  0.4510260000000  0.4285200000000 1.0
C      1  0.5265140000000  0.5489740000000  0.4285200000000 1.0
C      1  0.5265140000000  0.4510260000000  0.5714800000000 1.0
C      1  0.5489740000000  0.4285200000000  0.5265140000000 1.0
C      1  0.4510260000000  0.5714800000000  0.5265140000000 1.0
C      1  0.4510260000000  0.4285200000000  0.4734860000000 1.0
C      1  0.5605520000000  0.4806310000000  0.4806310000000 1.0
C      1  0.5193690000000  0.4806310000000  0.4394480000000 1.0
C      1  0.4394480000000  0.5193690000000  0.4806310000000 1.0
C      1  0.4806310000000  0.5193690000000  0.4394480000000 1.0
C      1  0.4806310000000  0.4806310000000  0.5605520000000 1.0
C      1  0.4394480000000  0.4806310000000  0.5193690000000 1.0
C      1  0.4806310000000  0.5605520000000  0.4806310000000 1.0
C      1  0.5193690000000  0.4394480000000  0.4806310000000 1.0
C      1  0.5193690000000  0.5605520000000  0.5193690000000 1.0
C      1  0.4806310000000  0.4394480000000  0.5193690000000 1.0
C      1  0.5193690000000  0.5193690000000  0.5605520000000 1.0
C      1  0.5605520000000  0.5193690000000  0.5193690000000 1.0
END
