TITL C-3985250-725-822 -0.000172194100580459 125000 -331.231183741016 0 0 60 (C5) n - 1
REM
REM in /home/nfs/bkarasulu/CARBON/AIRSS/Generating-Clusters/TERSOFF/Higher-Symm/Only-C60
REM
REM
REM
REM
REM
REM ./C.cell (28575a23ae977d3b5fae324c64b13b57)
REM
REM compiler GCC version 9.2.1 20190827 (Red Hat 9.2.1-1)
REM options -cpp -mtune=generic -march=x86-64 -g -O0 -fpre-include=/usr/include/finclude/math-vector-fortran.h
REM seed 1753045531 937121735 1132836534 -455012187 -1134671955 -1864787117 -907021927 230520125 -358770521 -625778023 1664570806 974001302 1325046687 -1365478241 1850282342 -1909306214 392088779 491272479 1883796855 -28931693 -471762290 169879274 -1011987068 -879661353 -463963344 -462138635 1213643661 -984349880 1027236486 -596361136 -994231775 -1762791993 -1858400824
REM
CELL 1.54180   50.00000   50.00000   50.00000   90.00000   90.00000   90.00000
LATT -1
SFAC C  
C      1  0.5291920000000  0.4692920000000  0.5488010000000 1.0
C      1  0.5382260000000  0.5182740000000  0.5488010000000 1.0
C      1  0.4944330000000  0.5420020000000  0.5488010000000 1.0
C      1  0.4583330000000  0.5076850000000  0.5488010000000 1.0
C      1  0.4798150000000  0.4627470000000  0.5488010000000 1.0
C      1  0.5642080000000  0.4757680000000  0.4680830000000 1.0
C      1  0.5428920000000  0.5535760000000  0.4680840000000 1.0
C      1  0.4623020000000  0.5573500000000  0.4680840000000 1.0
C      1  0.4338100000000  0.4818660000000  0.4680830000000 1.0
C      1  0.4967970000000  0.4314480000000  0.4680830000000 1.0
C      1  0.5136510000000  0.5500140000000  0.4740810000000 1.0
C      1  0.4566550000000  0.5284390000000  0.4740820000000 1.0
C      1  0.4595520000000  0.4675710000000  0.4740820000000 1.0
C      1  0.5183410000000  0.4515080000000  0.4740810000000 1.0
C      1  0.5517870000000  0.5024650000000  0.4740800000000 1.0
C      1  0.4638370000000  0.5389980000000  0.5334520000000 1.0
C      1  0.4517360000000  0.4776580000000  0.5334530000000 1.0
C      1  0.5063340000000  0.4471940000000  0.5334520000000 1.0
C      1  0.5521780000000  0.4897060000000  0.5334520000000 1.0
C      1  0.5259140000000  0.5464440000000  0.5334520000000 1.0
C      1  0.5599720000000  0.5485100000000  0.4913090000000 1.0
C      1  0.4723920000000  0.5720250000000  0.4913080000000 1.0
C      1  0.4229680000000  0.4960050000000  0.4913090000000 1.0
C      1  0.4799870000000  0.4255060000000  0.4913110000000 1.0
C      1  0.5646630000000  0.4579470000000  0.4913100000000 1.0
C      1  0.5011640000000  0.5707670000000  0.4922090000000 1.0
C      1  0.4330550000000  0.5229710000000  0.4922080000000 1.0
C      1  0.4574730000000  0.4434230000000  0.4922050000000 1.0
C      1  0.5406670000000  0.4420710000000  0.4922060000000 1.0
C      1  0.5676620000000  0.5207670000000  0.4922070000000 1.0
C      1  0.4802630000000  0.4844430000000  0.4891790000000 1.0
C      1  0.5086960000000  0.4764280000000  0.4891820000000 1.0
C      1  0.5251020000000  0.5009790000000  0.4891840000000 1.0
C      1  0.5068340000000  0.5241780000000  0.4891820000000 1.0
C      1  0.4791100000000  0.5139720000000  0.4891790000000 1.0
C      1  0.4713130000000  0.5082280000000  0.4473880000000 1.0
C      1  0.4833110000000  0.4752590000000  0.4473880000000 1.0
C      1  0.5183730000000  0.4764820000000  0.4473880000000 1.0
C      1  0.5280450000000  0.5102060000000  0.4473880000000 1.0
C      1  0.4989600000000  0.5298260000000  0.4473880000000 1.0
C      1  0.4750590000000  0.5045510000000  0.5732350000000 1.0
C      1  0.4879650000000  0.4776860000000  0.5732350000000 1.0
C      1  0.5175030000000  0.4816590000000  0.5732350000000 1.0
C      1  0.5228520000000  0.5109780000000  0.5732350000000 1.0
C      1  0.4966210000000  0.5251260000000  0.5732350000000 1.0
C      1  0.5324260000000  0.4350870000000  0.5191160000000 1.0
C      1  0.5717570000000  0.5107820000000  0.5191160000000 1.0
C      1  0.5119210000000  0.5715760000000  0.5191140000000 1.0
C      1  0.4356110000000  0.5334560000000  0.5191150000000 1.0
C      1  0.4482840000000  0.4491020000000  0.5191160000000 1.0
C      1  0.4608370000000  0.5669930000000  0.5176260000000 1.0
C      1  0.4241840000000  0.4834560000000  0.5176260000000 1.0
C      1  0.4923070000000  0.4227820000000  0.5176260000000 1.0
C      1  0.5710620000000  0.4688220000000  0.5176270000000 1.0
C      1  0.5516100000000  0.5579490000000  0.5176270000000 1.0
C      1  0.5473060000000  0.5350640000000  0.4455190000000 1.0
C      1  0.4812700000000  0.5558260000000  0.4455190000000 1.0
C      1  0.4411180000000  0.4994380000000  0.4455190000000 1.0
C      1  0.4823380000000  0.4438270000000  0.4455190000000 1.0
C      1  0.5479660000000  0.4658440000000  0.4455190000000 1.0
END
