TITL C-3985250-725-1187 0.00665825454048534 125000 -329.382834360531 0 0 60 (Ci) n - 1
REM
REM in /home/nfs/bkarasulu/CARBON/AIRSS/Generating-Clusters/TERSOFF/Higher-Symm/Only-C60
REM
REM
REM
REM
REM
REM ./C.cell (28575a23ae977d3b5fae324c64b13b57)
REM
REM compiler GCC version 9.2.1 20190827 (Red Hat 9.2.1-1)
REM options -cpp -mtune=generic -march=x86-64 -g -O0 -fpre-include=/usr/include/finclude/math-vector-fortran.h
REM seed -1030746458 -1843848132 -877295981 -3695947 232835635 -704058948 561813689 262979052 2017649973 -601239052 872556638 1834479596 107236764 236998724 2524324 1803806053 728490486 -1634198464 1112856736 -857994793 -188147994 655497815 361090780 -1041320024 -498566071 83042434 548327660 -1494606665 1210203531 901083176 -2053623408 -242626262 -324392520
REM
CELL 1.54180   50.00000   50.00000   50.00000   90.00000   90.00000   90.00000
LATT -1
SFAC C  
C      1  0.5092540000000  0.5665710000000  0.5475120000000 1.0
C      1  0.4907450000000  0.4334260000000  0.4524850000000 1.0
C      1  0.4454900000000  0.4690730000000  0.5272920000000 1.0
C      1  0.5545070000000  0.5309300000000  0.4727080000000 1.0
C      1  0.5260790000000  0.4694590000000  0.4414870000000 1.0
C      1  0.4739190000000  0.5305400000000  0.5585120000000 1.0
C      1  0.5424450000000  0.5586260000000  0.4741370000000 1.0
C      1  0.4575600000000  0.4413750000000  0.5258580000000 1.0
C      1  0.4824580000000  0.4843000000000  0.5700590000000 1.0
C      1  0.5175430000000  0.5157000000000  0.4299410000000 1.0
C      1  0.4936840000000  0.5131170000000  0.5732180000000 1.0
C      1  0.5063170000000  0.4868820000000  0.4267830000000 1.0
C      1  0.5002290000000  0.5384240000000  0.4371060000000 1.0
C      1  0.4997720000000  0.4615770000000  0.5628960000000 1.0
C      1  0.4805530000000  0.4156030000000  0.4741320000000 1.0
C      1  0.5194460000000  0.5843900000000  0.5258630000000 1.0
C      1  0.4858190000000  0.4405970000000  0.5417630000000 1.0
C      1  0.5141750000000  0.5593990000000  0.4582460000000 1.0
C      1  0.4481050000000  0.4485490000000  0.4684460000000 1.0
C      1  0.5518990000000  0.5514520000000  0.5315570000000 1.0
C      1  0.5132250000000  0.5294120000000  0.5257700000000 1.0
C      1  0.4867800000000  0.4705890000000  0.4742320000000 1.0
C      1  0.4663750000000  0.5028610000000  0.4519440000000 1.0
C      1  0.5336260000000  0.4971380000000  0.5480570000000 1.0
C      1  0.5130550000000  0.5010430000000  0.4949020000000 1.0
C      1  0.4869440000000  0.4989590000000  0.5050990000000 1.0
C      1  0.5585000000000  0.4605670000000  0.5146830000000 1.0
C      1  0.4414870000000  0.5394240000000  0.4853040000000 1.0
C      1  0.4859040000000  0.4804560000000  0.5270570000000 1.0
C      1  0.5140970000000  0.5195520000000  0.4729480000000 1.0
C      1  0.5254030000000  0.4588390000000  0.4889210000000 1.0
C      1  0.4745910000000  0.5411730000000  0.5110820000000 1.0
C      1  0.4664650000000  0.4951020000000  0.4825650000000 1.0
C      1  0.5335360000000  0.5048970000000  0.5174360000000 1.0
C      1  0.4317080000000  0.4710660000000  0.4773450000000 1.0
C      1  0.5682920000000  0.5289340000000  0.5226560000000 1.0
C      1  0.4769430000000  0.4811720000000  0.4347030000000 1.0
C      1  0.5230580000000  0.5188280000000  0.5652990000000 1.0
C      1  0.4639250000000  0.5477240000000  0.4684370000000 1.0
C      1  0.5360740000000  0.4522750000000  0.5315650000000 1.0
C      1  0.5474180000000  0.4851420000000  0.4559530000000 1.0
C      1  0.4525800000000  0.5148580000000  0.5440490000000 1.0
C      1  0.5593650000000  0.5124040000000  0.4985410000000 1.0
C      1  0.4406340000000  0.4875960000000  0.5014580000000 1.0
C      1  0.5281680000000  0.4687550000000  0.5549590000000 1.0
C      1  0.4718320000000  0.5312440000000  0.4450410000000 1.0
C      1  0.4673320000000  0.4516250000000  0.4424190000000 1.0
C      1  0.5326700000000  0.5483770000000  0.5575860000000 1.0
C      1  0.4936460000000  0.5481170000000  0.4813690000000 1.0
C      1  0.5063430000000  0.4518860000000  0.5186300000000 1.0
C      1  0.5394890000000  0.5140170000000  0.4521300000000 1.0
C      1  0.4605090000000  0.4859820000000  0.5478690000000 1.0
C      1  0.4845980000000  0.4515450000000  0.4954370000000 1.0
C      1  0.5154250000000  0.5484520000000  0.5045660000000 1.0
C      1  0.5538970000000  0.4782960000000  0.4889040000000 1.0
C      1  0.4460960000000  0.5217070000000  0.5110940000000 1.0
C      1  0.5390420000000  0.5693000000000  0.5058610000000 1.0
C      1  0.4609620000000  0.4307000000000  0.4941340000000 1.0
C      1  0.4882010000000  0.5452500000000  0.5384360000000 1.0
C      1  0.5118040000000  0.4547490000000  0.4615590000000 1.0
END
