TITL C-3985247-764-532 -3.34747276446146e-06 125000 -314.253387992443 0 0 60 (C5) n - 1
REM
REM in /home/nfs/bkarasulu/CARBON/AIRSS/Generating-Clusters/TERSOFF/Higher-Symm/Only-C60
REM
REM
REM
REM
REM
REM ./C.cell (28575a23ae977d3b5fae324c64b13b57)
REM
REM compiler GCC version 9.2.1 20190827 (Red Hat 9.2.1-1)
REM options -cpp -mtune=generic -march=x86-64 -g -O0 -fpre-include=/usr/include/finclude/math-vector-fortran.h
REM seed 1618519920 -1106156099 -493361655 -2015920503 -2107200272 -1559002578 2072014206 -335196807 -1218795240 -1963872692 29578798 -1313071923 1608941295 2066545265 1979789604 -1674425136 220139245 -401447533 447089461 -1921754259 443579375 -1547731255 565733898 661348474 -2084462648 -283900192 -822114545 -180596925 1614820659 776975628 69417848 -1511660536 1469467468
REM
CELL 1.54180   50.00000   50.00000   50.00000   90.00000   90.00000   90.00000
LATT -1
SFAC C  
C      1  0.5324170000000  0.5294310000000  0.5606750000000 1.0
C      1  0.5324170000000  0.4513900000000  0.5467400000000 1.0
C      1  0.5324180000000  0.4405260000000  0.4682120000000 1.0
C      1  0.5324170000000  0.5118540000000  0.4336140000000 1.0
C      1  0.5324160000000  0.5668000000000  0.4907590000000 1.0
C      1  0.5483730000000  0.4879580000000  0.4491390000000 1.0
C      1  0.5483720000000  0.5446510000000  0.4728300000000 1.0
C      1  0.5483720000000  0.5396380000000  0.5340690000000 1.0
C      1  0.5483730000000  0.4798470000000  0.5482260000000 1.0
C      1  0.5483730000000  0.4479070000000  0.4957360000000 1.0
C      1  0.4550170000000  0.4820640000000  0.5602130000000 1.0
C      1  0.4550190000000  0.4371900000000  0.5015490000000 1.0
C      1  0.4550180000000  0.4791170000000  0.4407430000000 1.0
C      1  0.4550170000000  0.5499030000000  0.4618290000000 1.0
C      1  0.4550170000000  0.5517240000000  0.5356650000000 1.0
C      1  0.4885810000000  0.5276490000000  0.4499690000000 1.0
C      1  0.4885810000000  0.5561250000000  0.5108350000000 1.0
C      1  0.4885810000000  0.5070390000000  0.5567260000000 1.0
C      1  0.4885820000000  0.4482240000000  0.5242250000000 1.0
C      1  0.4885820000000  0.4609610000000  0.4582440000000 1.0
C      1  0.4666320000000  0.4276150000000  0.5288570000000 1.0
C      1  0.4666320000000  0.4501860000000  0.4400750000000 1.0
C      1  0.4666310000000  0.5415980000000  0.4341080000000 1.0
C      1  0.4666310000000  0.5755210000000  0.5192000000000 1.0
C      1  0.4666300000000  0.5050780000000  0.5777570000000 1.0
C      1  0.4771360000000  0.5142360000000  0.4751010000000 1.0
C      1  0.4771360000000  0.5280790000000  0.5058450000000 1.0
C      1  0.4771360000000  0.5031180000000  0.5285110000000 1.0
C      1  0.4771370000000  0.4738470000000  0.5117760000000 1.0
C      1  0.4771370000000  0.4807180000000  0.4787660000000 1.0
C      1  0.5231250000000  0.4390180000000  0.5196500000000 1.0
C      1  0.5231250000000  0.4624680000000  0.4480740000000 1.0
C      1  0.5231240000000  0.5377860000000  0.4482590000000 1.0
C      1  0.5231240000000  0.5608840000000  0.5199470000000 1.0
C      1  0.5231230000000  0.4998440000000  0.5640690000000 1.0
C      1  0.5617890000000  0.5220970000000  0.4864820000000 1.0
C      1  0.5617900000000  0.5196850000000  0.5168380000000 1.0
C      1  0.5617900000000  0.4900700000000  0.5239240000000 1.0
C      1  0.5617900000000  0.4741790000000  0.4979490000000 1.0
C      1  0.5617900000000  0.4939730000000  0.4748080000000 1.0
C      1  0.5080480000000  0.4391680000000  0.4882790000000 1.0
C      1  0.5080470000000  0.4923490000000  0.4385240000000 1.0
C      1  0.5080460000000  0.5561040000000  0.4737260000000 1.0
C      1  0.5080470000000  0.5423250000000  0.5452390000000 1.0
C      1  0.5080470000000  0.4700550000000  0.5542330000000 1.0
C      1  0.5153880000000  0.4868140000000  0.5232240000000 1.0
C      1  0.5153890000000  0.4738390000000  0.4946350000000 1.0
C      1  0.5153890000000  0.4970180000000  0.4734610000000 1.0
C      1  0.5153880000000  0.5243190000000  0.4889630000000 1.0
C      1  0.5153880000000  0.5180120000000  0.5197180000000 1.0
C      1  0.4442230000000  0.4926000000000  0.5297240000000 1.0
C      1  0.4442240000000  0.4694430000000  0.5021480000000 1.0
C      1  0.4442240000000  0.4885130000000  0.4716030000000 1.0
C      1  0.4442230000000  0.5234570000000  0.4803010000000 1.0
C      1  0.4442230000000  0.5259830000000  0.5162220000000 1.0
C      1  0.4792710000000  0.4628710000000  0.5624450000000 1.0
C      1  0.4792720000000  0.4291370000000  0.4839850000000 1.0
C      1  0.4792720000000  0.4933340000000  0.4276570000000 1.0
C      1  0.4792700000000  0.5667430000000  0.4713050000000 1.0
C      1  0.4792710000000  0.5479160000000  0.5546090000000 1.0
END
