TITL C-3985258-5380-41 1.73680839980791e-07 125000 -209.472322053131 0 0 60 (Th) n - 1
REM
REM in /home/nfs/bkarasulu/CARBON/AIRSS/Generating-Clusters/TERSOFF/Higher-Symm/Only-C60
REM
REM
REM
REM
REM
REM ./C.cell (28575a23ae977d3b5fae324c64b13b57)
REM
REM compiler GCC version 9.2.1 20190827 (Red Hat 9.2.1-1)
REM options -cpp -mtune=generic -march=x86-64 -g -O0 -fpre-include=/usr/include/finclude/math-vector-fortran.h
REM seed -1466864858 -555922345 -738999321 -1238016140 271650046 -1004462604 608897978 1488623308 1384333031 1690315845 1761999453 1671528902 184959983 -1885188482 -623978205 1717020885 2009159195 -11613298 1852865221 288195433 275269492 1777487221 -103217826 -375312145 661491622 -716133810 1897808339 -797639705 1716915267 1042150004 724741581 1779497478 -140735169
REM
CELL 1.54180   50.00000   50.00000   50.00000   90.00000   90.00000   90.00000
LATT -1
SFAC C  
C      1  0.5456010000000  0.4817320000000  0.5456130000000 1.0
C      1  0.4817320000000  0.5456130000000  0.5456010000000 1.0
C      1  0.5456130000000  0.5456010000000  0.4817320000000 1.0
C      1  0.4543990000000  0.5182680000000  0.5456130000000 1.0
C      1  0.5456010000000  0.5182680000000  0.4543870000000 1.0
C      1  0.4543990000000  0.4817320000000  0.4543870000000 1.0
C      1  0.5182680000000  0.4543870000000  0.5456010000000 1.0
C      1  0.4817320000000  0.4543870000000  0.4543990000000 1.0
C      1  0.5182680000000  0.5456130000000  0.4543990000000 1.0
C      1  0.4543870000000  0.4543990000000  0.4817320000000 1.0
C      1  0.5456130000000  0.4543990000000  0.5182680000000 1.0
C      1  0.4543870000000  0.5456010000000  0.5182680000000 1.0
C      1  0.5456010000000  0.4817320000000  0.4543870000000 1.0
C      1  0.4817320000000  0.5456130000000  0.4543990000000 1.0
C      1  0.5456130000000  0.5456010000000  0.5182680000000 1.0
C      1  0.4543990000000  0.5182680000000  0.4543870000000 1.0
C      1  0.5456010000000  0.5182680000000  0.5456130000000 1.0
C      1  0.4543990000000  0.4817320000000  0.5456130000000 1.0
C      1  0.5182680000000  0.4543870000000  0.4543990000000 1.0
C      1  0.4817320000000  0.4543870000000  0.5456010000000 1.0
C      1  0.5182680000000  0.5456130000000  0.5456010000000 1.0
C      1  0.4543870000000  0.4543990000000  0.5182680000000 1.0
C      1  0.5456130000000  0.4543990000000  0.4817320000000 1.0
C      1  0.4543870000000  0.5456010000000  0.4817320000000 1.0
C      1  0.5173060000000  0.5681010000000  0.4829510000000 1.0
C      1  0.5681010000000  0.4829510000000  0.5173060000000 1.0
C      1  0.4829510000000  0.5173060000000  0.5681010000000 1.0
C      1  0.4826940000000  0.4318990000000  0.4829510000000 1.0
C      1  0.5173060000000  0.4318990000000  0.5170490000000 1.0
C      1  0.4826940000000  0.5681010000000  0.5170490000000 1.0
C      1  0.4318990000000  0.5170490000000  0.5173060000000 1.0
C      1  0.5681010000000  0.5170490000000  0.4826940000000 1.0
C      1  0.4318990000000  0.4829510000000  0.4826940000000 1.0
C      1  0.5170490000000  0.4826940000000  0.5681010000000 1.0
C      1  0.4829510000000  0.4826940000000  0.4318990000000 1.0
C      1  0.5170490000000  0.5173060000000  0.4318990000000 1.0
C      1  0.5173060000000  0.5681010000000  0.5170490000000 1.0
C      1  0.5681010000000  0.4829510000000  0.4826940000000 1.0
C      1  0.4829510000000  0.5173060000000  0.4318990000000 1.0
C      1  0.4826940000000  0.4318990000000  0.5170490000000 1.0
C      1  0.5173060000000  0.4318990000000  0.4829510000000 1.0
C      1  0.4826940000000  0.5681010000000  0.4829510000000 1.0
C      1  0.4318990000000  0.5170490000000  0.4826940000000 1.0
C      1  0.5681010000000  0.5170490000000  0.5173060000000 1.0
C      1  0.4318990000000  0.4829510000000  0.5173060000000 1.0
C      1  0.5170490000000  0.4826940000000  0.4318990000000 1.0
C      1  0.4829510000000  0.4826940000000  0.5681010000000 1.0
C      1  0.5170490000000  0.5173060000000  0.5681010000000 1.0
C      1  0.4816150000000  0.5000000000000  0.5299260000000 1.0
C      1  0.5000000000000  0.5299260000000  0.4816150000000 1.0
C      1  0.5299260000000  0.4816150000000  0.5000000000000 1.0
C      1  0.5183850000000  0.5000000000000  0.5299260000000 1.0
C      1  0.4816150000000  0.5000000000000  0.4700740000000 1.0
C      1  0.5183850000000  0.5000000000000  0.4700740000000 1.0
C      1  0.5000000000000  0.4700740000000  0.4816150000000 1.0
C      1  0.5000000000000  0.4700740000000  0.5183850000000 1.0
C      1  0.5000000000000  0.5299260000000  0.5183850000000 1.0
C      1  0.4700740000000  0.5183850000000  0.5000000000000 1.0
C      1  0.5299260000000  0.5183850000000  0.5000000000000 1.0
C      1  0.4700740000000  0.4816150000000  0.5000000000000 1.0
END
