TITL C-3985251-913-675 2.70463775274248e-09 125000 -337.255515619309 0 0 60 (D2) n - 1
REM
REM in /home/nfs/bkarasulu/CARBON/AIRSS/Generating-Clusters/TERSOFF/Higher-Symm/Only-C60
REM
REM
REM
REM
REM
REM ./C.cell (28575a23ae977d3b5fae324c64b13b57)
REM
REM compiler GCC version 9.2.1 20190827 (Red Hat 9.2.1-1)
REM options -cpp -mtune=generic -march=x86-64 -g -O0 -fpre-include=/usr/include/finclude/math-vector-fortran.h
REM seed 1616436443 -135187333 2073280957 -592694667 -505367168 1344218224 1863533166 -686127334 -2024500013 1299331784 2052596930 -628451899 9289770 -560676914 -809845319 1772320858 725460804 -771060037 110134285 -804132118 578801655 871984001 -329039084 1465674731 1957401367 49215488 388885244 -2099729898 819782606 1182120362 -1551451404 -1152224543 -831293311
REM
CELL 1.54180   50.00000   50.00000   50.00000   90.00000   90.00000   90.00000
LATT -1
SFAC C  
C      1  0.4872250000000  0.5138700000000  0.4519760000000 1.0
C      1  0.5127750000000  0.4861300000000  0.4519760000000 1.0
C      1  0.4872250000000  0.4861300000000  0.5480240000000 1.0
C      1  0.5127750000000  0.5138700000000  0.5480240000000 1.0
C      1  0.4897650000000  0.5181520000000  0.4872190000000 1.0
C      1  0.5102350000000  0.4818480000000  0.4872190000000 1.0
C      1  0.4897650000000  0.4818480000000  0.5127810000000 1.0
C      1  0.5102350000000  0.5181520000000  0.5127810000000 1.0
C      1  0.4560470000000  0.5026910000000  0.5559840000000 1.0
C      1  0.5439530000000  0.4973090000000  0.5559840000000 1.0
C      1  0.4560470000000  0.4973090000000  0.4440160000000 1.0
C      1  0.5439530000000  0.5026910000000  0.4440160000000 1.0
C      1  0.4365970000000  0.4680720000000  0.5271700000000 1.0
C      1  0.5634030000000  0.5319280000000  0.5271700000000 1.0
C      1  0.4365970000000  0.5319280000000  0.4728300000000 1.0
C      1  0.5634030000000  0.4680720000000  0.4728300000000 1.0
C      1  0.4778700000000  0.5593540000000  0.4803870000000 1.0
C      1  0.5221300000000  0.4406460000000  0.4803870000000 1.0
C      1  0.4778700000000  0.4406460000000  0.5196130000000 1.0
C      1  0.5221300000000  0.5593540000000  0.5196130000000 1.0
C      1  0.4951300000000  0.5604410000000  0.5293140000000 1.0
C      1  0.5048700000000  0.4395590000000  0.5293140000000 1.0
C      1  0.4951300000000  0.4395590000000  0.4706860000000 1.0
C      1  0.5048700000000  0.5604410000000  0.4706860000000 1.0
C      1  0.5385660000000  0.4958900000000  0.5145180000000 1.0
C      1  0.4614340000000  0.5041100000000  0.5145180000000 1.0
C      1  0.5385660000000  0.5041100000000  0.4854820000000 1.0
C      1  0.4614340000000  0.4958900000000  0.4854820000000 1.0
C      1  0.4552890000000  0.5366720000000  0.5197670000000 1.0
C      1  0.5447110000000  0.4633280000000  0.5197670000000 1.0
C      1  0.4552890000000  0.4633280000000  0.4802330000000 1.0
C      1  0.5447110000000  0.5366720000000  0.4802330000000 1.0
C      1  0.4620000000000  0.5310730000000  0.5497840000000 1.0
C      1  0.5380000000000  0.4689270000000  0.5497840000000 1.0
C      1  0.4620000000000  0.4689270000000  0.4502160000000 1.0
C      1  0.5380000000000  0.5310730000000  0.4502160000000 1.0
C      1  0.4165310000000  0.4909470000000  0.4873190000000 1.0
C      1  0.5834690000000  0.5090530000000  0.4873190000000 1.0
C      1  0.4165310000000  0.5090530000000  0.5126810000000 1.0
C      1  0.5834690000000  0.4909470000000  0.5126810000000 1.0
C      1  0.4305660000000  0.4665820000000  0.4969900000000 1.0
C      1  0.5694340000000  0.5334180000000  0.4969900000000 1.0
C      1  0.4305660000000  0.5334180000000  0.5030100000000 1.0
C      1  0.5694340000000  0.4665820000000  0.5030100000000 1.0
C      1  0.4733910000000  0.5575310000000  0.5094990000000 1.0
C      1  0.5266090000000  0.4424690000000  0.5094990000000 1.0
C      1  0.4733910000000  0.4424690000000  0.4905010000000 1.0
C      1  0.5266090000000  0.5575310000000  0.4905010000000 1.0
C      1  0.4908710000000  0.4604430000000  0.4487530000000 1.0
C      1  0.5091290000000  0.5395570000000  0.4487530000000 1.0
C      1  0.4908710000000  0.5395570000000  0.5512470000000 1.0
C      1  0.5091290000000  0.4604430000000  0.5512470000000 1.0
C      1  0.4289120000000  0.4940220000000  0.5389930000000 1.0
C      1  0.5710880000000  0.5059780000000  0.5389930000000 1.0
C      1  0.4289120000000  0.5059780000000  0.4610070000000 1.0
C      1  0.5710880000000  0.4940220000000  0.4610070000000 1.0
C      1  0.4633890000000  0.4600280000000  0.5368280000000 1.0
C      1  0.5366110000000  0.5399720000000  0.5368280000000 1.0
C      1  0.4633890000000  0.5399720000000  0.4631720000000 1.0
C      1  0.5366110000000  0.4600280000000  0.4631720000000 1.0
END
