TITL C-3985250-725-475 0.00658002408024872 125000 -292.684564706339 0 0 60 (C5) n - 1
REM
REM in /home/nfs/bkarasulu/CARBON/AIRSS/Generating-Clusters/TERSOFF/Higher-Symm/Only-C60
REM
REM
REM
REM
REM
REM ./C.cell (28575a23ae977d3b5fae324c64b13b57)
REM
REM compiler GCC version 9.2.1 20190827 (Red Hat 9.2.1-1)
REM options -cpp -mtune=generic -march=x86-64 -g -O0 -fpre-include=/usr/include/finclude/math-vector-fortran.h
REM seed -608078460 -873344715 883887021 -179839093 1955857624 -1764953626 1610857416 -777506747 199595633 -1040069222 1056025002 188572622 -1868517938 -900969683 1494378374 -739019496 821508961 1476371145 -129562522 -508735305 -1519679683 -1644186440 1392859958 1490550434 -987489595 -961657954 -1618727331 664335638 824179288 -764708901 1985003836 -1080967619 -1540636870
REM
CELL 1.54180   50.00000   50.00000   50.00000   90.00000   90.00000   90.00000
LATT -1
SFAC C  
C      1  0.5552050000000  0.5234050000000  0.5489310000000 1.0
C      1  0.5393350000000  0.4547250000000  0.5489440000000 1.0
C      1  0.4690870000000  0.4484710000000  0.5489800000000 1.0
C      1  0.4415480000000  0.5134870000000  0.5489130000000 1.0
C      1  0.4947470000000  0.5597790000000  0.5489770000000 1.0
C      1  0.4982560000000  0.4402430000000  0.5408910000000 1.0
C      1  0.4426310000000  0.4830940000000  0.5409130000000 1.0
C      1  0.4662790000000  0.5492730000000  0.5409040000000 1.0
C      1  0.5364290000000  0.5472840000000  0.5408960000000 1.0
C      1  0.5561970000000  0.4799790000000  0.5408240000000 1.0
C      1  0.4633700000000  0.4735700000000  0.4560940000000 1.0
C      1  0.4635570000000  0.5266550000000  0.4560980000000 1.0
C      1  0.5140780000000  0.5429840000000  0.4560200000000 1.0
C      1  0.5453690000000  0.4998800000000  0.4559040000000 1.0
C      1  0.5138500000000  0.4567920000000  0.4559300000000 1.0
C      1  0.5419160000000  0.5022890000000  0.5082270000000 1.0
C      1  0.5150800000000  0.4608010000000  0.5082920000000 1.0
C      1  0.4674140000000  0.4737100000000  0.5084460000000 1.0
C      1  0.4647930000000  0.5228760000000  0.5082970000000 1.0
C      1  0.5108800000000  0.5405890000000  0.5082650000000 1.0
C      1  0.4586080000000  0.4470440000000  0.4736710000000 1.0
C      1  0.4367660000000  0.5229590000000  0.4735120000000 1.0
C      1  0.5023320000000  0.5672970000000  0.4735700000000 1.0
C      1  0.5647330000000  0.5186190000000  0.4736000000000 1.0
C      1  0.5376450000000  0.4442390000000  0.4736700000000 1.0
C      1  0.5727860000000  0.5062840000000  0.5025190000000 1.0
C      1  0.5284720000000  0.4327050000000  0.5025310000000 1.0
C      1  0.4449350000000  0.4522710000000  0.5026110000000 1.0
C      1  0.4374950000000  0.5376210000000  0.5024790000000 1.0
C      1  0.5165030000000  0.5711200000000  0.5025260000000 1.0
C      1  0.5699140000000  0.4710410000000  0.5103900000000 1.0
C      1  0.4940400000000  0.4246060000000  0.5104200000000 1.0
C      1  0.4260920000000  0.4822190000000  0.5104580000000 1.0
C      1  0.4604020000000  0.5645340000000  0.5104680000000 1.0
C      1  0.5491340000000  0.5575920000000  0.5104530000000 1.0
C      1  0.5007580000000  0.4719870000000  0.4827080000000 1.0
C      1  0.4736810000000  0.4906980000000  0.4827220000000 1.0
C      1  0.4830120000000  0.5222500000000  0.4826950000000 1.0
C      1  0.5159300000000  0.5230580000000  0.4826480000000 1.0
C      1  0.5269210000000  0.4920790000000  0.4825630000000 1.0
C      1  0.5087770000000  0.4755530000000  0.4323100000000 1.0
C      1  0.4794770000000  0.4841010000000  0.4323640000000 1.0
C      1  0.4785150000000  0.5146130000000  0.4323770000000 1.0
C      1  0.5072500000000  0.5249460000000  0.4323730000000 1.0
C      1  0.5259600000000  0.5008030000000  0.4323260000000 1.0
C      1  0.4868010000000  0.4415160000000  0.4839750000000 1.0
C      1  0.4403000000000  0.4944770000000  0.4840880000000 1.0
C      1  0.4763800000000  0.5550700000000  0.4841100000000 1.0
C      1  0.5451180000000  0.5395060000000  0.4840820000000 1.0
C      1  0.5514680000000  0.4693390000000  0.4840370000000 1.0
C      1  0.4254330000000  0.5163880000000  0.5220290000000 1.0
C      1  0.4925390000000  0.5760350000000  0.5220490000000 1.0
C      1  0.5700160000000  0.5305940000000  0.5220630000000 1.0
C      1  0.5506990000000  0.4428600000000  0.5220520000000 1.0
C      1  0.4612570000000  0.4340580000000  0.5220740000000 1.0
C      1  0.5108880000000  0.4713330000000  0.5381650000000 1.0
C      1  0.4761120000000  0.4807830000000  0.5382860000000 1.0
C      1  0.4742900000000  0.5167730000000  0.5381660000000 1.0
C      1  0.5079690000000  0.5296070000000  0.5380850000000 1.0
C      1  0.5305720000000  0.5015340000000  0.5380280000000 1.0
END
