TITL C-3985254-1270-1406 -2.53135296592859e-07 125000 -282.854118393666 0 0 60 (C4) n - 1
REM
REM in /home/nfs/bkarasulu/CARBON/AIRSS/Generating-Clusters/TERSOFF/Higher-Symm/Only-C60
REM
REM
REM
REM
REM
REM ./C.cell (28575a23ae977d3b5fae324c64b13b57)
REM
REM compiler GCC version 9.2.1 20190827 (Red Hat 9.2.1-1)
REM options -cpp -mtune=generic -march=x86-64 -g -O0 -fpre-include=/usr/include/finclude/math-vector-fortran.h
REM seed -2070888832 -1173391036 1983082249 -760897549 602171077 1159101161 908102472 -1578417840 -786474533 1351765148 793204525 1515623017 1841448318 1648190571 -1886114694 1578215997 -236751320 1483181328 1738947184 -1021953941 -1186796991 -892521050 -979397410 2123697027 -1816309220 1649608767 -1704790355 1088800969 203037568 -146129082 105552578 -1719980566 822235823
REM
CELL 1.54180   50.00000   50.00000   50.00000   90.00000   90.00000   90.00000
LATT -1
SFAC C  
C      1  0.4861390000000  0.4275420000000  0.4690490000000 1.0
C      1  0.5724580000000  0.4861390000000  0.4690490000000 1.0
C      1  0.5138610000000  0.5724580000000  0.4690490000000 1.0
C      1  0.4275420000000  0.5138610000000  0.4690490000000 1.0
C      1  0.5287330000000  0.5452390000000  0.5061860000000 1.0
C      1  0.4547610000000  0.5287330000000  0.5061860000000 1.0
C      1  0.4712670000000  0.4547610000000  0.5061860000000 1.0
C      1  0.5452390000000  0.4712670000000  0.5061860000000 1.0
C      1  0.5124710000000  0.4812170000000  0.4309750000000 1.0
C      1  0.5187830000000  0.5124710000000  0.4309750000000 1.0
C      1  0.4875290000000  0.5187830000000  0.4309750000000 1.0
C      1  0.4812170000000  0.4875290000000  0.4309750000000 1.0
C      1  0.5005680000000  0.5781760000000  0.5230150000000 1.0
C      1  0.4218240000000  0.5005680000000  0.5230150000000 1.0
C      1  0.4994320000000  0.4218240000000  0.5230150000000 1.0
C      1  0.5781760000000  0.4994320000000  0.5230150000000 1.0
C      1  0.4655490000000  0.4596010000000  0.5474490000000 1.0
C      1  0.5403990000000  0.4655490000000  0.5474490000000 1.0
C      1  0.5344510000000  0.5403990000000  0.5474490000000 1.0
C      1  0.4596010000000  0.5344510000000  0.5474490000000 1.0
C      1  0.5086480000000  0.5436150000000  0.4602670000000 1.0
C      1  0.4563850000000  0.5086480000000  0.4602670000000 1.0
C      1  0.4913520000000  0.4563850000000  0.4602670000000 1.0
C      1  0.5436150000000  0.4913520000000  0.4602670000000 1.0
C      1  0.4721310000000  0.4899250000000  0.5138730000000 1.0
C      1  0.5100750000000  0.4721310000000  0.5138730000000 1.0
C      1  0.5278690000000  0.5100750000000  0.5138730000000 1.0
C      1  0.4899250000000  0.5278690000000  0.5138730000000 1.0
C      1  0.4365900000000  0.5046520000000  0.4970780000000 1.0
C      1  0.4953480000000  0.4365900000000  0.4970780000000 1.0
C      1  0.5634100000000  0.4953480000000  0.4970780000000 1.0
C      1  0.5046520000000  0.5634100000000  0.4970780000000 1.0
C      1  0.5398280000000  0.4310830000000  0.5166930000000 1.0
C      1  0.5689170000000  0.5398280000000  0.5166930000000 1.0
C      1  0.4601720000000  0.5689170000000  0.5166930000000 1.0
C      1  0.4310830000000  0.4601720000000  0.5166930000000 1.0
C      1  0.5535050000000  0.5279320000000  0.4861250000000 1.0
C      1  0.4720680000000  0.5535050000000  0.4861250000000 1.0
C      1  0.4464950000000  0.4720680000000  0.4861250000000 1.0
C      1  0.5279320000000  0.4464950000000  0.4861250000000 1.0
C      1  0.5224160000000  0.4976940000000  0.4830410000000 1.0
C      1  0.5023060000000  0.5224160000000  0.4830410000000 1.0
C      1  0.4775840000000  0.5023060000000  0.4830410000000 1.0
C      1  0.4976940000000  0.4775840000000  0.4830410000000 1.0
C      1  0.4750650000000  0.5366600000000  0.4542340000000 1.0
C      1  0.4633400000000  0.4750650000000  0.4542340000000 1.0
C      1  0.5249350000000  0.4633400000000  0.4542340000000 1.0
C      1  0.5366600000000  0.5249350000000  0.4542340000000 1.0
C      1  0.5173830000000  0.4378420000000  0.5443160000000 1.0
C      1  0.5621580000000  0.5173830000000  0.5443160000000 1.0
C      1  0.4826170000000  0.5621580000000  0.5443160000000 1.0
C      1  0.4378420000000  0.4826170000000  0.5443160000000 1.0
C      1  0.4622470000000  0.5036270000000  0.5404510000000 1.0
C      1  0.4963730000000  0.4622470000000  0.5404510000000 1.0
C      1  0.5377530000000  0.4963730000000  0.5404510000000 1.0
C      1  0.5036270000000  0.5377530000000  0.5404510000000 1.0
C      1  0.5476000000000  0.5607990000000  0.5272470000000 1.0
C      1  0.4392010000000  0.5476000000000  0.5272470000000 1.0
C      1  0.4524000000000  0.4392010000000  0.5272470000000 1.0
C      1  0.5607990000000  0.4524000000000  0.5272470000000 1.0
END
