TITL C-3985253-1688-245 0.00222266982319706 125000 -338.228964814427 0 0 60 (Ci) n - 1
REM
REM in /home/nfs/bkarasulu/CARBON/AIRSS/Generating-Clusters/TERSOFF/Higher-Symm/Only-C60
REM
REM
REM
REM
REM
REM ./C.cell (28575a23ae977d3b5fae324c64b13b57)
REM
REM compiler GCC version 9.2.1 20190827 (Red Hat 9.2.1-1)
REM options -cpp -mtune=generic -march=x86-64 -g -O0 -fpre-include=/usr/include/finclude/math-vector-fortran.h
REM seed 924482575 -1868670425 483287568 95487239 992749025 -1454184678 -1133252067 294213487 -491442671 -1147317315 1639409883 -225316529 1891870066 -384266849 114929673 -1536465182 -1959443188 -1210098372 1026181174 199048791 -781527040 1047072003 1816579383 1739990490 -580154215 -1831793996 2099133066 1952076960 -799178473 -1929981409 -122482578 1902463376 748161691
REM
CELL 1.54180   50.00000   50.00000   50.00000   90.00000   90.00000   90.00000
LATT -1
SFAC C  
C      1  0.4846820000000  0.5154480000000  0.5173380000000 1.0
C      1  0.5153130000000  0.4845590000000  0.4826580000000 1.0
C      1  0.4712630000000  0.4835490000000  0.5705630000000 1.0
C      1  0.5287390000000  0.5164450000000  0.4294330000000 1.0
C      1  0.4834040000000  0.4437470000000  0.4809620000000 1.0
C      1  0.5165910000000  0.5562570000000  0.5190400000000 1.0
C      1  0.5633510000000  0.5204280000000  0.5130690000000 1.0
C      1  0.4366440000000  0.4795710000000  0.4869290000000 1.0
C      1  0.4865300000000  0.4896420000000  0.4373800000000 1.0
C      1  0.5134650000000  0.5103530000000  0.5626150000000 1.0
C      1  0.4967810000000  0.5355570000000  0.5608920000000 1.0
C      1  0.5032180000000  0.4644410000000  0.4391080000000 1.0
C      1  0.5032070000000  0.5714520000000  0.4946640000000 1.0
C      1  0.4967930000000  0.4285510000000  0.5053390000000 1.0
C      1  0.4456780000000  0.5437510000000  0.5294610000000 1.0
C      1  0.5543250000000  0.4562420000000  0.4705410000000 1.0
C      1  0.5378960000000  0.5356000000000  0.5270050000000 1.0
C      1  0.4620990000000  0.4644050000000  0.4729990000000 1.0
C      1  0.4088590000000  0.4947740000000  0.5280050000000 1.0
C      1  0.5911390000000  0.5052330000000  0.4719930000000 1.0
C      1  0.5774820000000  0.5105240000000  0.4472200000000 1.0
C      1  0.4225200000000  0.4894750000000  0.5527780000000 1.0
C      1  0.4927330000000  0.5429270000000  0.5318280000000 1.0
C      1  0.5072620000000  0.4570780000000  0.4681750000000 1.0
C      1  0.5075540000000  0.5568350000000  0.4690110000000 1.0
C      1  0.4924550000000  0.4431720000000  0.5309900000000 1.0
C      1  0.5279750000000  0.5078750000000  0.5370980000000 1.0
C      1  0.4720220000000  0.4921250000000  0.4628920000000 1.0
C      1  0.5549240000000  0.4933650000000  0.5354800000000 1.0
C      1  0.4450700000000  0.5066340000000  0.4645200000000 1.0
C      1  0.5144210000000  0.4602620000000  0.5460670000000 1.0
C      1  0.4856010000000  0.5397330000000  0.4539240000000 1.0
C      1  0.4501660000000  0.4996990000000  0.5551930000000 1.0
C      1  0.5498340000000  0.5002950000000  0.4448060000000 1.0
C      1  0.4235710000000  0.5026300000000  0.5040150000000 1.0
C      1  0.5764320000000  0.4973710000000  0.4959840000000 1.0
C      1  0.5078600000000  0.4909210000000  0.5170110000000 1.0
C      1  0.4921330000000  0.5090920000000  0.4829830000000 1.0
C      1  0.5457290000000  0.4630990000000  0.5282990000000 1.0
C      1  0.4542720000000  0.5368950000000  0.4717070000000 1.0
C      1  0.4738570000000  0.5754680000000  0.5009200000000 1.0
C      1  0.5261410000000  0.4245340000000  0.4990800000000 1.0
C      1  0.5515200000000  0.4704960000000  0.4424630000000 1.0
C      1  0.4484810000000  0.5294990000000  0.5575390000000 1.0
C      1  0.5154870000000  0.5313190000000  0.4821940000000 1.0
C      1  0.4845230000000  0.4686800000000  0.5178200000000 1.0
C      1  0.4555530000000  0.5669380000000  0.4799320000000 1.0
C      1  0.5444510000000  0.4330570000000  0.5200630000000 1.0
C      1  0.4710090000000  0.5382870000000  0.5741010000000 1.0
C      1  0.5289870000000  0.4617060000000  0.4259030000000 1.0
C      1  0.4593790000000  0.5011450000000  0.5266170000000 1.0
C      1  0.5406230000000  0.4988510000000  0.4733870000000 1.0
C      1  0.4991440000000  0.5164580000000  0.4356530000000 1.0
C      1  0.5008620000000  0.4835400000000  0.5643450000000 1.0
C      1  0.5447160000000  0.5238370000000  0.4872890000000 1.0
C      1  0.4552830000000  0.4761610000000  0.5127080000000 1.0
C      1  0.5306630000000  0.4391570000000  0.4737330000000 1.0
C      1  0.4693350000000  0.5608520000000  0.5262710000000 1.0
C      1  0.4382730000000  0.5287480000000  0.5030400000000 1.0
C      1  0.5617260000000  0.4712540000000  0.4969630000000 1.0
END
