TITL C-3985247-764-443 0.000148708391890957 125000 -314.557235552528 0 0 60 (C3) n - 1
REM
REM in /home/nfs/bkarasulu/CARBON/AIRSS/Generating-Clusters/TERSOFF/Higher-Symm/Only-C60
REM
REM
REM
REM
REM
REM ./C.cell (28575a23ae977d3b5fae324c64b13b57)
REM
REM compiler GCC version 9.2.1 20190827 (Red Hat 9.2.1-1)
REM options -cpp -mtune=generic -march=x86-64 -g -O0 -fpre-include=/usr/include/finclude/math-vector-fortran.h
REM seed -1322089326 -1486817290 -1491995676 -962948614 -1989783928 -1928651728 1806249123 -1502193734 -38364341 418642830 -1394304314 -625521721 473699835 -1303886654 -847518169 -1948978798 -1349638429 88854911 1427724102 -358337993 849017317 -772313504 1436645316 1644934745 -421920909 -973573530 665572497 -1179770900 -1580921875 1474476003 -626554878 1910103874 1760992756
REM
CELL 1.54180   50.00000   50.00000   50.00000   90.00000   90.00000   90.00000
LATT -1
SFAC C  
C      1  0.4587420000000  0.5580520000000  0.4899170000000 1.0
C      1  0.4587410000000  0.4797070000000  0.5553160000000 1.0
C      1  0.4587420000000  0.4622430000000  0.4547660000000 1.0
C      1  0.4955010000000  0.5329450000000  0.5155840000000 1.0
C      1  0.4955000000000  0.4700320000000  0.5207390000000 1.0
C      1  0.4955000000000  0.4970230000000  0.4636770000000 1.0
C      1  0.5418130000000  0.5050030000000  0.4419360000000 1.0
C      1  0.5418130000000  0.5477840000000  0.5333650000000 1.0
C      1  0.5418130000000  0.4472130000000  0.5247000000000 1.0
C      1  0.5447910000000  0.5035780000000  0.5608630000000 1.0
C      1  0.5447910000000  0.4455030000000  0.4726680000000 1.0
C      1  0.5447920000000  0.5509190000000  0.4664710000000 1.0
C      1  0.5053760000000  0.5393030000000  0.5695290000000 1.0
C      1  0.5053770000000  0.4201340000000  0.4992710000000 1.0
C      1  0.5053760000000  0.5405630000000  0.4311990000000 1.0
C      1  0.5622480000000  0.4687520000000  0.5263450000000 1.0
C      1  0.5622480000000  0.4928090000000  0.4597660000000 1.0
C      1  0.5622490000000  0.5384380000000  0.5138900000000 1.0
C      1  0.4325270000000  0.5339520000000  0.5359140000000 1.0
C      1  0.4325340000000  0.4519170000000  0.5114480000000 1.0
C      1  0.4325280000000  0.5141280000000  0.4526400000000 1.0
C      1  0.5239550000000  0.4792650000000  0.5627980000000 1.0
C      1  0.5239550000000  0.4559830000000  0.4506440000000 1.0
C      1  0.5239560000000  0.5647510000000  0.4865590000000 1.0
C      1  0.5336140000000  0.4333650000000  0.4994610000000 1.0
C      1  0.5336150000000  0.5337840000000  0.4425620000000 1.0
C      1  0.5336140000000  0.5328510000000  0.5579770000000 1.0
C      1  0.4979490000000  0.4936580000000  0.5640430000000 1.0
C      1  0.4979500000000  0.4477070000000  0.4624850000000 1.0
C      1  0.4979510000000  0.5586350000000  0.4734710000000 1.0
C      1  0.4728040000000  0.5539980000000  0.5231400000000 1.0
C      1  0.4728030000000  0.4529620000000  0.5351930000000 1.0
C      1  0.4728040000000  0.4930420000000  0.4416660000000 1.0
C      1  0.4956530000000  0.5147640000000  0.5836670000000 1.0
C      1  0.4956540000000  0.4201590000000  0.4709510000000 1.0
C      1  0.4956540000000  0.5650760000000  0.4453810000000 1.0
C      1  0.5197030000000  0.5521330000000  0.5145260000000 1.0
C      1  0.5197020000000  0.4613530000000  0.5378860000000 1.0
C      1  0.5197020000000  0.4865130000000  0.4475890000000 1.0
C      1  0.4580600000000  0.4385500000000  0.4808910000000 1.0
C      1  0.4580580000000  0.5472720000000  0.4563350000000 1.0
C      1  0.4580580000000  0.5141810000000  0.5627700000000 1.0
C      1  0.4604360000000  0.5273080000000  0.4931940000000 1.0
C      1  0.4604340000000  0.4922410000000  0.5270520000000 1.0
C      1  0.4604330000000  0.4804530000000  0.4797530000000 1.0
C      1  0.4936240000000  0.4712470000000  0.4847650000000 1.0
C      1  0.4936250000000  0.5275700000000  0.4827180000000 1.0
C      1  0.4936240000000  0.5011820000000  0.5325170000000 1.0
C      1  0.4508130000000  0.5184430000000  0.5196350000000 1.0
C      1  0.4508130000000  0.4737750000000  0.5061550000000 1.0
C      1  0.4508130000000  0.5077840000000  0.4742100000000 1.0
C      1  0.5505550000000  0.4740250000000  0.4794320000000 1.0
C      1  0.5505560000000  0.5307990000000  0.4877900000000 1.0
C      1  0.5505540000000  0.4951740000000  0.5327790000000 1.0
C      1  0.5245650000000  0.5002470000000  0.5188200000000 1.0
C      1  0.5245640000000  0.4835770000000  0.4908040000000 1.0
C      1  0.5245640000000  0.5161750000000  0.4903750000000 1.0
C      1  0.4772710000000  0.4354280000000  0.5054880000000 1.0
C      1  0.4772700000000  0.5275330000000  0.4413350000000 1.0
C      1  0.4772700000000  0.5370410000000  0.5531760000000 1.0
END
