TITL C-3985252-168-11 0.000520980850716712 125000 -309.14307772507 0 0 60 (S4) n - 1
REM
REM in /home/nfs/bkarasulu/CARBON/AIRSS/Generating-Clusters/TERSOFF/Higher-Symm/Only-C60
REM
REM
REM
REM
REM
REM ./C.cell (28575a23ae977d3b5fae324c64b13b57)
REM
REM compiler GCC version 9.2.1 20190827 (Red Hat 9.2.1-1)
REM options -cpp -mtune=generic -march=x86-64 -g -O0 -fpre-include=/usr/include/finclude/math-vector-fortran.h
REM seed -1449417032 -669879446 385323951 -1267244416 1164583120 1474750926 -1268271711 -1753522276 141523681 1950714575 1823608359 1818708648 -1847588862 177538082 -11849316 756783197 -1866492683 775507560 1356353146 1122793114 2140720767 2146738433 929605958 55626401 -223519812 734630364 942095165 -368858307 -1562508791 -382538831 -1638979750 -1918778883 2049349661
REM
CELL 1.54180   50.00000   50.00000   50.00000   90.00000   90.00000   90.00000
LATT -1
SFAC C  
C      1  0.5551160000000  0.5462820000000  0.4932000000000 1.0
C      1  0.4537240000000  0.5551180000000  0.5067950000000 1.0
C      1  0.4448800000000  0.4537260000000  0.4931940000000 1.0
C      1  0.5462770000000  0.4448690000000  0.5068310000000 1.0
C      1  0.4707030000000  0.5476820000000  0.5535690000000 1.0
C      1  0.4523200000000  0.4707010000000  0.4464280000000 1.0
C      1  0.5293020000000  0.4523200000000  0.5535730000000 1.0
C      1  0.5476820000000  0.5292980000000  0.4464300000000 1.0
C      1  0.4557440000000  0.4943560000000  0.5580320000000 1.0
C      1  0.5056340000000  0.4557480000000  0.4419410000000 1.0
C      1  0.5442570000000  0.5056440000000  0.5580310000000 1.0
C      1  0.4943570000000  0.5442590000000  0.4419690000000 1.0
C      1  0.5542640000000  0.5526440000000  0.4638890000000 1.0
C      1  0.4473550000000  0.5542640000000  0.5361120000000 1.0
C      1  0.4457370000000  0.4473540000000  0.4638940000000 1.0
C      1  0.5526530000000  0.4457400000000  0.5361130000000 1.0
C      1  0.5234580000000  0.4826710000000  0.5547940000000 1.0
C      1  0.5173290000000  0.5234580000000  0.4452060000000 1.0
C      1  0.4765420000000  0.5173290000000  0.5547930000000 1.0
C      1  0.4826670000000  0.4765420000000  0.4452060000000 1.0
C      1  0.4648760000000  0.4782770000000  0.5312700000000 1.0
C      1  0.5216930000000  0.4649210000000  0.4686870000000 1.0
C      1  0.5351220000000  0.5217240000000  0.5312680000000 1.0
C      1  0.4782770000000  0.5351190000000  0.4687300000000 1.0
C      1  0.5187250000000  0.4337160000000  0.4968180000000 1.0
C      1  0.5662240000000  0.5187190000000  0.5032340000000 1.0
C      1  0.4812790000000  0.5662260000000  0.4967670000000 1.0
C      1  0.4337720000000  0.4812800000000  0.5032360000000 1.0
C      1  0.4426280000000  0.4963570000000  0.4565410000000 1.0
C      1  0.5036410000000  0.4426290000000  0.5434580000000 1.0
C      1  0.5573740000000  0.5036440000000  0.4565420000000 1.0
C      1  0.4963570000000  0.5573720000000  0.5434600000000 1.0
C      1  0.4664370000000  0.4405860000000  0.5106100000000 1.0
C      1  0.5594090000000  0.4664170000000  0.4893800000000 1.0
C      1  0.5335780000000  0.5594230000000  0.5106160000000 1.0
C      1  0.4405770000000  0.5335760000000  0.4893860000000 1.0
C      1  0.5077760000000  0.5645240000000  0.4636770000000 1.0
C      1  0.4354740000000  0.5077810000000  0.5363290000000 1.0
C      1  0.4922270000000  0.4354770000000  0.4636690000000 1.0
C      1  0.5645260000000  0.4922230000000  0.5363220000000 1.0
C      1  0.5104150000000  0.5788140000000  0.5030640000000 1.0
C      1  0.4211880000000  0.5104200000000  0.4969380000000 1.0
C      1  0.4895550000000  0.4211830000000  0.5030580000000 1.0
C      1  0.5788120000000  0.4895840000000  0.4969350000000 1.0
C      1  0.4602670000000  0.5030020000000  0.5103750000000 1.0
C      1  0.4970210000000  0.4602560000000  0.4896290000000 1.0
C      1  0.5397330000000  0.4969980000000  0.5103750000000 1.0
C      1  0.5030020000000  0.5397330000000  0.4896250000000 1.0
C      1  0.5119940000000  0.5091490000000  0.4725580000000 1.0
C      1  0.4908530000000  0.5119950000000  0.5274400000000 1.0
C      1  0.4880060000000  0.4908520000000  0.4725600000000 1.0
C      1  0.5091450000000  0.4880040000000  0.5274450000000 1.0
C      1  0.5108790000000  0.5395500000000  0.5238670000000 1.0
C      1  0.4604510000000  0.5108770000000  0.4761320000000 1.0
C      1  0.4891250000000  0.4604480000000  0.5238700000000 1.0
C      1  0.5395600000000  0.4891360000000  0.4761260000000 1.0
C      1  0.5347940000000  0.5736580000000  0.4592720000000 1.0
C      1  0.4263430000000  0.5347880000000  0.5407290000000 1.0
C      1  0.4652270000000  0.4263470000000  0.4592740000000 1.0
C      1  0.5736610000000  0.4652100000000  0.5407290000000 1.0
END
