TITL C-3985252-168-253 9.45764558995289e-08 125000 -326.749699403704 0 0 60 (C2) n - 1
REM
REM in /home/nfs/bkarasulu/CARBON/AIRSS/Generating-Clusters/TERSOFF/Higher-Symm/Only-C60
REM
REM
REM
REM
REM
REM ./C.cell (28575a23ae977d3b5fae324c64b13b57)
REM
REM compiler GCC version 9.2.1 20190827 (Red Hat 9.2.1-1)
REM options -cpp -mtune=generic -march=x86-64 -g -O0 -fpre-include=/usr/include/finclude/math-vector-fortran.h
REM seed -1867534410 -1019011932 1202533116 -463775353 -1534559567 -1423353115 1966079171 -1096609993 867656460 -625635628 -1701747355 1618738834 666657995 590536561 528805467 538540473 -230610170 1080937871 -941515837 -571873695 167908869 -62779949 -406759358 598835643 -826971643 -1467050782 -800584684 485035571 1798748240 435467330 -1997150504 1854634336 -525745272
REM
CELL 1.54180   50.00000   50.00000   50.00000   90.00000   90.00000   90.00000
LATT -1
SFAC C  
C      1  0.4435720000000  0.5062970000000  0.4570230000000 1.0
C      1  0.4423080000000  0.4654050000000  0.5127470000000 1.0
C      1  0.4410870000000  0.5261550000000  0.5230620000000 1.0
C      1  0.5564280000000  0.5062970000000  0.5429770000000 1.0
C      1  0.5576920000000  0.4654050000000  0.4872530000000 1.0
C      1  0.5589130000000  0.5261550000000  0.4769380000000 1.0
C      1  0.4335510000000  0.4749440000000  0.4677890000000 1.0
C      1  0.4335490000000  0.4808450000000  0.5441030000000 1.0
C      1  0.4332270000000  0.5380210000000  0.4941840000000 1.0
C      1  0.5664490000000  0.4749440000000  0.5322110000000 1.0
C      1  0.5664510000000  0.4808450000000  0.4558970000000 1.0
C      1  0.5667730000000  0.5380210000000  0.5058160000000 1.0
C      1  0.5012900000000  0.4389250000000  0.4628580000000 1.0
C      1  0.5020410000000  0.4997600000000  0.5720170000000 1.0
C      1  0.5024560000000  0.5628930000000  0.4676870000000 1.0
C      1  0.4987100000000  0.4389250000000  0.5371420000000 1.0
C      1  0.4979590000000  0.4997600000000  0.4279830000000 1.0
C      1  0.4975440000000  0.5628930000000  0.5323130000000 1.0
C      1  0.5255620000000  0.5192020000000  0.4785160000000 1.0
C      1  0.5252210000000  0.4718020000000  0.4936380000000 1.0
C      1  0.5248100000000  0.5091390000000  0.5287940000000 1.0
C      1  0.4744380000000  0.5192020000000  0.5214840000000 1.0
C      1  0.4747790000000  0.4718020000000  0.5063620000000 1.0
C      1  0.4751900000000  0.5091390000000  0.4712060000000 1.0
C      1  0.4184760000000  0.4861610000000  0.4955040000000 1.0
C      1  0.4232790000000  0.5011630000000  0.5236600000000 1.0
C      1  0.4234100000000  0.5139540000000  0.4795200000000 1.0
C      1  0.5815240000000  0.4861610000000  0.5044960000000 1.0
C      1  0.5767210000000  0.5011630000000  0.4763400000000 1.0
C      1  0.5765900000000  0.5139540000000  0.5204800000000 1.0
C      1  0.5474120000000  0.5525090000000  0.5251820000000 1.0
C      1  0.5469330000000  0.4962180000000  0.4385900000000 1.0
C      1  0.5481820000000  0.4512160000000  0.5311660000000 1.0
C      1  0.4525880000000  0.5525090000000  0.4748180000000 1.0
C      1  0.4530670000000  0.4962180000000  0.5614100000000 1.0
C      1  0.4518180000000  0.4512160000000  0.4688340000000 1.0
C      1  0.4851400000000  0.4895540000000  0.5274090000000 1.0
C      1  0.4849310000000  0.5283230000000  0.4957410000000 1.0
C      1  0.4848470000000  0.4819710000000  0.4771380000000 1.0
C      1  0.5148600000000  0.4895540000000  0.4725910000000 1.0
C      1  0.5150690000000  0.5283230000000  0.5042590000000 1.0
C      1  0.5151530000000  0.4819710000000  0.5228620000000 1.0
C      1  0.4882270000000  0.5234820000000  0.4433570000000 1.0
C      1  0.4870770000000  0.4401670000000  0.5094830000000 1.0
C      1  0.4860910000000  0.5387270000000  0.5464760000000 1.0
C      1  0.5117730000000  0.5234820000000  0.5566430000000 1.0
C      1  0.5129230000000  0.4401670000000  0.4905170000000 1.0
C      1  0.5139090000000  0.5387270000000  0.4535240000000 1.0
C      1  0.5466830000000  0.4370690000000  0.5028960000000 1.0
C      1  0.5447390000000  0.5370560000000  0.5528040000000 1.0
C      1  0.5469710000000  0.5281980000000  0.4437060000000 1.0
C      1  0.4533170000000  0.4370690000000  0.4971040000000 1.0
C      1  0.4552610000000  0.5370560000000  0.4471960000000 1.0
C      1  0.4530290000000  0.5281980000000  0.5562940000000 1.0
C      1  0.5209370000000  0.4580580000000  0.5412160000000 1.0
C      1  0.5202120000000  0.5568980000000  0.5138800000000 1.0
C      1  0.5196000000000  0.4858880000000  0.4423640000000 1.0
C      1  0.4790630000000  0.4580580000000  0.4587840000000 1.0
C      1  0.4797880000000  0.5568980000000  0.4861200000000 1.0
C      1  0.4804000000000  0.4858880000000  0.5576360000000 1.0
END
