TITL C-3985259-1859-263 5.97297280282887e-06 125000 -371.524456182957 0 0 60 (C6) n - 1
REM
REM in /home/nfs/bkarasulu/CARBON/AIRSS/Generating-Clusters/TERSOFF/Higher-Symm/Only-C60
REM
REM
REM
REM
REM
REM ./C.cell (28575a23ae977d3b5fae324c64b13b57)
REM
REM compiler GCC version 9.2.1 20190827 (Red Hat 9.2.1-1)
REM options -cpp -mtune=generic -march=x86-64 -g -O0 -fpre-include=/usr/include/finclude/math-vector-fortran.h
REM seed -1638466571 2138422050 -1706765550 2005110446 -805007974 -256166114 809652199 227506783 1365796883 -971785844 -233103546 610202154 819525195 772708706 -1436535789 1713573173 -571887650 231838254 2111018363 1183343941 -1734941286 137430376 -1665387236 -1852549592 818308970 -2015129015 1325482367 -905298911 -588269989 155849650 871028346 -1533950974 -1593645217
REM
CELL 1.54180   50.00000   50.00000   50.00000   90.00000   90.00000   90.00000
LATT -1
SFAC C  
C      1  0.5637250000000  0.4726890000000  0.5431720000000 1.0
C      1  0.5637250000000  0.5237320000000  0.5452380000000 1.0
C      1  0.5637250000000  0.5510430000000  0.5020660000000 1.0
C      1  0.5637260000000  0.5273110000000  0.4568290000000 1.0
C      1  0.5637260000000  0.4762680000000  0.4547630000000 1.0
C      1  0.5637250000000  0.4489570000000  0.4979350000000 1.0
C      1  0.5341310000000  0.4477220000000  0.4978820000000 1.0
C      1  0.5341300000000  0.4720270000000  0.5442150000000 1.0
C      1  0.5341300000000  0.5243040000000  0.5463330000000 1.0
C      1  0.5341310000000  0.5522780000000  0.5021190000000 1.0
C      1  0.5341310000000  0.5279730000000  0.4557860000000 1.0
C      1  0.5341310000000  0.4756960000000  0.4536670000000 1.0
C      1  0.4454040000000  0.5473760000000  0.4622260000000 1.0
C      1  0.4454040000000  0.4909750000000  0.4400840000000 1.0
C      1  0.4454040000000  0.4435990000000  0.4778570000000 1.0
C      1  0.4454030000000  0.4526240000000  0.5377730000000 1.0
C      1  0.4454030000000  0.5090250000000  0.5599150000000 1.0
C      1  0.4454040000000  0.5564010000000  0.5221420000000 1.0
C      1  0.4945570000000  0.4961450000000  0.5698160000000 1.0
C      1  0.4945580000000  0.5585350000000  0.5382470000000 1.0
C      1  0.4945580000000  0.5623900000000  0.4684300000000 1.0
C      1  0.4945590000000  0.5038550000000  0.4301840000000 1.0
C      1  0.4945580000000  0.4414650000000  0.4617530000000 1.0
C      1  0.4945580000000  0.4376100000000  0.5315690000000 1.0
C      1  0.4370210000000  0.4757200000000  0.5192360000000 1.0
C      1  0.4370200000000  0.5045190000000  0.5306440000000 1.0
C      1  0.4370210000000  0.5287990000000  0.5114080000000 1.0
C      1  0.4370210000000  0.5242790000000  0.4807630000000 1.0
C      1  0.4370210000000  0.4954800000000  0.4693550000000 1.0
C      1  0.4370210000000  0.4712010000000  0.4885910000000 1.0
C      1  0.4736560000000  0.4305360000000  0.4822650000000 1.0
C      1  0.4736560000000  0.4499090000000  0.5512900000000 1.0
C      1  0.4736550000000  0.5193730000000  0.5690250000000 1.0
C      1  0.4736560000000  0.5694640000000  0.5177350000000 1.0
C      1  0.4736570000000  0.5500910000000  0.4487100000000 1.0
C      1  0.4736570000000  0.4806270000000  0.4309750000000 1.0
C      1  0.4760380000000  0.4724820000000  0.5040430000000 1.0
C      1  0.4760380000000  0.4897420000000  0.5258520000000 1.0
C      1  0.4760380000000  0.5172600000000  0.5218100000000 1.0
C      1  0.4760380000000  0.5275180000000  0.4959570000000 1.0
C      1  0.4760380000000  0.5102580000000  0.4741470000000 1.0
C      1  0.4760380000000  0.4827400000000  0.4781900000000 1.0
C      1  0.4784350000000  0.5209560000000  0.4482230000000 1.0
C      1  0.4784350000000  0.4656380000000  0.4559620000000 1.0
C      1  0.4784340000000  0.4446810000000  0.5077400000000 1.0
C      1  0.4784340000000  0.4790440000000  0.5517770000000 1.0
C      1  0.4784340000000  0.5343620000000  0.5440370000000 1.0
C      1  0.4784340000000  0.5553190000000  0.4922600000000 1.0
C      1  0.5207540000000  0.5478990000000  0.4749550000000 1.0
C      1  0.5207540000000  0.5022600000000  0.4459960000000 1.0
C      1  0.5207540000000  0.4543610000000  0.4710410000000 1.0
C      1  0.5207540000000  0.4521010000000  0.5250450000000 1.0
C      1  0.5207530000000  0.4977400000000  0.5540040000000 1.0
C      1  0.5207540000000  0.5456390000000  0.5289590000000 1.0
C      1  0.5762790000000  0.4553460000000  0.5234270000000 1.0
C      1  0.5762780000000  0.4979610000000  0.5503850000000 1.0
C      1  0.5762790000000  0.5426140000000  0.5269590000000 1.0
C      1  0.5762790000000  0.5446540000000  0.4765740000000 1.0
C      1  0.5762790000000  0.5020390000000  0.4496170000000 1.0
C      1  0.5762790000000  0.4573860000000  0.4730430000000 1.0
END
