TITL C-3985259-1859-738 0.00539735735938191 125000 -281.511333924527 0 0 60 (D4) n - 1
REM
REM in /home/nfs/bkarasulu/CARBON/AIRSS/Generating-Clusters/TERSOFF/Higher-Symm/Only-C60
REM
REM
REM
REM
REM
REM ./C.cell (28575a23ae977d3b5fae324c64b13b57)
REM
REM compiler GCC version 9.2.1 20190827 (Red Hat 9.2.1-1)
REM options -cpp -mtune=generic -march=x86-64 -g -O0 -fpre-include=/usr/include/finclude/math-vector-fortran.h
REM seed 1714577810 357825424 357003788 -1814650021 1163594970 -1173178555 -1710600655 -1277848649 1313598589 842539038 1148378295 -1280166342 1677255696 1003546975 -2052740712 -2036324891 1442677409 -37873147 1522842687 -720862408 1754582730 -106447155 -302945626 -1693166177 -40640792 -426447482 -843282658 -758372506 638153550 1917412678 -237032929 -1996399567 838262082
REM
CELL 1.54180   50.00000   50.00000   50.00000   90.00000   90.00000   90.00000
LATT -1
SFAC C  
C      1  0.5529440000000  0.5317150000000  0.4775630000000 1.0
C      1  0.4775630000000  0.5317150000000  0.4470560000000 1.0
C      1  0.4470560000000  0.5317150000000  0.5224370000000 1.0
C      1  0.5224370000000  0.5317150000000  0.5529440000000 1.0
C      1  0.5529420000000  0.4705390000000  0.5224370000000 1.0
C      1  0.4775630000000  0.4705390000000  0.5529420000000 1.0
C      1  0.4470580000000  0.4705390000000  0.4775630000000 1.0
C      1  0.5224370000000  0.4705390000000  0.4470580000000 1.0
C      1  0.4822480000000  0.4471930000000  0.4557180000000 1.0
C      1  0.4557180000000  0.4471930000000  0.5177520000000 1.0
C      1  0.5177520000000  0.4471930000000  0.5442820000000 1.0
C      1  0.5442820000000  0.4471930000000  0.4822480000000 1.0
C      1  0.4822430000000  0.5550580000000  0.5442860000000 1.0
C      1  0.4557140000000  0.5550580000000  0.4822430000000 1.0
C      1  0.5177570000000  0.5550580000000  0.4557140000000 1.0
C      1  0.5442860000000  0.5550580000000  0.5177570000000 1.0
C      1  0.5128710000000  0.4938910000000  0.5318970000000 1.0
C      1  0.5318970000000  0.4938910000000  0.4871290000000 1.0
C      1  0.4871290000000  0.4938910000000  0.4681030000000 1.0
C      1  0.4681030000000  0.4938910000000  0.5128710000000 1.0
C      1  0.5128890000000  0.5083480000000  0.4680880000000 1.0
C      1  0.5319120000000  0.5083480000000  0.5128890000000 1.0
C      1  0.4871110000000  0.5083480000000  0.5319120000000 1.0
C      1  0.4680880000000  0.5083480000000  0.4871110000000 1.0
C      1  0.4337520000000  0.4958920000000  0.4664690000000 1.0
C      1  0.4664690000000  0.4958920000000  0.5662480000000 1.0
C      1  0.5662480000000  0.4958920000000  0.5335310000000 1.0
C      1  0.5335310000000  0.4958920000000  0.4337520000000 1.0
C      1  0.4337560000000  0.5063580000000  0.5335310000000 1.0
C      1  0.4664690000000  0.5063580000000  0.4337560000000 1.0
C      1  0.5662440000000  0.5063580000000  0.4664690000000 1.0
C      1  0.5335310000000  0.5063580000000  0.5662440000000 1.0
C      1  0.4917070000000  0.5760060000000  0.5216820000000 1.0
C      1  0.5216820000000  0.5760060000000  0.5082930000000 1.0
C      1  0.5082930000000  0.5760060000000  0.4783180000000 1.0
C      1  0.4783180000000  0.5760060000000  0.4917070000000 1.0
C      1  0.4917000000000  0.4262640000000  0.4783210000000 1.0
C      1  0.5216790000000  0.4262640000000  0.4917000000000 1.0
C      1  0.5083000000000  0.4262640000000  0.5216790000000 1.0
C      1  0.4783210000000  0.4262640000000  0.5083000000000 1.0
C      1  0.4837630000000  0.4663390000000  0.5195330000000 1.0
C      1  0.5195330000000  0.4663390000000  0.5162370000000 1.0
C      1  0.5162370000000  0.4663390000000  0.4804670000000 1.0
C      1  0.4804670000000  0.4663390000000  0.4837630000000 1.0
C      1  0.4837470000000  0.5359080000000  0.4804690000000 1.0
C      1  0.5195310000000  0.5359080000000  0.4837470000000 1.0
C      1  0.5162530000000  0.5359080000000  0.5195310000000 1.0
C      1  0.4804690000000  0.5359080000000  0.5162530000000 1.0
C      1  0.4399820000000  0.5226150000000  0.4820800000000 1.0
C      1  0.4820800000000  0.5226150000000  0.5600180000000 1.0
C      1  0.5600180000000  0.5226150000000  0.5179200000000 1.0
C      1  0.5179200000000  0.5226150000000  0.4399820000000 1.0
C      1  0.4399860000000  0.4796300000000  0.5179190000000 1.0
C      1  0.4820810000000  0.4796300000000  0.4399860000000 1.0
C      1  0.5600140000000  0.4796300000000  0.4820810000000 1.0
C      1  0.5179190000000  0.4796300000000  0.5600140000000 1.0
C      1  0.5617410000000  0.5011270000000  0.4382610000000 1.0
C      1  0.4382610000000  0.5011270000000  0.4382590000000 1.0
C      1  0.4382590000000  0.5011270000000  0.5617390000000 1.0
C      1  0.5617390000000  0.5011270000000  0.5617410000000 1.0
END
