TITL C-3985254-1270-1003 0.00285794360897023 125000 -356.683189964539 0 0 60 (C5) n - 1
REM
REM in /home/nfs/bkarasulu/CARBON/AIRSS/Generating-Clusters/TERSOFF/Higher-Symm/Only-C60
REM
REM
REM
REM
REM
REM ./C.cell (28575a23ae977d3b5fae324c64b13b57)
REM
REM compiler GCC version 9.2.1 20190827 (Red Hat 9.2.1-1)
REM options -cpp -mtune=generic -march=x86-64 -g -O0 -fpre-include=/usr/include/finclude/math-vector-fortran.h
REM seed -876670929 -101833815 1257861032 382767188 703079618 135556610 505757668 -1591452951 1800132594 -176232270 -1271958046 64785928 1357157514 2115322382 407094107 -1022847162 587319535 -1800780141 -1918740770 913446968 -767358093 536235283 -240362422 -1975308556 739854877 1723821526 821001870 1890058862 1623196034 334518117 1728467436 2118161169 618128372
REM
CELL 1.54180   50.00000   50.00000   50.00000   90.00000   90.00000   90.00000
LATT -1
SFAC C  
C      1  0.5000460000000  0.5098620000000  0.4745540000000 1.0
C      1  0.4758600000000  0.5098570000000  0.4919310000000 1.0
C      1  0.4849140000000  0.5099050000000  0.5203080000000 1.0
C      1  0.5147060000000  0.5099910000000  0.5204670000000 1.0
C      1  0.5240580000000  0.5099440000000  0.4921660000000 1.0
C      1  0.5148420000000  0.4201150000000  0.4796620000000 1.0
C      1  0.4852590000000  0.4200730000000  0.4797040000000 1.0
C      1  0.4762050000000  0.4200590000000  0.5077090000000 1.0
C      1  0.5001610000000  0.4201550000000  0.5250950000000 1.0
C      1  0.5239470000000  0.4201700000000  0.5077550000000 1.0
C      1  0.4929130000000  0.5559670000000  0.4500110000000 1.0
C      1  0.4501760000000  0.5560420000000  0.4913710000000 1.0
C      1  0.4763130000000  0.5561000000000  0.5448030000000 1.0
C      1  0.5352050000000  0.5560530000000  0.5364580000000 1.0
C      1  0.5454600000000  0.5559710000000  0.4778700000000 1.0
C      1  0.5258960000000  0.4861840000000  0.5361380000000 1.0
C      1  0.5424230000000  0.4861610000000  0.4864300000000 1.0
C      1  0.5002560000000  0.4860670000000  0.4553450000000 1.0
C      1  0.4576650000000  0.4860240000000  0.4858310000000 1.0
C      1  0.4735220000000  0.4861310000000  0.5357890000000 1.0
C      1  0.5256470000000  0.4717200000000  0.4649000000000 1.0
C      1  0.4746290000000  0.4716310000000  0.4646250000000 1.0
C      1  0.4586080000000  0.4716850000000  0.5131920000000 1.0
C      1  0.4997420000000  0.4717480000000  0.5433210000000 1.0
C      1  0.5412080000000  0.4717970000000  0.5135180000000 1.0
C      1  0.4429580000000  0.5206520000000  0.5583550000000 1.0
C      1  0.5377210000000  0.5206140000000  0.5723370000000 1.0
C      1  0.5804500000000  0.5206080000000  0.4865390000000 1.0
C      1  0.5119310000000  0.5206480000000  0.4192950000000 1.0
C      1  0.4268570000000  0.5206850000000  0.4638170000000 1.0
C      1  0.4657910000000  0.5467120000000  0.4445300000000 1.0
C      1  0.4365700000000  0.5468370000000  0.5154750000000 1.0
C      1  0.4950240000000  0.5468760000000  0.5652040000000 1.0
C      1  0.5603790000000  0.5467890000000  0.5249690000000 1.0
C      1  0.5423040000000  0.5466770000000  0.4503930000000 1.0
C      1  0.5162280000000  0.5429380000000  0.4375060000000 1.0
C      1  0.4454950000000  0.5429750000000  0.4653540000000 1.0
C      1  0.4501210000000  0.5430300000000  0.5411940000000 1.0
C      1  0.5236640000000  0.5430210000000  0.5602610000000 1.0
C      1  0.5645480000000  0.5429670000000  0.4961980000000 1.0
C      1  0.4536690000000  0.4412400000000  0.5150550000000 1.0
C      1  0.5000000000000  0.4413960000000  0.5487360000000 1.0
C      1  0.5464150000000  0.4414220000000  0.5149720000000 1.0
C      1  0.5286700000000  0.4413150000000  0.4604550000000 1.0
C      1  0.4713790000000  0.4412060000000  0.4605170000000 1.0
C      1  0.4879040000000  0.5709820000000  0.5224840000000 1.0
C      1  0.5175860000000  0.5709550000000  0.5185310000000 1.0
C      1  0.5229930000000  0.5709060000000  0.4890810000000 1.0
C      1  0.4966570000000  0.5709010000000  0.4748410000000 1.0
C      1  0.4749710000000  0.5709450000000  0.4954780000000 1.0
C      1  0.4561050000000  0.4949720000000  0.5577310000000 1.0
C      1  0.5413820000000  0.4950500000000  0.5594890000000 1.0
C      1  0.5694140000000  0.4950520000000  0.4789700000000 1.0
C      1  0.5014970000000  0.4949940000000  0.4273860000000 1.0
C      1  0.4314160000000  0.4949560000000  0.4760630000000 1.0
C      1  0.5325430000000  0.4385740000000  0.5444850000000 1.0
C      1  0.5524180000000  0.4385280000000  0.4828910000000 1.0
C      1  0.4999330000000  0.4383750000000  0.4448870000000 1.0
C      1  0.4475520000000  0.4383340000000  0.4829940000000 1.0
C      1  0.4677900000000  0.4384500000000  0.5445750000000 1.0
END
