TITL C-3985251-913-366 0.0107807036703746 125000 -297.22842663315 0 0 60 (C1) n - 1
REM
REM in /home/nfs/bkarasulu/CARBON/AIRSS/Generating-Clusters/TERSOFF/Higher-Symm/Only-C60
REM
REM
REM
REM
REM
REM ./C.cell (28575a23ae977d3b5fae324c64b13b57)
REM
REM compiler GCC version 9.2.1 20190827 (Red Hat 9.2.1-1)
REM options -cpp -mtune=generic -march=x86-64 -g -O0 -fpre-include=/usr/include/finclude/math-vector-fortran.h
REM seed 168893883 -395692219 -1361293686 1050615049 2142417807 981785819 1104459694 2094812244 1770400322 1912741731 1303534250 1673603416 -983197943 -1406436274 381707163 -366536771 -1807971785 458412425 -121959326 347949440 -871764919 -1996871 1811362900 1020348526 -105332613 -179962053 -1282592625 -1158593869 -1633095310 -565190027 1445540085 -106805942 -1259495861
REM
CELL 1.54180   50.00000   50.00000   50.00000   90.00000   90.00000   90.00000
LATT -1
SFAC C  
C      1  0.4658280000000  0.4426560000000  0.4603880000000 1.0
C      1  0.4388920000000  0.4561550000000  0.4636660000000 1.0
C      1  0.4775490000000  0.4869300000000  0.4854350000000 1.0
C      1  0.5247460000000  0.5350260000000  0.5531470000000 1.0
C      1  0.5073920000000  0.5697100000000  0.4901780000000 1.0
C      1  0.5046130000000  0.4399150000000  0.5011270000000 1.0
C      1  0.4475760000000  0.4626890000000  0.5260580000000 1.0
C      1  0.5434830000000  0.4972090000000  0.4755430000000 1.0
C      1  0.5014880000000  0.4666610000000  0.4815980000000 1.0
C      1  0.4748490000000  0.4352880000000  0.4898670000000 1.0
C      1  0.5294790000000  0.5711230000000  0.5185570000000 1.0
C      1  0.5446450000000  0.5629870000000  0.5473220000000 1.0
C      1  0.5119020000000  0.4930610000000  0.5235480000000 1.0
C      1  0.5415970000000  0.4505060000000  0.5327730000000 1.0
C      1  0.5580240000000  0.5175120000000  0.4570400000000 1.0
C      1  0.5115140000000  0.5468380000000  0.4637750000000 1.0
C      1  0.5114490000000  0.4439170000000  0.5308950000000 1.0
C      1  0.5394700000000  0.5423850000000  0.5041890000000 1.0
C      1  0.4542870000000  0.4931580000000  0.5259200000000 1.0
C      1  0.5289800000000  0.4377390000000  0.4582080000000 1.0
C      1  0.4613850000000  0.4490120000000  0.5476980000000 1.0
C      1  0.5297950000000  0.4871940000000  0.4501920000000 1.0
C      1  0.4672420000000  0.4886360000000  0.5731980000000 1.0
C      1  0.4739260000000  0.5290090000000  0.5637540000000 1.0
C      1  0.5499820000000  0.4744390000000  0.5504540000000 1.0
C      1  0.4780810000000  0.5497920000000  0.4505810000000 1.0
C      1  0.5571990000000  0.4965420000000  0.5279970000000 1.0
C      1  0.5193210000000  0.5226930000000  0.4848160000000 1.0
C      1  0.4848560000000  0.5195240000000  0.4461530000000 1.0
C      1  0.4605190000000  0.4998350000000  0.4562840000000 1.0
C      1  0.5004680000000  0.5170480000000  0.5693960000000 1.0
C      1  0.4395610000000  0.5300350000000  0.4984570000000 1.0
C      1  0.5481930000000  0.5249550000000  0.5300060000000 1.0
C      1  0.4464000000000  0.5328660000000  0.4557980000000 1.0
C      1  0.5513090000000  0.4508810000000  0.5011990000000 1.0
C      1  0.5131110000000  0.4623240000000  0.4531640000000 1.0
C      1  0.4903430000000  0.4574110000000  0.5496800000000 1.0
C      1  0.4376680000000  0.4852700000000  0.4725930000000 1.0
C      1  0.4853580000000  0.4576790000000  0.4416780000000 1.0
C      1  0.5219190000000  0.4861860000000  0.5508300000000 1.0
C      1  0.4996060000000  0.4831500000000  0.5729070000000 1.0
C      1  0.4887710000000  0.5143690000000  0.4959480000000 1.0
C      1  0.4609830000000  0.4610200000000  0.4991280000000 1.0
C      1  0.5312420000000  0.4324010000000  0.4868050000000 1.0
C      1  0.4758540000000  0.5635170000000  0.4786050000000 1.0
C      1  0.4371150000000  0.5010930000000  0.5004490000000 1.0
C      1  0.5032740000000  0.5633870000000  0.5428540000000 1.0
C      1  0.4860040000000  0.4794970000000  0.5272890000000 1.0
C      1  0.4533190000000  0.5079640000000  0.5534830000000 1.0
C      1  0.4669680000000  0.5408990000000  0.4978930000000 1.0
C      1  0.5386730000000  0.5404940000000  0.4453130000000 1.0
C      1  0.5507510000000  0.5537170000000  0.4768830000000 1.0
C      1  0.4744970000000  0.4825170000000  0.4295890000000 1.0
C      1  0.4971720000000  0.5085920000000  0.4205970000000 1.0
C      1  0.4759270000000  0.5565130000000  0.5552500000000 1.0
C      1  0.5626170000000  0.4690470000000  0.4758090000000 1.0
C      1  0.5384520000000  0.4844420000000  0.5063410000000 1.0
C      1  0.4926960000000  0.5513970000000  0.5150780000000 1.0
C      1  0.5248990000000  0.5098060000000  0.4318280000000 1.0
C      1  0.5067800000000  0.5233820000000  0.5247880000000 1.0
END
