TITL C-3985247-764-504 -0.000733002664226635 125000 -270.521797729533 0 0 60 (S12) n - 1
REM
REM in /home/nfs/bkarasulu/CARBON/AIRSS/Generating-Clusters/TERSOFF/Higher-Symm/Only-C60
REM
REM
REM
REM
REM
REM ./C.cell (28575a23ae977d3b5fae324c64b13b57)
REM
REM compiler GCC version 9.2.1 20190827 (Red Hat 9.2.1-1)
REM options -cpp -mtune=generic -march=x86-64 -g -O0 -fpre-include=/usr/include/finclude/math-vector-fortran.h
REM seed 1023008976 1238379169 -1936776757 2022056945 1574983837 1213492610 -385472990 -1419939786 -1300301553 -1549131345 1682532614 -2032927268 201084890 -1267264594 -659303828 1131823525 1733271735 -1879133715 -368475466 909818202 -1907101997 414664326 -172690811 -1726176402 1460879251 564473505 -496796231 1737220866 -1044246024 746057120 -981296114 -1042915761 1043670170
REM
CELL 1.54180   50.00000   50.00000   50.00000   90.00000   90.00000   90.00000
LATT -1
SFAC C  
C      1  0.5367360000000  0.4984490000000  0.5404090000000 1.0
C      1  0.5325950000000  0.5170250000000  0.4595840000000 1.0
C      1  0.5197150000000  0.5310460000000  0.5404140000000 1.0
C      1  0.5015510000000  0.5367360000000  0.4595910000000 1.0
C      1  0.4829750000000  0.5325950000000  0.5404160000000 1.0
C      1  0.4689540000000  0.5197150000000  0.4595860000000 1.0
C      1  0.4632640000000  0.5015510000000  0.5404090000000 1.0
C      1  0.4674050000000  0.4829750000000  0.4595840000000 1.0
C      1  0.4802850000000  0.4689540000000  0.5404140000000 1.0
C      1  0.4984490000000  0.4632640000000  0.4595910000000 1.0
C      1  0.5170250000000  0.4674050000000  0.5404160000000 1.0
C      1  0.5310460000000  0.4802850000000  0.4595860000000 1.0
C      1  0.4576990000000  0.5532520000000  0.5355270000000 1.0
C      1  0.4367380000000  0.5249660000000  0.4644830000000 1.0
C      1  0.4327280000000  0.4900000000000  0.5355220000000 1.0
C      1  0.4467480000000  0.4576990000000  0.4644730000000 1.0
C      1  0.4750340000000  0.4367380000000  0.5355170000000 1.0
C      1  0.5100000000000  0.4327280000000  0.4644780000000 1.0
C      1  0.5423010000000  0.4467480000000  0.5355270000000 1.0
C      1  0.5632620000000  0.4750340000000  0.4644830000000 1.0
C      1  0.5672720000000  0.5100000000000  0.5355220000000 1.0
C      1  0.5532520000000  0.5423010000000  0.4644730000000 1.0
C      1  0.5249660000000  0.5632620000000  0.5355170000000 1.0
C      1  0.4900000000000  0.5672720000000  0.4644780000000 1.0
C      1  0.5233710000000  0.5725570000000  0.5071890000000 1.0
C      1  0.4839570000000  0.5745230000000  0.4928020000000 1.0
C      1  0.4488450000000  0.5565130000000  0.5072010000000 1.0
C      1  0.4274430000000  0.5233710000000  0.4928110000000 1.0
C      1  0.4254770000000  0.4839570000000  0.5071980000000 1.0
C      1  0.4434870000000  0.4488450000000  0.4927990000000 1.0
C      1  0.4766290000000  0.4274430000000  0.5071890000000 1.0
C      1  0.5160430000000  0.4254770000000  0.4928020000000 1.0
C      1  0.5511550000000  0.4434870000000  0.5072010000000 1.0
C      1  0.5725570000000  0.4766290000000  0.4928110000000 1.0
C      1  0.5745230000000  0.5160430000000  0.5071980000000 1.0
C      1  0.5565130000000  0.5511550000000  0.4927990000000 1.0
C      1  0.5102120000000  0.4525660000000  0.5091050000000 1.0
C      1  0.5325530000000  0.4640290000000  0.4908920000000 1.0
C      1  0.5461770000000  0.4851320000000  0.5090970000000 1.0
C      1  0.5474340000000  0.5102120000000  0.4908950000000 1.0
C      1  0.5359710000000  0.5325530000000  0.5091080000000 1.0
C      1  0.5148680000000  0.5461770000000  0.4909030000000 1.0
C      1  0.4897880000000  0.5474340000000  0.5091050000000 1.0
C      1  0.4674470000000  0.5359710000000  0.4908920000000 1.0
C      1  0.4538230000000  0.5148680000000  0.5090970000000 1.0
C      1  0.4525660000000  0.4897880000000  0.4908950000000 1.0
C      1  0.4640290000000  0.4674470000000  0.5091080000000 1.0
C      1  0.4851320000000  0.4538230000000  0.4909030000000 1.0
C      1  0.4821950000000  0.4752680000000  0.5731390000000 1.0
C      1  0.4969460000000  0.4696810000000  0.4268560000000 1.0
C      1  0.5125150000000  0.4722150000000  0.5731400000000 1.0
C      1  0.5247320000000  0.4821950000000  0.4268610000000 1.0
C      1  0.5303190000000  0.4969460000000  0.5731440000000 1.0
C      1  0.5277850000000  0.5125150000000  0.4268600000000 1.0
C      1  0.5178050000000  0.5247320000000  0.5731390000000 1.0
C      1  0.5030540000000  0.5303190000000  0.4268560000000 1.0
C      1  0.4874850000000  0.5277850000000  0.5731400000000 1.0
C      1  0.4752680000000  0.5178050000000  0.4268610000000 1.0
C      1  0.4696810000000  0.5030540000000  0.5731440000000 1.0
C      1  0.4722150000000  0.4874850000000  0.4268600000000 1.0
END
