TITL C-3985245-9316-523 -0.0021004849824743 125000 -316.430679075774 0 0 60 (C2) n - 1
REM
REM in /home/nfs/bkarasulu/CARBON/AIRSS/Generating-Clusters/TERSOFF/Higher-Symm/Only-C60
REM
REM
REM
REM
REM
REM ./C.cell (28575a23ae977d3b5fae324c64b13b57)
REM
REM compiler GCC version 9.2.1 20190827 (Red Hat 9.2.1-1)
REM options -cpp -mtune=generic -march=x86-64 -g -O0 -fpre-include=/usr/include/finclude/math-vector-fortran.h
REM seed 1277341220 1341653252 -1989651963 -1505747077 -553009477 -634860640 1981428529 -1465753640 -1077793672 764201469 2018248087 -584706323 -954035760 -786739780 -624205943 -962874450 2076952469 -1831599591 184991967 157484620 -2035766910 1224176647 1598359372 -1405262932 1797744704 -761455509 -1757535744 -1009541214 1594244421 -847148759 2145109274 -264662095 43309212
REM
CELL 1.54180   50.00000   50.00000   50.00000   90.00000   90.00000   90.00000
LATT -1
SFAC C  
C      1  0.4418790000000  0.4498290000000  0.4770540000000 1.0
C      1  0.4258680000000  0.4985400000000  0.4751140000000 1.0
C      1  0.4411290000000  0.5370610000000  0.4817290000000 1.0
C      1  0.4726300000000  0.5656000000000  0.4757770000000 1.0
C      1  0.5180210000000  0.5710580000000  0.4812320000000 1.0
C      1  0.5579860000000  0.5503290000000  0.4769080000000 1.0
C      1  0.5742120000000  0.5014000000000  0.4752110000000 1.0
C      1  0.5586320000000  0.4629980000000  0.4817880000000 1.0
C      1  0.5276660000000  0.4345450000000  0.4756990000000 1.0
C      1  0.4820030000000  0.4286310000000  0.4811230000000 1.0
C      1  0.4545330000000  0.4968870000000  0.4885750000000 1.0
C      1  0.4650080000000  0.5211080000000  0.5014600000000 1.0
C      1  0.4842380000000  0.5399700000000  0.4901030000000 1.0
C      1  0.5117050000000  0.5423690000000  0.4983870000000 1.0
C      1  0.5369390000000  0.5302110000000  0.4904190000000 1.0
C      1  0.5455490000000  0.5032310000000  0.4886660000000 1.0
C      1  0.5348790000000  0.4790520000000  0.5016240000000 1.0
C      1  0.5158770000000  0.4600990000000  0.4900000000000 1.0
C      1  0.4883290000000  0.4573780000000  0.4979540000000 1.0
C      1  0.4630850000000  0.4698260000000  0.4906640000000 1.0
C      1  0.4510290000000  0.4800770000000  0.5417320000000 1.0
C      1  0.4491500000000  0.5119210000000  0.5440760000000 1.0
C      1  0.4673090000000  0.5392140000000  0.5440170000000 1.0
C      1  0.4975630000000  0.5512200000000  0.5435800000000 1.0
C      1  0.5293170000000  0.5447300000000  0.5439900000000 1.0
C      1  0.5490120000000  0.5199460000000  0.5416950000000 1.0
C      1  0.5508390000000  0.4881250000000  0.5441150000000 1.0
C      1  0.5326640000000  0.4608020000000  0.5440600000000 1.0
C      1  0.5024200000000  0.4487860000000  0.5435140000000 1.0
C      1  0.4706960000000  0.4552490000000  0.5439440000000 1.0
C      1  0.4788090000000  0.4185080000000  0.5105440000000 1.0
C      1  0.4343530000000  0.4451850000000  0.5086970000000 1.0
C      1  0.4170430000000  0.4949610000000  0.5073310000000 1.0
C      1  0.4306960000000  0.5436790000000  0.5102140000000 1.0
C      1  0.4701570000000  0.5752090000000  0.5080460000000 1.0
C      1  0.5211780000000  0.5813850000000  0.5105650000000 1.0
C      1  0.5656010000000  0.5548090000000  0.5086270000000 1.0
C      1  0.5830830000000  0.5050660000000  0.5073880000000 1.0
C      1  0.5691950000000  0.4564170000000  0.5102170000000 1.0
C      1  0.5298780000000  0.4248560000000  0.5080050000000 1.0
C      1  0.5515650000000  0.5040770000000  0.4471800000000 1.0
C      1  0.5422870000000  0.4740840000000  0.4569650000000 1.0
C      1  0.5166770000000  0.4555440000000  0.4483000000000 1.0
C      1  0.4858700000000  0.4496120000000  0.4567490000000 1.0
C      1  0.4586070000000  0.4650920000000  0.4492450000000 1.0
C      1  0.4485300000000  0.4958600000000  0.4471090000000 1.0
C      1  0.4576120000000  0.5259220000000  0.4569510000000 1.0
C      1  0.4832330000000  0.5444070000000  0.4484060000000 1.0
C      1  0.5140900000000  0.5502420000000  0.4568080000000 1.0
C      1  0.5413440000000  0.5347990000000  0.4489780000000 1.0
C      1  0.5745700000000  0.4815600000000  0.5244170000000 1.0
C      1  0.5480720000000  0.4419670000000  0.5244640000000 1.0
C      1  0.5044610000000  0.4246240000000  0.5240040000000 1.0
C      1  0.4576500000000  0.4339570000000  0.5248280000000 1.0
C      1  0.4289770000000  0.4715680000000  0.5220170000000 1.0
C      1  0.4254270000000  0.5184760000000  0.5243860000000 1.0
C      1  0.4519290000000  0.5580500000000  0.5244230000000 1.0
C      1  0.4955430000000  0.5754130000000  0.5240840000000 1.0
C      1  0.5423550000000  0.5660250000000  0.5248490000000 1.0
C      1  0.5710430000000  0.5284540000000  0.5219880000000 1.0
END
