TITL C-3985252-168-332 1.3459530378209e-06 125000 -324.29246250699 0 0 60 (C1) n - 1
REM
REM in /home/nfs/bkarasulu/CARBON/AIRSS/Generating-Clusters/TERSOFF/Higher-Symm/Only-C60
REM
REM
REM
REM
REM
REM ./C.cell (28575a23ae977d3b5fae324c64b13b57)
REM
REM compiler GCC version 9.2.1 20190827 (Red Hat 9.2.1-1)
REM options -cpp -mtune=generic -march=x86-64 -g -O0 -fpre-include=/usr/include/finclude/math-vector-fortran.h
REM seed -1865516297 -150860245 809449378 -724890352 47244370 -1108578791 569199335 671261652 960981379 305126177 1226753179 1598359706 -1546194625 1045659358 -1431455916 -181157679 -162466517 958847633 -1094970048 181644315 1708740154 1766743871 -754149566 1506451383 -1154670458 -1116962160 -1312979454 1044904160 1060436540 1119674404 1658458659 -333159408 -308884270
REM
CELL 1.54180   50.00000   50.00000   50.00000   90.00000   90.00000   90.00000
LATT -1
SFAC C  
C      1  0.4917220000000  0.4790250000000  0.4667690000000 1.0
C      1  0.5612370000000  0.5371600000000  0.5037570000000 1.0
C      1  0.5506970000000  0.4645290000000  0.5412960000000 1.0
C      1  0.5002540000000  0.4678930000000  0.5714750000000 1.0
C      1  0.5463250000000  0.4729580000000  0.4505810000000 1.0
C      1  0.4500160000000  0.5082280000000  0.5724660000000 1.0
C      1  0.5005570000000  0.4744950000000  0.4939640000000 1.0
C      1  0.5049880000000  0.5812640000000  0.5222640000000 1.0
C      1  0.5569780000000  0.4982350000000  0.4639210000000 1.0
C      1  0.5043520000000  0.5054640000000  0.5333450000000 1.0
C      1  0.4408110000000  0.5219910000000  0.5286450000000 1.0
C      1  0.4589520000000  0.4453400000000  0.4754080000000 1.0
C      1  0.4916060000000  0.4599840000000  0.4398140000000 1.0
C      1  0.4880990000000  0.4305950000000  0.5143880000000 1.0
C      1  0.4477850000000  0.4826050000000  0.5579350000000 1.0
C      1  0.5079160000000  0.5003530000000  0.4276680000000 1.0
C      1  0.5299110000000  0.5387450000000  0.4946550000000 1.0
C      1  0.4805870000000  0.5407660000000  0.4345340000000 1.0
C      1  0.4458720000000  0.4940660000000  0.4863980000000 1.0
C      1  0.4679910000000  0.4676200000000  0.5243580000000 1.0
C      1  0.5005230000000  0.5588970000000  0.5008890000000 1.0
C      1  0.5215270000000  0.5574050000000  0.4647020000000 1.0
C      1  0.4841060000000  0.4325120000000  0.4839320000000 1.0
C      1  0.5756390000000  0.4796620000000  0.5325110000000 1.0
C      1  0.5352890000000  0.4493470000000  0.5211200000000 1.0
C      1  0.4964670000000  0.4740620000000  0.5408830000000 1.0
C      1  0.5761280000000  0.5093470000000  0.5170210000000 1.0
C      1  0.5075580000000  0.4482280000000  0.5285550000000 1.0
C      1  0.4401330000000  0.5191010000000  0.4648310000000 1.0
C      1  0.4391180000000  0.5437540000000  0.4815570000000 1.0
C      1  0.5064830000000  0.4400650000000  0.4619080000000 1.0
C      1  0.4859210000000  0.5245870000000  0.4728080000000 1.0
C      1  0.4648430000000  0.4842590000000  0.4350820000000 1.0
C      1  0.4761120000000  0.5509840000000  0.5186580000000 1.0
C      1  0.5347360000000  0.4760130000000  0.5650550000000 1.0
C      1  0.4662600000000  0.4579030000000  0.5650830000000 1.0
C      1  0.4889450000000  0.5561150000000  0.4663700000000 1.0
C      1  0.5077920000000  0.5307360000000  0.4233330000000 1.0
C      1  0.4905330000000  0.4987320000000  0.5075150000000 1.0
C      1  0.5790700000000  0.4983470000000  0.4850440000000 1.0
C      1  0.5414300000000  0.4910680000000  0.5021820000000 1.0
C      1  0.5511770000000  0.5176360000000  0.5395480000000 1.0
C      1  0.4591800000000  0.4740540000000  0.4678170000000 1.0
C      1  0.4694230000000  0.5144810000000  0.4945500000000 1.0
C      1  0.5036820000000  0.5053140000000  0.4586430000000 1.0
C      1  0.4589490000000  0.5170670000000  0.4403030000000 1.0
C      1  0.5341110000000  0.5174260000000  0.4657880000000 1.0
C      1  0.4433380000000  0.4892700000000  0.5225500000000 1.0
C      1  0.4635250000000  0.4376290000000  0.5354110000000 1.0
C      1  0.5329520000000  0.4534720000000  0.4699780000000 1.0
C      1  0.4974780000000  0.5252150000000  0.5539670000000 1.0
C      1  0.4539360000000  0.5370500000000  0.5069850000000 1.0
C      1  0.5298920000000  0.5132780000000  0.5182830000000 1.0
C      1  0.4786120000000  0.5475140000000  0.5500470000000 1.0
C      1  0.5306160000000  0.4806370000000  0.4261360000000 1.0
C      1  0.5449790000000  0.5040120000000  0.5650690000000 1.0
C      1  0.4923910000000  0.5756810000000  0.5484660000000 1.0
C      1  0.5306750000000  0.5398030000000  0.4413470000000 1.0
C      1  0.5291040000000  0.4656590000000  0.4970090000000 1.0
C      1  0.4507120000000  0.5323590000000  0.5554200000000 1.0
END
