TITL C-3985250-725-754 -0.00121903763892026 125000 -298.508010594904 0 0 60 (D2h) n - 1
REM
REM in /home/nfs/bkarasulu/CARBON/AIRSS/Generating-Clusters/TERSOFF/Higher-Symm/Only-C60
REM
REM
REM
REM
REM
REM ./C.cell (28575a23ae977d3b5fae324c64b13b57)
REM
REM compiler GCC version 9.2.1 20190827 (Red Hat 9.2.1-1)
REM options -cpp -mtune=generic -march=x86-64 -g -O0 -fpre-include=/usr/include/finclude/math-vector-fortran.h
REM seed 808687111 775177626 1984277917 -1420630448 -505921506 -2138807530 2019160775 -1633249995 -1133890289 -595860571 -1451445991 -1233922179 -1888115584 1379818047 -1506123069 -2024371932 -152171936 658288925 1161884777 1760702673 -386801456 454872885 -336446564 454247052 -565725202 -1287854324 254969082 -393103424 -109491004 113215980 -2141437455 -1794868649 1376956047
REM
CELL 1.54180   50.00000   50.00000   50.00000   90.00000   90.00000   90.00000
LATT -1
SFAC C  
C      1  0.5506920000000  0.5316370000000  0.4766090000000 1.0
C      1  0.4493080000000  0.4683630000000  0.4766090000000 1.0
C      1  0.5506920000000  0.5316370000000  0.5233910000000 1.0
C      1  0.4493080000000  0.4683630000000  0.5233910000000 1.0
C      1  0.5506920000000  0.4683630000000  0.4766090000000 1.0
C      1  0.4493080000000  0.5316370000000  0.4766090000000 1.0
C      1  0.5506920000000  0.4683630000000  0.5233910000000 1.0
C      1  0.4493080000000  0.5316370000000  0.5233910000000 1.0
C      1  0.4250620000000  0.5159130000000  0.4841110000000 1.0
C      1  0.5749380000000  0.4840870000000  0.4841110000000 1.0
C      1  0.4250620000000  0.5159130000000  0.5158890000000 1.0
C      1  0.5749380000000  0.4840870000000  0.5158890000000 1.0
C      1  0.4250620000000  0.4840870000000  0.4841110000000 1.0
C      1  0.5749380000000  0.5159130000000  0.4841110000000 1.0
C      1  0.4250620000000  0.4840870000000  0.5158890000000 1.0
C      1  0.5749380000000  0.5159130000000  0.5158890000000 1.0
C      1  0.4790710000000  0.4449290000000  0.4564750000000 1.0
C      1  0.5209290000000  0.5550710000000  0.4564750000000 1.0
C      1  0.4790710000000  0.4449290000000  0.5435250000000 1.0
C      1  0.5209290000000  0.5550710000000  0.5435250000000 1.0
C      1  0.4790710000000  0.5550710000000  0.4564750000000 1.0
C      1  0.5209290000000  0.4449290000000  0.4564750000000 1.0
C      1  0.4790710000000  0.5550710000000  0.5435250000000 1.0
C      1  0.5209290000000  0.4449290000000  0.5435250000000 1.0
C      1  0.4493300000000  0.5609750000000  0.5147180000000 1.0
C      1  0.5506700000000  0.4390250000000  0.5147180000000 1.0
C      1  0.4493300000000  0.5609750000000  0.4852820000000 1.0
C      1  0.5506700000000  0.4390250000000  0.4852820000000 1.0
C      1  0.4493300000000  0.4390250000000  0.5147180000000 1.0
C      1  0.5506700000000  0.5609750000000  0.5147180000000 1.0
C      1  0.4493300000000  0.4390250000000  0.4852820000000 1.0
C      1  0.5506700000000  0.5609750000000  0.4852820000000 1.0
C      1  0.4766810000000  0.4830770000000  0.5180520000000 1.0
C      1  0.5233190000000  0.5169230000000  0.5180520000000 1.0
C      1  0.4766810000000  0.4830770000000  0.4819480000000 1.0
C      1  0.5233190000000  0.5169230000000  0.4819480000000 1.0
C      1  0.4766810000000  0.5169230000000  0.5180520000000 1.0
C      1  0.5233190000000  0.4830770000000  0.5180520000000 1.0
C      1  0.4766810000000  0.5169230000000  0.4819480000000 1.0
C      1  0.5233190000000  0.4830770000000  0.4819480000000 1.0
C      1  0.4818180000000  0.4245480000000  0.5181690000000 1.0
C      1  0.5181820000000  0.5754520000000  0.5181690000000 1.0
C      1  0.4818180000000  0.4245480000000  0.4818310000000 1.0
C      1  0.5181820000000  0.5754520000000  0.4818310000000 1.0
C      1  0.4818180000000  0.5754520000000  0.5181690000000 1.0
C      1  0.5181820000000  0.4245480000000  0.5181690000000 1.0
C      1  0.4818180000000  0.5754520000000  0.4818310000000 1.0
C      1  0.5181820000000  0.4245480000000  0.4818310000000 1.0
C      1  0.4790060000000  0.5142310000000  0.4400410000000 1.0
C      1  0.5209970000000  0.4857700000000  0.4400410000000 1.0
C      1  0.4790030000000  0.5142300000000  0.5599590000000 1.0
C      1  0.5209970000000  0.4857700000000  0.5599590000000 1.0
C      1  0.4790030000000  0.4857700000000  0.4400410000000 1.0
C      1  0.5209940000000  0.5142310000000  0.4400410000000 1.0
C      1  0.4790030000000  0.4857700000000  0.5599590000000 1.0
C      1  0.5209970000000  0.5142300000000  0.5599590000000 1.0
C      1  0.5000000000000  0.4698550000000  0.5416110000000 1.0
C      1  0.5000000000000  0.5301450000000  0.4583880000000 1.0
C      1  0.5000000000000  0.4698550000000  0.4583890000000 1.0
C      1  0.5000000000000  0.5301450000000  0.5416120000000 1.0
END
