TITL C-3985244-725-713 -7.81001377139975e-07 125000 -337.059834438424 0 0 60 (C3) n - 1
REM
REM in /home/nfs/bkarasulu/CARBON/AIRSS/Generating-Clusters/TERSOFF/Higher-Symm/Only-C60
REM
REM
REM
REM
REM
REM ./C.cell (28575a23ae977d3b5fae324c64b13b57)
REM
REM compiler GCC version 9.2.1 20190827 (Red Hat 9.2.1-1)
REM options -cpp -mtune=generic -march=x86-64 -g -O0 -fpre-include=/usr/include/finclude/math-vector-fortran.h
REM seed 339375127 1012466131 546655596 -907244449 -327041169 185840826 -50481541 -62714902 -49610898 -241868772 -821912166 1538787253 1513123172 -860609654 -1095754052 1136786225 1689542472 -957087642 678337079 -34971413 670852226 -780242129 947303333 1178637752 -1372690653 1913945671 848827857 868653985 466077477 145940382 -1320920594 -1659418236 815003012
REM
CELL 1.54180   50.00000   50.00000   50.00000   90.00000   90.00000   90.00000
LATT -1
SFAC C  
C      1  0.4355470000000  0.5027210000000  0.5413610000000 1.0
C      1  0.4355430000000  0.5344510000000  0.4769600000000 1.0
C      1  0.4355490000000  0.4628130000000  0.4816820000000 1.0
C      1  0.4946900000000  0.5168490000000  0.4658220000000 1.0
C      1  0.4946950000000  0.4619760000000  0.5024970000000 1.0
C      1  0.4946910000000  0.5211740000000  0.5316810000000 1.0
C      1  0.5288630000000  0.4584910000000  0.5442790000000 1.0
C      1  0.5288540000000  0.5591050000000  0.5138100000000 1.0
C      1  0.5288590000000  0.4824110000000  0.4419100000000 1.0
C      1  0.4996710000000  0.5093780000000  0.4229990000000 1.0
C      1  0.4996790000000  0.4286260000000  0.5303790000000 1.0
C      1  0.4996690000000  0.5619960000000  0.5466220000000 1.0
C      1  0.5534690000000  0.4685940000000  0.4502430000000 1.0
C      1  0.5534710000000  0.4726200000000  0.5520790000000 1.0
C      1  0.5534630000000  0.5588000000000  0.4976740000000 1.0
C      1  0.5300040000000  0.5083830000000  0.4250370000000 1.0
C      1  0.5300130000000  0.4308930000000  0.5302230000000 1.0
C      1  0.5300020000000  0.5607310000000  0.5447390000000 1.0
C      1  0.5105450000000  0.4894960000000  0.5690910000000 1.0
C      1  0.5105370000000  0.5650880000000  0.4745520000000 1.0
C      1  0.5105460000000  0.4454180000000  0.4563570000000 1.0
C      1  0.5189770000000  0.5283250000000  0.5163490000000 1.0
C      1  0.5189780000000  0.4999990000000  0.4672960000000 1.0
C      1  0.5189820000000  0.4716810000000  0.5163530000000 1.0
C      1  0.5574670000000  0.5295900000000  0.4977760000000 1.0
C      1  0.5574710000000  0.4832870000000  0.4754880000000 1.0
C      1  0.5574710000000  0.4871370000000  0.5267320000000 1.0
C      1  0.5150460000000  0.4313290000000  0.4822630000000 1.0
C      1  0.5150410000000  0.5189770000000  0.5683400000000 1.0
C      1  0.5150360000000  0.5496980000000  0.4493960000000 1.0
C      1  0.4544460000000  0.4845400000000  0.4869890000000 1.0
C      1  0.4544460000000  0.4964560000000  0.5198930000000 1.0
C      1  0.4544440000000  0.5189930000000  0.4931210000000 1.0
C      1  0.4436000000000  0.4350080000000  0.4771510000000 1.0
C      1  0.4435960000000  0.5127000000000  0.5677070000000 1.0
C      1  0.4435900000000  0.5522780000000  0.4551460000000 1.0
C      1  0.4559290000000  0.5559230000000  0.5912520000000 1.0
C      1  0.4559260000000  0.5510590000000  0.4059420000000 1.0
C      1  0.4559400000000  0.3930080000000  0.5028090000000 1.0
C      1  0.4913730000000  0.5557140000000  0.4951860000000 1.0
C      1  0.4913790000000  0.4679720000000  0.4541570000000 1.0
C      1  0.4913800000000  0.4763110000000  0.5506580000000 1.0
C      1  0.4629710000000  0.5347960000000  0.5724870000000 1.0
C      1  0.4629670000000  0.5453730000000  0.4336210000000 1.0
C      1  0.4629790000000  0.4198220000000  0.4938940000000 1.0
C      1  0.5389780000000  0.4380750000000  0.5010930000000 1.0
C      1  0.5389710000000  0.5319140000000  0.5530840000000 1.0
C      1  0.5389690000000  0.5300200000000  0.4458210000000 1.0
C      1  0.4893210000000  0.4312010000000  0.5018030000000 1.0
C      1  0.4893130000000  0.5359600000000  0.5586800000000 1.0
C      1  0.4893110000000  0.5328370000000  0.4395180000000 1.0
C      1  0.4822400000000  0.5281600000000  0.4892990000000 1.0
C      1  0.4822440000000  0.4766500000000  0.4809620000000 1.0
C      1  0.4822440000000  0.4951850000000  0.5297400000000 1.0
C      1  0.4868110000000  0.4470630000000  0.5497180000000 1.0
C      1  0.4868010000000  0.5695240000000  0.5209850000000 1.0
C      1  0.4868060000000  0.4834100000000  0.4292970000000 1.0
C      1  0.5500650000000  0.5141600000000  0.4737060000000 1.0
C      1  0.5500690000000  0.4701550000000  0.5008860000000 1.0
C      1  0.5500660000000  0.5156960000000  0.5254050000000 1.0
END
