TITL C-3985251-913-740 -0.00290424486395847 125000 -301.40114044581 0 0 60 (C2) n - 1
REM
REM in /home/nfs/bkarasulu/CARBON/AIRSS/Generating-Clusters/TERSOFF/Higher-Symm/Only-C60
REM
REM
REM
REM
REM
REM ./C.cell (28575a23ae977d3b5fae324c64b13b57)
REM
REM compiler GCC version 9.2.1 20190827 (Red Hat 9.2.1-1)
REM options -cpp -mtune=generic -march=x86-64 -g -O0 -fpre-include=/usr/include/finclude/math-vector-fortran.h
REM seed -843980036 1153714669 -1880659157 1475970795 1848934513 -1554609113 -1500123915 -1530515465 -1076170429 -28105461 1765754589 -326721490 -1144501339 438713599 -2061421329 1106573030 1457057323 -841561591 1209541231 196937879 -795665097 -564217829 390829670 -1633689622 -1617199932 -1421510157 1487963840 -682605192 1810423964 1695081850 1993419420 -1892523913 -1245412550
REM
CELL 1.54180   50.00000   50.00000   50.00000   90.00000   90.00000   90.00000
LATT -1
SFAC C  
C      1  0.4922630000000  0.4431440000000  0.5554640000000 1.0
C      1  0.4860960000000  0.4889220000000  0.5746970000000 1.0
C      1  0.4928650000000  0.5337180000000  0.5645470000000 1.0
C      1  0.4828460000000  0.5620670000000  0.5317000000000 1.0
C      1  0.4938980000000  0.5755420000000  0.4892920000000 1.0
C      1  0.4922650000000  0.5568570000000  0.4445360000000 1.0
C      1  0.4860990000000  0.5110780000000  0.4252950000000 1.0
C      1  0.4928240000000  0.4662840000000  0.4354860000000 1.0
C      1  0.4828830000000  0.4378850000000  0.4682690000000 1.0
C      1  0.4939240000000  0.4244390000000  0.5107150000000 1.0
C      1  0.5427780000000  0.4610890000000  0.5392320000000 1.0
C      1  0.5381040000000  0.4902940000000  0.5541050000000 1.0
C      1  0.5452610000000  0.5217970000000  0.5436270000000 1.0
C      1  0.5363720000000  0.5473630000000  0.5238240000000 1.0
C      1  0.5453400000000  0.5513400000000  0.4924040000000 1.0
C      1  0.5427780000000  0.5389110000000  0.4607680000000 1.0
C      1  0.5381050000000  0.5097070000000  0.4458950000000 1.0
C      1  0.5452590000000  0.4782020000000  0.4563720000000 1.0
C      1  0.5363670000000  0.4526430000000  0.4761790000000 1.0
C      1  0.5453380000000  0.4486610000000  0.5075960000000 1.0
C      1  0.4641090000000  0.5329690000000  0.5618630000000 1.0
C      1  0.4538780000000  0.5591830000000  0.5302250000000 1.0
C      1  0.4651240000000  0.5740950000000  0.4922170000000 1.0
C      1  0.4635480000000  0.5544280000000  0.4433180000000 1.0
C      1  0.4570720000000  0.5112730000000  0.4271700000000 1.0
C      1  0.4640720000000  0.4669870000000  0.4382510000000 1.0
C      1  0.4539030000000  0.4407670000000  0.4697540000000 1.0
C      1  0.4651370000000  0.4258770000000  0.5078540000000 1.0
C      1  0.4635410000000  0.4455780000000  0.5566680000000 1.0
C      1  0.4570740000000  0.4887410000000  0.5728060000000 1.0
C      1  0.5029380000000  0.5420940000000  0.5206240000000 1.0
C      1  0.5115140000000  0.5511780000000  0.4902270000000 1.0
C      1  0.5094040000000  0.5389100000000  0.4609980000000 1.0
C      1  0.5047350000000  0.5096780000000  0.4487560000000 1.0
C      1  0.5110900000000  0.4791320000000  0.4557350000000 1.0
C      1  0.5029250000000  0.4579010000000  0.4793730000000 1.0
C      1  0.5115070000000  0.4488250000000  0.5097730000000 1.0
C      1  0.5094040000000  0.4610900000000  0.5390030000000 1.0
C      1  0.5047400000000  0.4903210000000  0.5512470000000 1.0
C      1  0.5110920000000  0.5208710000000  0.5442610000000 1.0
C      1  0.4418890000000  0.5101930000000  0.4534100000000 1.0
C      1  0.4496060000000  0.4814010000000  0.4597020000000 1.0
C      1  0.4394360000000  0.4647020000000  0.4840870000000 1.0
C      1  0.4494930000000  0.4507420000000  0.5103160000000 1.0
C      1  0.4480050000000  0.4614440000000  0.5376050000000 1.0
C      1  0.4419100000000  0.4898810000000  0.5465330000000 1.0
C      1  0.4495940000000  0.5186460000000  0.5403340000000 1.0
C      1  0.4394260000000  0.5353260000000  0.5158640000000 1.0
C      1  0.4494810000000  0.5492420000000  0.4896410000000 1.0
C      1  0.4480080000000  0.5385790000000  0.4623810000000 1.0
C      1  0.5634810000000  0.5333320000000  0.5644180000000 1.0
C      1  0.5422340000000  0.5728130000000  0.5385040000000 1.0
C      1  0.5621250000000  0.5759530000000  0.4909300000000 1.0
C      1  0.5567820000000  0.5572450000000  0.4420520000000 1.0
C      1  0.5477200000000  0.5123530000000  0.4177020000000 1.0
C      1  0.5634810000000  0.4666670000000  0.4355820000000 1.0
C      1  0.5422320000000  0.4271890000000  0.4614980000000 1.0
C      1  0.5621240000000  0.4240470000000  0.5090690000000 1.0
C      1  0.5567830000000  0.4427550000000  0.5579480000000 1.0
C      1  0.5477190000000  0.4876470000000  0.5822970000000 1.0
END
