TITL C-3985259-1859-232 -0.00206544565417603 125000 -292.371122141413 0 0 60 (C2h) n - 1
REM
REM in /home/nfs/bkarasulu/CARBON/AIRSS/Generating-Clusters/TERSOFF/Higher-Symm/Only-C60
REM
REM
REM
REM
REM
REM ./C.cell (28575a23ae977d3b5fae324c64b13b57)
REM
REM compiler GCC version 9.2.1 20190827 (Red Hat 9.2.1-1)
REM options -cpp -mtune=generic -march=x86-64 -g -O0 -fpre-include=/usr/include/finclude/math-vector-fortran.h
REM seed -626303540 614571535 -766748648 -2147251338 47587777 1898633599 1818676307 -643627824 2011010313 538094371 154456134 1359376433 -1153908340 1518024880 -913185303 531800334 -242408721 -152591203 1525995666 -1954112185 -65266274 1031056537 824621709 277456815 -1166779270 -1107259617 -990430115 1320075417 1600825449 -237044279 61938466 -1518254741 1967860157
REM
CELL 1.54180   50.00000   50.00000   50.00000   90.00000   90.00000   90.00000
LATT -1
SFAC C  
C      1  0.4754070000000  0.4419590000000  0.4665740000000 1.0
C      1  0.5245560000000  0.4418740000000  0.5334220000000 1.0
C      1  0.4754080000000  0.5580430000000  0.4665740000000 1.0
C      1  0.5245560000000  0.5581250000000  0.5334220000000 1.0
C      1  0.4507100000000  0.5209800000000  0.5045430000000 1.0
C      1  0.5493090000000  0.5210500000000  0.4954060000000 1.0
C      1  0.4507090000000  0.4790190000000  0.5045430000000 1.0
C      1  0.5493100000000  0.4789500000000  0.4954060000000 1.0
C      1  0.4762370000000  0.4763140000000  0.4714000000000 1.0
C      1  0.5237890000000  0.4762620000000  0.5285740000000 1.0
C      1  0.4762350000000  0.5236870000000  0.4713990000000 1.0
C      1  0.5237890000000  0.5237380000000  0.5285740000000 1.0
C      1  0.4521950000000  0.4427930000000  0.5257030000000 1.0
C      1  0.5478110000000  0.4426230000000  0.4744050000000 1.0
C      1  0.4521940000000  0.5572060000000  0.5257040000000 1.0
C      1  0.5478110000000  0.5573760000000  0.4744050000000 1.0
C      1  0.5000950000000  0.4346130000000  0.4845790000000 1.0
C      1  0.4998150000000  0.4346490000000  0.5153990000000 1.0
C      1  0.5000950000000  0.5653870000000  0.4845800000000 1.0
C      1  0.4998140000000  0.5653500000000  0.5153990000000 1.0
C      1  0.4405610000000  0.4825220000000  0.4718960000000 1.0
C      1  0.5594750000000  0.4824630000000  0.5280790000000 1.0
C      1  0.4405610000000  0.5174770000000  0.4718960000000 1.0
C      1  0.5594750000000  0.5175370000000  0.5280790000000 1.0
C      1  0.5210560000000  0.4537270000000  0.4773450000000 1.0
C      1  0.4789730000000  0.4538470000000  0.5226620000000 1.0
C      1  0.5210560000000  0.5462740000000  0.4773450000000 1.0
C      1  0.4789730000000  0.5461530000000  0.5226630000000 1.0
C      1  0.4420350000000  0.5154110000000  0.5329390000000 1.0
C      1  0.5579350000000  0.5153970000000  0.4670630000000 1.0
C      1  0.4420340000000  0.4845900000000  0.5329410000000 1.0
C      1  0.5579350000000  0.4846030000000  0.4670630000000 1.0
C      1  0.5168540000000  0.5180000000000  0.4966680000000 1.0
C      1  0.4831810000000  0.5179740000000  0.5032810000000 1.0
C      1  0.5168540000000  0.4820000000000  0.4966680000000 1.0
C      1  0.4831810000000  0.4820270000000  0.5032820000000 1.0
C      1  0.5633010000000  0.5625710000000  0.4979710000000 1.0
C      1  0.4366690000000  0.5623310000000  0.5020910000000 1.0
C      1  0.5633010000000  0.4374290000000  0.4979710000000 1.0
C      1  0.4366690000000  0.4376680000000  0.5020920000000 1.0
C      1  0.5327890000000  0.4833260000000  0.4451720000000 1.0
C      1  0.4672210000000  0.4833370000000  0.5548440000000 1.0
C      1  0.5327890000000  0.5166740000000  0.4451720000000 1.0
C      1  0.4672210000000  0.5166630000000  0.5548430000000 1.0
C      1  0.5012090000000  0.5170230000000  0.5540000000000 1.0
C      1  0.4988250000000  0.5170270000000  0.4459660000000 1.0
C      1  0.5012090000000  0.4829770000000  0.5540000000000 1.0
C      1  0.4988260000000  0.4829730000000  0.4459650000000 1.0
C      1  0.4871130000000  0.5468890000000  0.4382480000000 1.0
C      1  0.5128710000000  0.5468900000000  0.5617590000000 1.0
C      1  0.4871120000000  0.4531110000000  0.4382470000000 1.0
C      1  0.5128700000000  0.4531090000000  0.5617590000000 1.0
C      1  0.5829450000000  0.4765430000000  0.5473740000000 1.0
C      1  0.4170810000000  0.4765570000000  0.4526830000000 1.0
C      1  0.5829450000000  0.5234570000000  0.5473740000000 1.0
C      1  0.4170800000000  0.5234430000000  0.4526830000000 1.0
C      1  0.4453610000000  0.4483370000000  0.4763920000000 1.0
C      1  0.5546210000000  0.4482620000000  0.5235610000000 1.0
C      1  0.4453640000000  0.5516620000000  0.4763910000000 1.0
C      1  0.5546210000000  0.5517380000000  0.5235600000000 1.0
END
