TITL C-3985245-9316-852 2.20192837728099e-07 125000 -346.452232451606 0 0 60 (D6d) n - 1
REM
REM in /home/nfs/bkarasulu/CARBON/AIRSS/Generating-Clusters/TERSOFF/Higher-Symm/Only-C60
REM
REM
REM
REM
REM
REM ./C.cell (28575a23ae977d3b5fae324c64b13b57)
REM
REM compiler GCC version 9.2.1 20190827 (Red Hat 9.2.1-1)
REM options -cpp -mtune=generic -march=x86-64 -g -O0 -fpre-include=/usr/include/finclude/math-vector-fortran.h
REM seed -703298569 -2093373654 -1758504433 -1765232782 -1043639915 1405773573 -1972319525 -1057147952 1203294993 1539367223 956992602 -992025609 1076062063 -280213159 -300326680 -1439711340 61086154 -1663139768 -144087336 -534747870 1352761362 -302131853 840345925 1395878354 575569456 -1536099176 -1081071819 691339233 -1888218262 -1494659238 1183196719 -965070463 -1492677040
REM
CELL 1.54180   50.00000   50.00000   50.00000   90.00000   90.00000   90.00000
LATT -1
SFAC C  
C      1  0.5610580000000  0.4962050000000  0.5473360000000 1.0
C      1  0.4389420000000  0.5203820000000  0.5428920000000 1.0
C      1  0.5610580000000  0.5390970000000  0.5269550000000 1.0
C      1  0.4389420000000  0.5473360000000  0.5037950000000 1.0
C      1  0.5610580000000  0.5428920000000  0.4796180000000 1.0
C      1  0.4389420000000  0.5269550000000  0.4609030000000 1.0
C      1  0.5610580000000  0.5037950000000  0.4526640000000 1.0
C      1  0.4389420000000  0.4796180000000  0.4571080000000 1.0
C      1  0.5610580000000  0.4609030000000  0.4730450000000 1.0
C      1  0.4389420000000  0.4526640000000  0.4962050000000 1.0
C      1  0.5610580000000  0.4571080000000  0.5203820000000 1.0
C      1  0.4389420000000  0.4730450000000  0.5390970000000 1.0
C      1  0.5080080000000  0.4564960000000  0.5206720000000 1.0
C      1  0.4919920000000  0.4726610000000  0.5396550000000 1.0
C      1  0.5080080000000  0.4961510000000  0.5480120000000 1.0
C      1  0.4919920000000  0.5206720000000  0.5435040000000 1.0
C      1  0.5080080000000  0.5396550000000  0.5273390000000 1.0
C      1  0.4919920000000  0.5480120000000  0.5038490000000 1.0
C      1  0.5080080000000  0.5435040000000  0.4793280000000 1.0
C      1  0.4919920000000  0.5273390000000  0.4603450000000 1.0
C      1  0.5080080000000  0.5038490000000  0.4519880000000 1.0
C      1  0.4919920000000  0.4793280000000  0.4564960000000 1.0
C      1  0.5080080000000  0.4603450000000  0.4726610000000 1.0
C      1  0.4919920000000  0.4519880000000  0.4961510000000 1.0
C      1  0.5852220000000  0.4754470000000  0.4830730000000 1.0
C      1  0.4147780000000  0.4702730000000  0.4976170000000 1.0
C      1  0.5852220000000  0.4730640000000  0.5128000000000 1.0
C      1  0.4147780000000  0.4830730000000  0.5245530000000 1.0
C      1  0.5852220000000  0.4976170000000  0.5297270000000 1.0
C      1  0.4147780000000  0.5128000000000  0.5269360000000 1.0
C      1  0.5852220000000  0.5245530000000  0.5169270000000 1.0
C      1  0.4147780000000  0.5297270000000  0.5023830000000 1.0
C      1  0.5852220000000  0.5269360000000  0.4872000000000 1.0
C      1  0.4147780000000  0.5169270000000  0.4754470000000 1.0
C      1  0.5852220000000  0.5023830000000  0.4702730000000 1.0
C      1  0.4147780000000  0.4872000000000  0.4730640000000 1.0
C      1  0.4373610000000  0.4566240000000  0.5629170000000 1.0
C      1  0.5626390000000  0.4938930000000  0.5761760000000 1.0
C      1  0.4373610000000  0.5327990000000  0.5690240000000 1.0
C      1  0.5626390000000  0.5629170000000  0.5433760000000 1.0
C      1  0.4373610000000  0.5761760000000  0.5061070000000 1.0
C      1  0.5626390000000  0.5690240000000  0.4672010000000 1.0
C      1  0.4373610000000  0.5433760000000  0.4370830000000 1.0
C      1  0.5626390000000  0.5061070000000  0.4238240000000 1.0
C      1  0.4373610000000  0.4672010000000  0.4309760000000 1.0
C      1  0.5626390000000  0.4370830000000  0.4566240000000 1.0
C      1  0.4373610000000  0.4238240000000  0.4938930000000 1.0
C      1  0.5626390000000  0.4309760000000  0.5327990000000 1.0
C      1  0.5346200000000  0.4974190000000  0.5321920000000 1.0
C      1  0.4653800000000  0.5138610000000  0.5291700000000 1.0
C      1  0.5346200000000  0.5265890000000  0.5183310000000 1.0
C      1  0.4653800000000  0.5321920000000  0.5025810000000 1.0
C      1  0.5346200000000  0.5291700000000  0.4861390000000 1.0
C      1  0.4653800000000  0.5183310000000  0.4734110000000 1.0
C      1  0.5346200000000  0.5025810000000  0.4678080000000 1.0
C      1  0.4653800000000  0.4861390000000  0.4708300000000 1.0
C      1  0.5346200000000  0.4734110000000  0.4816690000000 1.0
C      1  0.4653800000000  0.4678080000000  0.4974190000000 1.0
C      1  0.5346200000000  0.4708300000000  0.5138610000000 1.0
C      1  0.4653800000000  0.4816690000000  0.5265890000000 1.0
END
