TITL C-3985254-1270-890 -1.00696182607881e-09 125000 -323.166470336964 0 0 60 (C4) n - 1
REM
REM in /home/nfs/bkarasulu/CARBON/AIRSS/Generating-Clusters/TERSOFF/Higher-Symm/Only-C60
REM
REM
REM
REM
REM
REM ./C.cell (28575a23ae977d3b5fae324c64b13b57)
REM
REM compiler GCC version 9.2.1 20190827 (Red Hat 9.2.1-1)
REM options -cpp -mtune=generic -march=x86-64 -g -O0 -fpre-include=/usr/include/finclude/math-vector-fortran.h
REM seed 148862640 -1181535922 -333320818 -1177825014 -919825208 -2091020276 -1921770222 2104729867 174125598 -2087952538 -565709413 -1850219574 -988206853 1438181582 -1589251095 1846439884 508352774 -1943526103 339608435 -32785580 738226671 -602144704 -1950583283 325692639 -595446743 659423062 579358412 -883015742 -2125144367 -527751799 1977106493 -500809328 -121360030
REM
CELL 1.54180   50.00000   50.00000   50.00000   90.00000   90.00000   90.00000
LATT -1
SFAC C  
C      1  0.4608840000000  0.4799780000000  0.5140190000000 1.0
C      1  0.4859810000000  0.4799780000000  0.4608840000000 1.0
C      1  0.5391160000000  0.4799780000000  0.4859810000000 1.0
C      1  0.5140190000000  0.4799780000000  0.5391160000000 1.0
C      1  0.5209790000000  0.5413220000000  0.5614650000000 1.0
C      1  0.4385350000000  0.5413220000000  0.5209790000000 1.0
C      1  0.4790210000000  0.5413220000000  0.4385350000000 1.0
C      1  0.5614650000000  0.5413220000000  0.4790210000000 1.0
C      1  0.4597830000000  0.4731540000000  0.4414250000000 1.0
C      1  0.5585750000000  0.4731540000000  0.4597830000000 1.0
C      1  0.5402170000000  0.4731540000000  0.5585750000000 1.0
C      1  0.4414250000000  0.4731540000000  0.5402170000000 1.0
C      1  0.5228900000000  0.4793270000000  0.4267910000000 1.0
C      1  0.5732090000000  0.4793270000000  0.5228900000000 1.0
C      1  0.4771100000000  0.4793270000000  0.5732090000000 1.0
C      1  0.4267910000000  0.4793270000000  0.4771100000000 1.0
C      1  0.4852360000000  0.5300720000000  0.4836780000000 1.0
C      1  0.5163220000000  0.5300720000000  0.4852360000000 1.0
C      1  0.5147640000000  0.5300720000000  0.5163220000000 1.0
C      1  0.4836780000000  0.5300720000000  0.5147640000000 1.0
C      1  0.4674570000000  0.5364560000000  0.5657590000000 1.0
C      1  0.4342410000000  0.5364560000000  0.4674570000000 1.0
C      1  0.5325430000000  0.5364560000000  0.4342410000000 1.0
C      1  0.5657590000000  0.5364560000000  0.5325430000000 1.0
C      1  0.5085160000000  0.4982710000000  0.4446790000000 1.0
C      1  0.5553210000000  0.4982710000000  0.5085160000000 1.0
C      1  0.4914840000000  0.4982710000000  0.5553210000000 1.0
C      1  0.4446790000000  0.4982710000000  0.4914840000000 1.0
C      1  0.4426000000000  0.4587610000000  0.4629880000000 1.0
C      1  0.5370120000000  0.4587610000000  0.4426000000000 1.0
C      1  0.5574000000000  0.4587610000000  0.5370120000000 1.0
C      1  0.4629880000000  0.4587610000000  0.5574000000000 1.0
C      1  0.5154490000000  0.4601000000000  0.4669980000000 1.0
C      1  0.5330020000000  0.4601000000000  0.5154490000000 1.0
C      1  0.4845510000000  0.4601000000000  0.5330020000000 1.0
C      1  0.4669980000000  0.4601000000000  0.4845510000000 1.0
C      1  0.4317020000000  0.5257340000000  0.4960350000000 1.0
C      1  0.5039650000000  0.5257340000000  0.4317020000000 1.0
C      1  0.5682980000000  0.5257340000000  0.5039650000000 1.0
C      1  0.4960350000000  0.5257340000000  0.5682980000000 1.0
C      1  0.4809810000000  0.5541240000000  0.4657750000000 1.0
C      1  0.5342250000000  0.5541240000000  0.4809810000000 1.0
C      1  0.5190190000000  0.5541240000000  0.5342250000000 1.0
C      1  0.4657750000000  0.5541240000000  0.5190190000000 1.0
C      1  0.5279770000000  0.5067230000000  0.4688640000000 1.0
C      1  0.5311360000000  0.5067230000000  0.5279770000000 1.0
C      1  0.4720230000000  0.5067230000000  0.5311360000000 1.0
C      1  0.4688640000000  0.5067230000000  0.4720230000000 1.0
C      1  0.4489040000000  0.4985750000000  0.4310580000000 1.0
C      1  0.5689420000000  0.4985750000000  0.4489040000000 1.0
C      1  0.5510960000000  0.4985750000000  0.5689420000000 1.0
C      1  0.4310580000000  0.4985750000000  0.5510960000000 1.0
C      1  0.4471920000000  0.5233080000000  0.5453340000000 1.0
C      1  0.4546660000000  0.5233080000000  0.4471920000000 1.0
C      1  0.5528080000000  0.5233080000000  0.4546660000000 1.0
C      1  0.5453340000000  0.5233080000000  0.5528080000000 1.0
C      1  0.4907600000000  0.4340960000000  0.5200030000000 1.0
C      1  0.4799970000000  0.4340960000000  0.4907600000000 1.0
C      1  0.5092400000000  0.4340960000000  0.4799970000000 1.0
C      1  0.5200030000000  0.4340960000000  0.5092400000000 1.0
END
