TITL C-3985253-1688-371 -2.4283765747028e-07 125000 -317.457240888882 0 0 60 (C6h) n - 1
REM
REM in /home/nfs/bkarasulu/CARBON/AIRSS/Generating-Clusters/TERSOFF/Higher-Symm/Only-C60
REM
REM
REM
REM
REM
REM ./C.cell (28575a23ae977d3b5fae324c64b13b57)
REM
REM compiler GCC version 9.2.1 20190827 (Red Hat 9.2.1-1)
REM options -cpp -mtune=generic -march=x86-64 -g -O0 -fpre-include=/usr/include/finclude/math-vector-fortran.h
REM seed 1636449026 -1450171952 581026791 694649083 -1913700752 -655112429 126158731 683102152 942602409 546745966 -1265929612 555941405 -896219903 567975997 -1875799091 -24810391 2089227549 1104326986 362720008 -1629222086 1364755243 1379038576 -2146136482 2068270345 -753683709 -625465058 -1453768701 28825609 1993278505 -1656504687 -484099051 256394884 -356552158
REM
CELL 1.54180   50.00000   50.00000   50.00000   90.00000   90.00000   90.00000
LATT -1
SFAC C  
C      1  0.4944780000000  0.4221360000000  0.5504220000000 1.0
C      1  0.5409060000000  0.4221360000000  0.5299930000000 1.0
C      1  0.5464280000000  0.4221360000000  0.4795710000000 1.0
C      1  0.5055220000000  0.4221360000000  0.4495780000000 1.0
C      1  0.4590940000000  0.4221360000000  0.4700070000000 1.0
C      1  0.4535720000000  0.4221360000000  0.5204290000000 1.0
C      1  0.4944780000000  0.5778640000000  0.5504220000000 1.0
C      1  0.5409060000000  0.5778640000000  0.5299930000000 1.0
C      1  0.5464280000000  0.5778640000000  0.4795710000000 1.0
C      1  0.5055220000000  0.5778640000000  0.4495780000000 1.0
C      1  0.4590940000000  0.5778640000000  0.4700070000000 1.0
C      1  0.4535720000000  0.5778640000000  0.5204290000000 1.0
C      1  0.5190600000000  0.4358030000000  0.5433170000000 1.0
C      1  0.5470440000000  0.4358030000000  0.5051520000000 1.0
C      1  0.5279840000000  0.4358030000000  0.4618350000000 1.0
C      1  0.4809400000000  0.4358030000000  0.4566830000000 1.0
C      1  0.4529560000000  0.4358030000000  0.4948480000000 1.0
C      1  0.4720160000000  0.4358030000000  0.5381650000000 1.0
C      1  0.5190600000000  0.5641970000000  0.5433170000000 1.0
C      1  0.5470440000000  0.5641970000000  0.5051520000000 1.0
C      1  0.5279840000000  0.5641970000000  0.4618350000000 1.0
C      1  0.4809400000000  0.5641970000000  0.4566830000000 1.0
C      1  0.4529560000000  0.5641970000000  0.4948480000000 1.0
C      1  0.4720160000000  0.5641970000000  0.5381650000000 1.0
C      1  0.4808260000000  0.4638370000000  0.5261500000000 1.0
C      1  0.5130600000000  0.4638370000000  0.5296800000000 1.0
C      1  0.5322340000000  0.4638370000000  0.5035300000000 1.0
C      1  0.5191740000000  0.4638370000000  0.4738500000000 1.0
C      1  0.4869400000000  0.4638370000000  0.4703200000000 1.0
C      1  0.4677660000000  0.4638370000000  0.4964700000000 1.0
C      1  0.4808260000000  0.5361630000000  0.5261500000000 1.0
C      1  0.5130600000000  0.5361630000000  0.5296800000000 1.0
C      1  0.5322340000000  0.5361630000000  0.5035300000000 1.0
C      1  0.5191740000000  0.5361630000000  0.4738500000000 1.0
C      1  0.4869400000000  0.5361630000000  0.4703200000000 1.0
C      1  0.4677660000000  0.5361630000000  0.4964700000000 1.0
C      1  0.4779480000000  0.5159990000000  0.4498820000000 1.0
C      1  0.4455710000000  0.5159990000000  0.4940390000000 1.0
C      1  0.4676230000000  0.5159990000000  0.5441570000000 1.0
C      1  0.5220520000000  0.5159990000000  0.5501180000000 1.0
C      1  0.5544290000000  0.5159990000000  0.5059610000000 1.0
C      1  0.5323770000000  0.5159990000000  0.4558430000000 1.0
C      1  0.4779480000000  0.4840010000000  0.4498820000000 1.0
C      1  0.4455710000000  0.4840010000000  0.4940390000000 1.0
C      1  0.4676230000000  0.4840010000000  0.5441570000000 1.0
C      1  0.5220520000000  0.4840010000000  0.5501180000000 1.0
C      1  0.5544290000000  0.4840010000000  0.5059610000000 1.0
C      1  0.5323770000000  0.4840010000000  0.4558430000000 1.0
C      1  0.5506400000000  0.4840810000000  0.5642450000000 1.0
C      1  0.5809580000000  0.4840810000000  0.4882670000000 1.0
C      1  0.5303180000000  0.4840810000000  0.4240220000000 1.0
C      1  0.4493600000000  0.4840810000000  0.4357550000000 1.0
C      1  0.4190420000000  0.4840810000000  0.5117330000000 1.0
C      1  0.4696820000000  0.4840810000000  0.5759780000000 1.0
C      1  0.5506400000000  0.5159190000000  0.5642450000000 1.0
C      1  0.5809580000000  0.5159190000000  0.4882670000000 1.0
C      1  0.5303180000000  0.5159190000000  0.4240220000000 1.0
C      1  0.4493600000000  0.5159190000000  0.4357550000000 1.0
C      1  0.4190420000000  0.5159190000000  0.5117330000000 1.0
C      1  0.4696820000000  0.5159190000000  0.5759780000000 1.0
END
