TITL C-3985252-168-371 0.00015239571431967 125000 -325.557266178304 0 0 60 (C1) n - 1
REM
REM in /home/nfs/bkarasulu/CARBON/AIRSS/Generating-Clusters/TERSOFF/Higher-Symm/Only-C60
REM
REM
REM
REM
REM
REM ./C.cell (28575a23ae977d3b5fae324c64b13b57)
REM
REM compiler GCC version 9.2.1 20190827 (Red Hat 9.2.1-1)
REM options -cpp -mtune=generic -march=x86-64 -g -O0 -fpre-include=/usr/include/finclude/math-vector-fortran.h
REM seed -1149163602 1197434424 1757489931 -281958105 1535001927 772291475 566626763 486373519 1523909641 -1881099901 1595109611 -2527251 908726873 -675324934 -2067696772 -1287599753 -183500937 1763130613 -1172469047 1049976141 1687616206 505650862 -287650821 267093579 196327862 -1055389366 -1181280200 -226735300 -1112579169 1288086300 -1810643237 -1716406036 848512201
REM
CELL 1.54180   50.00000   50.00000   50.00000   90.00000   90.00000   90.00000
LATT -1
SFAC C  
C      1  0.5307630000000  0.4386840000000  0.4763490000000 1.0
C      1  0.5315150000000  0.4573290000000  0.5504420000000 1.0
C      1  0.5279180000000  0.5361440000000  0.5570930000000 1.0
C      1  0.5285580000000  0.5655530000000  0.4829960000000 1.0
C      1  0.5288270000000  0.5045010000000  0.4315260000000 1.0
C      1  0.5126510000000  0.4349000000000  0.5453250000000 1.0
C      1  0.5084080000000  0.5248170000000  0.5760250000000 1.0
C      1  0.5090560000000  0.5790780000000  0.5003460000000 1.0
C      1  0.5098820000000  0.5261450000000  0.4247660000000 1.0
C      1  0.5131620000000  0.4362460000000  0.4515560000000 1.0
C      1  0.5304810000000  0.4854730000000  0.4755330000000 1.0
C      1  0.5244440000000  0.4744750000000  0.5034920000000 1.0
C      1  0.5238730000000  0.4987360000000  0.5242410000000 1.0
C      1  0.5325840000000  0.5269930000000  0.5073060000000 1.0
C      1  0.5345600000000  0.5163130000000  0.4763370000000 1.0
C      1  0.5079700000000  0.4493160000000  0.4971850000000 1.0
C      1  0.5171000000000  0.4850960000000  0.5513730000000 1.0
C      1  0.5180250000000  0.5433440000000  0.5290190000000 1.0
C      1  0.5185380000000  0.5410280000000  0.4682270000000 1.0
C      1  0.5162140000000  0.4828300000000  0.4495010000000 1.0
C      1  0.4559040000000  0.4493330000000  0.4879830000000 1.0
C      1  0.4555660000000  0.4730180000000  0.5442440000000 1.0
C      1  0.4572480000000  0.5318520000000  0.5391310000000 1.0
C      1  0.4571070000000  0.5464410000000  0.4817290000000 1.0
C      1  0.4577520000000  0.4965410000000  0.4505770000000 1.0
C      1  0.4848250000000  0.5091900000000  0.4586330000000 1.0
C      1  0.4859380000000  0.4545560000000  0.4779960000000 1.0
C      1  0.4836270000000  0.4675490000000  0.5331170000000 1.0
C      1  0.4845420000000  0.5171540000000  0.5414260000000 1.0
C      1  0.4846740000000  0.5433530000000  0.4955120000000 1.0
C      1  0.5756980000000  0.5078860000000  0.4759490000000 1.0
C      1  0.5751290000000  0.4790010000000  0.4861800000000 1.0
C      1  0.5723290000000  0.4793370000000  0.5166400000000 1.0
C      1  0.5715700000000  0.5087270000000  0.5254740000000 1.0
C      1  0.5739810000000  0.5263020000000  0.5003350000000 1.0
C      1  0.4484490000000  0.4433440000000  0.5400890000000 1.0
C      1  0.4494550000000  0.5191250000000  0.5661650000000 1.0
C      1  0.4503540000000  0.5676940000000  0.5032460000000 1.0
C      1  0.4508620000000  0.5232080000000  0.4364580000000 1.0
C      1  0.4492910000000  0.4469990000000  0.4576260000000 1.0
C      1  0.4644450000000  0.5461210000000  0.4512410000000 1.0
C      1  0.4638510000000  0.4676220000000  0.4412480000000 1.0
C      1  0.4629450000000  0.4327530000000  0.5157220000000 1.0
C      1  0.4625940000000  0.4918900000000  0.5684340000000 1.0
C      1  0.4642250000000  0.5606180000000  0.5293620000000 1.0
C      1  0.4935260000000  0.4398390000000  0.5224250000000 1.0
C      1  0.4938600000000  0.4993180000000  0.5668150000000 1.0
C      1  0.4947190000000  0.5608560000000  0.5201080000000 1.0
C      1  0.4952350000000  0.5375510000000  0.4487560000000 1.0
C      1  0.4942570000000  0.4611060000000  0.4467440000000 1.0
C      1  0.4405870000000  0.5230100000000  0.4906250000000 1.0
C      1  0.4409970000000  0.4975300000000  0.4752650000000 1.0
C      1  0.4410350000000  0.4748920000000  0.4946340000000 1.0
C      1  0.4403830000000  0.4865440000000  0.5222520000000 1.0
C      1  0.4405560000000  0.5162140000000  0.5196480000000 1.0
C      1  0.5470130000000  0.4637060000000  0.5231200000000 1.0
C      1  0.5473590000000  0.5132660000000  0.5440800000000 1.0
C      1  0.5544850000000  0.5517040000000  0.4990680000000 1.0
C      1  0.5561150000000  0.5151640000000  0.4510670000000 1.0
C      1  0.5529800000000  0.4626850000000  0.4722380000000 1.0
END
