TITL C-3985254-1270-559 -0.00182634880539946 125000 -331.983747219011 0 0 60 (S10) n - 1
REM
REM in /home/nfs/bkarasulu/CARBON/AIRSS/Generating-Clusters/TERSOFF/Higher-Symm/Only-C60
REM
REM
REM
REM
REM
REM ./C.cell (28575a23ae977d3b5fae324c64b13b57)
REM
REM compiler GCC version 9.2.1 20190827 (Red Hat 9.2.1-1)
REM options -cpp -mtune=generic -march=x86-64 -g -O0 -fpre-include=/usr/include/finclude/math-vector-fortran.h
REM seed 1613176813 -310002064 581299910 -1001066018 -461658187 -774446364 2146723834 -784729208 1677097362 -1237522635 -824284473 -496015913 1299974845 -332991146 -1733112772 -1333893668 1107010159 869834361 -1333522327 -588708835 1923132867 -1530725567 302354626 -1562957006 885106610 1645097084 1583351037 -1881364991 -184648678 16299295 7754762 698713343 -2083124814
REM
CELL 1.54180   50.00000   50.00000   50.00000   90.00000   90.00000   90.00000
LATT -1
SFAC C  
C      1  0.4918980000000  0.5205260000000  0.4724240000000 1.0
C      1  0.4772350000000  0.4794750000000  0.4824480000000 1.0
C      1  0.4712600000000  0.5205300000000  0.4991830000000 1.0
C      1  0.4762730000000  0.4794800000000  0.5162230000000 1.0
C      1  0.4903380000000  0.5205260000000  0.5270720000000 1.0
C      1  0.5081030000000  0.4794730000000  0.5275770000000 1.0
C      1  0.5227660000000  0.5205260000000  0.5175510000000 1.0
C      1  0.5287410000000  0.4794690000000  0.5008150000000 1.0
C      1  0.5237260000000  0.5205220000000  0.4837750000000 1.0
C      1  0.5096620000000  0.4794740000000  0.4729290000000 1.0
C      1  0.4618900000000  0.4868510000000  0.5642500000000 1.0
C      1  0.5069420000000  0.5131510000000  0.5743740000000 1.0
C      1  0.5493380000000  0.4868440000000  0.5560950000000 1.0
C      1  0.5728910000000  0.5131530000000  0.5163840000000 1.0
C      1  0.5686080000000  0.4868400000000  0.4704160000000 1.0
C      1  0.5381110000000  0.5131480000000  0.4357500000000 1.0
C      1  0.4930620000000  0.4868480000000  0.4256280000000 1.0
C      1  0.4506680000000  0.5131570000000  0.4439040000000 1.0
C      1  0.4271140000000  0.4868440000000  0.4836110000000 1.0
C      1  0.4313930000000  0.5131620000000  0.5295790000000 1.0
C      1  0.4752450000000  0.5729470000000  0.5068570000000 1.0
C      1  0.4840070000000  0.4270610000000  0.5201000000000 1.0
C      1  0.4988740000000  0.5729420000000  0.5256560000000 1.0
C      1  0.5141710000000  0.4270560000000  0.5214220000000 1.0
C      1  0.5240560000000  0.5729420000000  0.5089970000000 1.0
C      1  0.5247550000000  0.4270530000000  0.4931420000000 1.0
C      1  0.5159930000000  0.5729390000000  0.4798990000000 1.0
C      1  0.5011250000000  0.4270580000000  0.4743440000000 1.0
C      1  0.4858290000000  0.5729450000000  0.4785780000000 1.0
C      1  0.4759440000000  0.4270580000000  0.4910030000000 1.0
C      1  0.4732650000000  0.4519440000000  0.5321010000000 1.0
C      1  0.4972400000000  0.5480610000000  0.5416840000000 1.0
C      1  0.5222730000000  0.4519370000000  0.5353490000000 1.0
C      1  0.5387920000000  0.5480620000000  0.5155070000000 1.0
C      1  0.5405040000000  0.4519310000000  0.4897520000000 1.0
C      1  0.5267350000000  0.5480570000000  0.4679000000000 1.0
C      1  0.5027600000000  0.4519390000000  0.4583160000000 1.0
C      1  0.4777250000000  0.5480620000000  0.4646510000000 1.0
C      1  0.4612070000000  0.4519370000000  0.4844920000000 1.0
C      1  0.4594950000000  0.5480690000000  0.5102490000000 1.0
C      1  0.5673580000000  0.5424320000000  0.5100420000000 1.0
C      1  0.5604130000000  0.4575570000000  0.4685430000000 1.0
C      1  0.5303730000000  0.5424270000000  0.4390440000000 1.0
C      1  0.4887310000000  0.4575730000000  0.4328440000000 1.0
C      1  0.4514120000000  0.5424330000000  0.4522820000000 1.0
C      1  0.4326430000000  0.4575680000000  0.4899570000000 1.0
C      1  0.4395880000000  0.5424430000000  0.5314560000000 1.0
C      1  0.4696270000000  0.4575730000000  0.5609550000000 1.0
C      1  0.5112680000000  0.5424270000000  0.5671570000000 1.0
C      1  0.5485880000000  0.4575670000000  0.5477190000000 1.0
C      1  0.4390430000000  0.5092780000000  0.5008570000000 1.0
C      1  0.4511860000000  0.4907330000000  0.5365110000000 1.0
C      1  0.4819830000000  0.5092750000000  0.5582250000000 1.0
C      1  0.5196410000000  0.4907230000000  0.5576970000000 1.0
C      1  0.5498110000000  0.5092750000000  0.5351310000000 1.0
C      1  0.5609550000000  0.4907230000000  0.4991520000000 1.0
C      1  0.5488110000000  0.5092640000000  0.4634880000000 1.0
C      1  0.5180160000000  0.4907290000000  0.4417750000000 1.0
C      1  0.4803490000000  0.5092740000000  0.4423060000000 1.0
C      1  0.4501860000000  0.4907260000000  0.4648710000000 1.0
END
