TITL C-3985254-1270-1658 0.00115883868337235 125000 -364.885283195816 0 0 60 (C5) n - 1
REM
REM in /home/nfs/bkarasulu/CARBON/AIRSS/Generating-Clusters/TERSOFF/Higher-Symm/Only-C60
REM
REM
REM
REM
REM
REM ./C.cell (28575a23ae977d3b5fae324c64b13b57)
REM
REM compiler GCC version 9.2.1 20190827 (Red Hat 9.2.1-1)
REM options -cpp -mtune=generic -march=x86-64 -g -O0 -fpre-include=/usr/include/finclude/math-vector-fortran.h
REM seed 633134131 1693513153 1381632929 586278629 723122757 -433552718 68974357 -1855106353 724784427 -1481810406 560411185 390228541 137308840 -44247696 243872803 1545239182 -1647981777 -487343372 -1011698116 1916627568 -1023726057 800913745 1884069637 -226254100 166937366 -1397926660 1274596537 1552700533 -1640933779 -1865226094 -1512649638 1549990458 723885715
REM
CELL 1.54180   50.00000   50.00000   50.00000   90.00000   90.00000   90.00000
LATT -1
SFAC C  
C      1  0.5262760000000  0.5014240000000  0.4355760000000 1.0
C      1  0.5094780000000  0.4754500000000  0.4355890000000 1.0
C      1  0.4795850000000  0.4834010000000  0.4355940000000 1.0
C      1  0.4779120000000  0.5142830000000  0.4355710000000 1.0
C      1  0.5067640000000  0.5254240000000  0.4355780000000 1.0
C      1  0.4758190000000  0.4496520000000  0.5243010000000 1.0
C      1  0.4446440000000  0.5074810000000  0.5243120000000 1.0
C      1  0.4900410000000  0.5549480000000  0.5243070000000 1.0
C      1  0.5491720000000  0.5264630000000  0.5243030000000 1.0
C      1  0.5403810000000  0.4614310000000  0.5243010000000 1.0
C      1  0.5089280000000  0.4767300000000  0.4775470000000 1.0
C      1  0.4806170000000  0.4843230000000  0.4775730000000 1.0
C      1  0.4791000000000  0.5136200000000  0.4775320000000 1.0
C      1  0.5064690000000  0.5240970000000  0.4775390000000 1.0
C      1  0.5249060000000  0.5013050000000  0.4775380000000 1.0
C      1  0.4695920000000  0.4577010000000  0.5528140000000 1.0
C      1  0.4503770000000  0.5158350000000  0.5528060000000 1.0
C      1  0.4997320000000  0.5520840000000  0.5528040000000 1.0
C      1  0.5494530000000  0.5163470000000  0.5528020000000 1.0
C      1  0.5308300000000  0.4580160000000  0.5528050000000 1.0
C      1  0.5247640000000  0.5080600000000  0.5667870000000 1.0
C      1  0.5153210000000  0.4789380000000  0.5667870000000 1.0
C      1  0.4847070000000  0.4789160000000  0.5667870000000 1.0
C      1  0.4752240000000  0.5080300000000  0.5667890000000 1.0
C      1  0.4999850000000  0.5260410000000  0.5667880000000 1.0
C      1  0.5177590000000  0.4540940000000  0.4580900000000 1.0
C      1  0.4618320000000  0.4689280000000  0.4580900000000 1.0
C      1  0.4586430000000  0.5267080000000  0.4580730000000 1.0
C      1  0.5126230000000  0.5475950000000  0.4580590000000 1.0
C      1  0.5491590000000  0.5027030000000  0.4580710000000 1.0
C      1  0.4888600000000  0.4768210000000  0.5179600000000 1.0
C      1  0.4745410000000  0.5033440000000  0.5179880000000 1.0
C      1  0.4952860000000  0.5252650000000  0.5179630000000 1.0
C      1  0.5225900000000  0.5122780000000  0.5179740000000 1.0
C      1  0.5186520000000  0.4822700000000  0.5179840000000 1.0
C      1  0.5039220000000  0.5695300000000  0.5008840000000 1.0
C      1  0.5673380000000  0.5177560000000  0.5008840000000 1.0
C      1  0.5376960000000  0.4414400000000  0.5008870000000 1.0
C      1  0.4559440000000  0.4460540000000  0.5008860000000 1.0
C      1  0.4350850000000  0.5252150000000  0.5008870000000 1.0
C      1  0.4984450000000  0.4340260000000  0.4723900000000 1.0
C      1  0.4367750000000  0.4810930000000  0.4723880000000 1.0
C      1  0.4624800000000  0.5542910000000  0.4723870000000 1.0
C      1  0.5400390000000  0.5524620000000  0.4723840000000 1.0
C      1  0.5622680000000  0.4781340000000  0.4723860000000 1.0
C      1  0.5466560000000  0.5556150000000  0.5215920000000 1.0
C      1  0.5673100000000  0.4728110000000  0.5215940000000 1.0
C      1  0.4949270000000  0.4275820000000  0.5215990000000 1.0
C      1  0.4295550000000  0.4824310000000  0.5215950000000 1.0
C      1  0.4615250000000  0.5615610000000  0.5215930000000 1.0
C      1  0.4338750000000  0.4658850000000  0.4985120000000 1.0
C      1  0.4471320000000  0.5523450000000  0.4985180000000 1.0
C      1  0.5334470000000  0.5664570000000  0.4985140000000 1.0
C      1  0.5735420000000  0.4887300000000  0.4985150000000 1.0
C      1  0.5120100000000  0.4265740000000  0.4985140000000 1.0
C      1  0.5583540000000  0.5287100000000  0.4735400000000 1.0
C      1  0.5453390000000  0.4533750000000  0.4735420000000 1.0
C      1  0.4696690000000  0.4424740000000  0.4735440000000 1.0
C      1  0.4359180000000  0.5110730000000  0.4735440000000 1.0
C      1  0.4907300000000  0.5643710000000  0.4735400000000 1.0
END
