TITL C-3985244-725-271 -4.28382339911538e-05 125000 -327.292804341241 0 0 60 (C1) n - 1
REM
REM in /home/nfs/bkarasulu/CARBON/AIRSS/Generating-Clusters/TERSOFF/Higher-Symm/Only-C60
REM
REM
REM
REM
REM
REM ./C.cell (28575a23ae977d3b5fae324c64b13b57)
REM
REM compiler GCC version 9.2.1 20190827 (Red Hat 9.2.1-1)
REM options -cpp -mtune=generic -march=x86-64 -g -O0 -fpre-include=/usr/include/finclude/math-vector-fortran.h
REM seed -1432463346 -30900363 341480561 1997610461 -2135741229 206255633 -1055540115 -885511791 168637834 -608834307 1623058336 1748826995 -349760623 1205774055 -532505566 -157485973 905343806 1987879248 58511289 -129077157 -1116269701 -4370500 111244727 -1531468385 -1963329469 -1722772925 795100514 1502390412 -1207017579 -1858765520 1754655998 -1938438020 991610639
REM
CELL 1.54180   50.00000   50.00000   50.00000   90.00000   90.00000   90.00000
LATT -1
SFAC C  
C      1  0.4928780000000  0.4841620000000  0.5648780000000 1.0
C      1  0.4934300000000  0.5642020000000  0.4817680000000 1.0
C      1  0.4870200000000  0.4449060000000  0.4521720000000 1.0
C      1  0.4989360000000  0.5200310000000  0.4526310000000 1.0
C      1  0.4987100000000  0.4495570000000  0.5051600000000 1.0
C      1  0.4971180000000  0.5318770000000  0.5432310000000 1.0
C      1  0.4709700000000  0.5654860000000  0.5026330000000 1.0
C      1  0.4715220000000  0.4694150000000  0.4418230000000 1.0
C      1  0.4703670000000  0.4653750000000  0.5549710000000 1.0
C      1  0.4855100000000  0.5149600000000  0.4247660000000 1.0
C      1  0.4829600000000  0.4291460000000  0.5230080000000 1.0
C      1  0.4810170000000  0.5567710000000  0.5505820000000 1.0
C      1  0.5118090000000  0.4614150000000  0.4505810000000 1.0
C      1  0.5184510000000  0.4743290000000  0.5528860000000 1.0
C      1  0.5190380000000  0.5600780000000  0.4969930000000 1.0
C      1  0.5343990000000  0.5702740000000  0.5464360000000 1.0
C      1  0.5324620000000  0.5084070000000  0.4155350000000 1.0
C      1  0.5365910000000  0.4281600000000  0.5400070000000 1.0
C      1  0.5092300000000  0.4794050000000  0.5225500000000 1.0
C      1  0.5100570000000  0.5321000000000  0.5095720000000 1.0
C      1  0.5045590000000  0.4874210000000  0.4670830000000 1.0
C      1  0.5352320000000  0.4979490000000  0.4730890000000 1.0
C      1  0.5376790000000  0.4868750000000  0.5058050000000 1.0
C      1  0.5377380000000  0.5178120000000  0.5164190000000 1.0
C      1  0.5484090000000  0.4342230000000  0.5133810000000 1.0
C      1  0.5378340000000  0.5438640000000  0.5597530000000 1.0
C      1  0.5377950000000  0.5302700000000  0.4341810000000 1.0
C      1  0.5444230000000  0.5494300000000  0.4821980000000 1.0
C      1  0.5392710000000  0.4531860000000  0.4658770000000 1.0
C      1  0.5444940000000  0.4903140000000  0.5578590000000 1.0
C      1  0.5494580000000  0.4795340000000  0.4493410000000 1.0
C      1  0.5571980000000  0.4827200000000  0.5308010000000 1.0
C      1  0.5585140000000  0.5348570000000  0.5034870000000 1.0
C      1  0.5160170000000  0.5755640000000  0.5236040000000 1.0
C      1  0.5232560000000  0.4794990000000  0.4240830000000 1.0
C      1  0.5164740000000  0.4444760000000  0.5537570000000 1.0
C      1  0.4836130000000  0.5044970000000  0.5263940000000 1.0
C      1  0.4862260000000  0.5201870000000  0.4853310000000 1.0
C      1  0.4831310000000  0.4751260000000  0.4901470000000 1.0
C      1  0.4509620000000  0.5422410000000  0.5053170000000 1.0
C      1  0.4524290000000  0.4845050000000  0.4605420000000 1.0
C      1  0.4503490000000  0.4742500000000  0.5330430000000 1.0
C      1  0.4395850000000  0.5305190000000  0.4817370000000 1.0
C      1  0.4383360000000  0.4703010000000  0.4813430000000 1.0
C      1  0.4375000000000  0.4999760000000  0.5345510000000 1.0
C      1  0.5407540000000  0.5184140000000  0.5456120000000 1.0
C      1  0.5390510000000  0.5267850000000  0.4630320000000 1.0
C      1  0.5409250000000  0.4565130000000  0.4953020000000 1.0
C      1  0.4913430000000  0.5504090000000  0.4566260000000 1.0
C      1  0.4858840000000  0.4346070000000  0.4794430000000 1.0
C      1  0.4909770000000  0.5126400000000  0.5669280000000 1.0
C      1  0.4602430000000  0.5245510000000  0.4369430000000 1.0
C      1  0.4565860000000  0.4327500000000  0.5104780000000 1.0
C      1  0.4550050000000  0.5434560000000  0.5524060000000 1.0
C      1  0.4569820000000  0.5142620000000  0.4645090000000 1.0
C      1  0.4533420000000  0.4618610000000  0.5055230000000 1.0
C      1  0.4534940000000  0.5243350000000  0.5297340000000 1.0
C      1  0.4857180000000  0.5751980000000  0.5282580000000 1.0
C      1  0.4900710000000  0.4856790000000  0.4235320000000 1.0
C      1  0.4866690000000  0.4388910000000  0.5503670000000 1.0
END
