TITL C-3985251-913-19 -1.95401368335106e-07 125000 -295.567860307194 0 0 60 (D3h) n - 1
REM
REM in /home/nfs/bkarasulu/CARBON/AIRSS/Generating-Clusters/TERSOFF/Higher-Symm/Only-C60
REM
REM
REM
REM
REM
REM ./C.cell (28575a23ae977d3b5fae324c64b13b57)
REM
REM compiler GCC version 9.2.1 20190827 (Red Hat 9.2.1-1)
REM options -cpp -mtune=generic -march=x86-64 -g -O0 -fpre-include=/usr/include/finclude/math-vector-fortran.h
REM seed -322627129 -499774825 1504813993 -658588677 1154499020 -910215612 1418773503 -622370922 -179710777 -381718202 1349072536 -1426492158 1334241032 -1051966085 1027045478 -1263882306 865957996 1779484607 974489434 -651160056 1165897761 564856577 1335853140 -1352415625 1565664584 -1659437830 1569730732 -138095214 1580488354 -2141934563 -2089264590 -991589476 426698738
REM
CELL 1.54180   50.00000   50.00000   50.00000   90.00000   90.00000   90.00000
LATT -1
SFAC C  
C      1  0.5619650000000  0.5420680000000  0.4604420000000 1.0
C      1  0.5619650000000  0.5132240000000  0.5562110000000 1.0
C      1  0.5619650000000  0.4447070000000  0.4833470000000 1.0
C      1  0.4380350000000  0.5420680000000  0.4604420000000 1.0
C      1  0.4380350000000  0.5132240000000  0.5562110000000 1.0
C      1  0.4380350000000  0.4447070000000  0.4833470000000 1.0
C      1  0.5619650000000  0.5420680000000  0.5395580000000 1.0
C      1  0.5619650000000  0.5132240000000  0.4437890000000 1.0
C      1  0.5619650000000  0.4447070000000  0.5166530000000 1.0
C      1  0.4380350000000  0.5420680000000  0.5395580000000 1.0
C      1  0.4380350000000  0.5132240000000  0.4437890000000 1.0
C      1  0.4380350000000  0.4447070000000  0.5166530000000 1.0
C      1  0.4831320000000  0.4622620000000  0.5319050000000 1.0
C      1  0.4831320000000  0.4912380000000  0.4513650000000 1.0
C      1  0.4831320000000  0.5465000000000  0.5167300000000 1.0
C      1  0.5168680000000  0.4622620000000  0.5319050000000 1.0
C      1  0.5168680000000  0.4912380000000  0.4513650000000 1.0
C      1  0.5168680000000  0.5465000000000  0.5167300000000 1.0
C      1  0.4831320000000  0.4622620000000  0.4680950000000 1.0
C      1  0.4831320000000  0.4912380000000  0.5486350000000 1.0
C      1  0.4831320000000  0.5465000000000  0.4832700000000 1.0
C      1  0.5168680000000  0.4622620000000  0.4680950000000 1.0
C      1  0.5168680000000  0.4912380000000  0.5486350000000 1.0
C      1  0.5168680000000  0.5465000000000  0.4832700000000 1.0
C      1  0.4605080000000  0.4210120000000  0.4840250000000 1.0
C      1  0.4605080000000  0.5533290000000  0.4395820000000 1.0
C      1  0.4605080000000  0.5256590000000  0.5763930000000 1.0
C      1  0.5394920000000  0.4210120000000  0.4840250000000 1.0
C      1  0.5394920000000  0.5533290000000  0.4395820000000 1.0
C      1  0.5394920000000  0.5256590000000  0.5763930000000 1.0
C      1  0.4605080000000  0.4210120000000  0.5159750000000 1.0
C      1  0.4605080000000  0.5533290000000  0.5604180000000 1.0
C      1  0.4605080000000  0.5256590000000  0.4236070000000 1.0
C      1  0.5394920000000  0.4210120000000  0.5159750000000 1.0
C      1  0.5394920000000  0.5533290000000  0.5604180000000 1.0
C      1  0.5394920000000  0.5256590000000  0.4236070000000 1.0
C      1  0.5435640000000  0.5277210000000  0.4838820000000 1.0
C      1  0.5435640000000  0.5000980000000  0.5320660000000 1.0
C      1  0.5435640000000  0.4721810000000  0.4840520000000 1.0
C      1  0.4564360000000  0.5277210000000  0.4838820000000 1.0
C      1  0.4564360000000  0.5000980000000  0.5320660000000 1.0
C      1  0.4564360000000  0.4721810000000  0.4840520000000 1.0
C      1  0.5435640000000  0.5277210000000  0.5161180000000 1.0
C      1  0.5435640000000  0.5000980000000  0.4679340000000 1.0
C      1  0.5435640000000  0.4721810000000  0.5159480000000 1.0
C      1  0.4564360000000  0.5277210000000  0.5161180000000 1.0
C      1  0.4564360000000  0.5000980000000  0.4679340000000 1.0
C      1  0.4564360000000  0.4721810000000  0.5159480000000 1.0
C      1  0.5160210000000  0.5630320000000  0.5442480000000 1.0
C      1  0.5160210000000  0.4301640000000  0.5324630000000 1.0
C      1  0.5160210000000  0.5068040000000  0.4232890000000 1.0
C      1  0.4839790000000  0.5630320000000  0.5442480000000 1.0
C      1  0.4839790000000  0.4301640000000  0.5324630000000 1.0
C      1  0.4839790000000  0.5068040000000  0.4232890000000 1.0
C      1  0.5160210000000  0.5630320000000  0.4557520000000 1.0
C      1  0.5160210000000  0.4301640000000  0.4675370000000 1.0
C      1  0.5160210000000  0.5068040000000  0.5767110000000 1.0
C      1  0.4839790000000  0.5630320000000  0.4557520000000 1.0
C      1  0.4839790000000  0.4301640000000  0.4675370000000 1.0
C      1  0.4839790000000  0.5068040000000  0.5767110000000 1.0
END
