TITL C-3985244-725-569 1.24701144318177e-07 125000 -305.626735205188 0 0 60 (D2h) n - 1
REM
REM in /home/nfs/bkarasulu/CARBON/AIRSS/Generating-Clusters/TERSOFF/Higher-Symm/Only-C60
REM
REM
REM
REM
REM
REM ./C.cell (28575a23ae977d3b5fae324c64b13b57)
REM
REM compiler GCC version 9.2.1 20190827 (Red Hat 9.2.1-1)
REM options -cpp -mtune=generic -march=x86-64 -g -O0 -fpre-include=/usr/include/finclude/math-vector-fortran.h
REM seed 2130826712 -1046370216 692844356 242388499 -1694360605 -1727189947 320756869 -1648433267 -1265047037 -966402637 -1766452206 1813367136 683309496 1544541319 -478386099 -276066170 -677814733 -576276801 -1461174606 -780528789 -1357365489 1849718041 -902598396 -309509370 1727397622 2096065693 1702147943 784610551 -794705877 -58019759 1462201459 1538161538 -619651455
REM
CELL 1.54180   50.00000   50.00000   50.00000   90.00000   90.00000   90.00000
LATT -1
SFAC C  
C      1  0.5619990000000  0.5172200000000  0.4829890000000 1.0
C      1  0.5619990000000  0.4827800000000  0.5170110000000 1.0
C      1  0.4380010000000  0.5172200000000  0.4829890000000 1.0
C      1  0.4380010000000  0.4827800000000  0.5170110000000 1.0
C      1  0.5619990000000  0.5172200000000  0.5170110000000 1.0
C      1  0.5619990000000  0.4827800000000  0.4829890000000 1.0
C      1  0.4380010000000  0.5172200000000  0.5170110000000 1.0
C      1  0.4380010000000  0.4827800000000  0.4829890000000 1.0
C      1  0.5292000000000  0.5160690000000  0.5221750000000 1.0
C      1  0.5292000000000  0.4839310000000  0.4778250000000 1.0
C      1  0.4708000000000  0.5160690000000  0.5221750000000 1.0
C      1  0.4708000000000  0.4839310000000  0.4778250000000 1.0
C      1  0.5292000000000  0.5160690000000  0.4778250000000 1.0
C      1  0.5292000000000  0.4839310000000  0.5221750000000 1.0
C      1  0.4708000000000  0.5160690000000  0.4778250000000 1.0
C      1  0.4708000000000  0.4839310000000  0.5221750000000 1.0
C      1  0.5344570000000  0.4583810000000  0.4408580000000 1.0
C      1  0.5344570000000  0.5416190000000  0.5591420000000 1.0
C      1  0.4655430000000  0.4583810000000  0.4408580000000 1.0
C      1  0.4655430000000  0.5416190000000  0.5591420000000 1.0
C      1  0.5344570000000  0.4583810000000  0.5591420000000 1.0
C      1  0.5344570000000  0.5416190000000  0.4408580000000 1.0
C      1  0.4655430000000  0.4583810000000  0.5591420000000 1.0
C      1  0.4655430000000  0.5416190000000  0.4408580000000 1.0
C      1  0.5161850000000  0.4362790000000  0.5207780000000 1.0
C      1  0.5161850000000  0.5637210000000  0.4792220000000 1.0
C      1  0.4838150000000  0.4362790000000  0.5207780000000 1.0
C      1  0.4838150000000  0.5637210000000  0.4792220000000 1.0
C      1  0.5161850000000  0.4362790000000  0.4792220000000 1.0
C      1  0.5161850000000  0.5637210000000  0.5207780000000 1.0
C      1  0.4838150000000  0.4362790000000  0.4792220000000 1.0
C      1  0.4838150000000  0.5637210000000  0.5207780000000 1.0
C      1  0.5167370000000  0.5176110000000  0.5526910000000 1.0
C      1  0.5167370000000  0.4823890000000  0.4473090000000 1.0
C      1  0.4832630000000  0.5176110000000  0.5526910000000 1.0
C      1  0.4832630000000  0.4823890000000  0.4473090000000 1.0
C      1  0.5167370000000  0.5176110000000  0.4473090000000 1.0
C      1  0.5167370000000  0.4823890000000  0.5526910000000 1.0
C      1  0.4832630000000  0.5176110000000  0.4473090000000 1.0
C      1  0.4832630000000  0.4823890000000  0.5526910000000 1.0
C      1  0.5633530000000  0.4502050000000  0.5174680000000 1.0
C      1  0.5633530000000  0.5497950000000  0.4825320000000 1.0
C      1  0.4366470000000  0.4502050000000  0.5174680000000 1.0
C      1  0.4366470000000  0.5497950000000  0.4825320000000 1.0
C      1  0.5633530000000  0.4502050000000  0.4825320000000 1.0
C      1  0.5633530000000  0.5497950000000  0.5174680000000 1.0
C      1  0.4366470000000  0.4502050000000  0.4825320000000 1.0
C      1  0.4366470000000  0.5497950000000  0.5174680000000 1.0
C      1  0.5412190000000  0.5594700000000  0.5364870000000 1.0
C      1  0.5412190000000  0.4405300000000  0.4635130000000 1.0
C      1  0.4587810000000  0.5594700000000  0.5364870000000 1.0
C      1  0.4587810000000  0.4405300000000  0.4635130000000 1.0
C      1  0.5412190000000  0.5594700000000  0.4635130000000 1.0
C      1  0.5412190000000  0.4405300000000  0.5364870000000 1.0
C      1  0.4587810000000  0.5594700000000  0.4635130000000 1.0
C      1  0.4587810000000  0.4405300000000  0.5364870000000 1.0
C      1  0.4842920000000  0.5349220000000  0.5000000000000 1.0
C      1  0.5157080000000  0.4650780000000  0.5000000000000 1.0
C      1  0.4842920000000  0.4650780000000  0.5000000000000 1.0
C      1  0.5157080000000  0.5349220000000  0.5000000000000 1.0
END
