TITL C-3985250-725-541 -0.000624352418434706 125000 -325.109874121442 0 0 60 (C3) n - 1
REM
REM in /home/nfs/bkarasulu/CARBON/AIRSS/Generating-Clusters/TERSOFF/Higher-Symm/Only-C60
REM
REM
REM
REM
REM
REM ./C.cell (28575a23ae977d3b5fae324c64b13b57)
REM
REM compiler GCC version 9.2.1 20190827 (Red Hat 9.2.1-1)
REM options -cpp -mtune=generic -march=x86-64 -g -O0 -fpre-include=/usr/include/finclude/math-vector-fortran.h
REM seed -50838579 693370463 -1459894897 -1381485653 -1584795878 223446586 -1417845401 1615983004 2045967340 2071814854 855533908 -1108675357 -904406737 -1364156951 -638940204 1445982807 960749462 1199299327 1695173261 -34476437 -1837157287 -1527545407 1577184345 -223992828 -1064885661 -1395219311 109051458 1048266679 1232487565 -328423861 1235845667 1135289208 -1275407320
REM
CELL 1.54180   50.00000   50.00000   50.00000   90.00000   90.00000   90.00000
LATT -1
SFAC C  
C      1  0.4553650000000  0.4786340000000  0.4796010000000 1.0
C      1  0.4553150000000  0.4929500000000  0.5287160000000 1.0
C      1  0.4553420000000  0.5283790000000  0.4917660000000 1.0
C      1  0.4550990000000  0.4446080000000  0.5195290000000 1.0
C      1  0.4552040000000  0.5445610000000  0.5381870000000 1.0
C      1  0.4552060000000  0.5107930000000  0.4422960000000 1.0
C      1  0.5234160000000  0.4474690000000  0.4785020000000 1.0
C      1  0.5234400000000  0.5075790000000  0.5564120000000 1.0
C      1  0.5233990000000  0.5448830000000  0.4653610000000 1.0
C      1  0.4950470000000  0.4331500000000  0.4779760000000 1.0
C      1  0.4951760000000  0.5144420000000  0.5694380000000 1.0
C      1  0.4951910000000  0.5527910000000  0.4529640000000 1.0
C      1  0.5099670000000  0.5483750000000  0.5322890000000 1.0
C      1  0.5098620000000  0.5038100000000  0.4417440000000 1.0
C      1  0.5099110000000  0.4477270000000  0.5256540000000 1.0
C      1  0.5392540000000  0.5028430000000  0.4466340000000 1.0
C      1  0.5392840000000  0.4525400000000  0.5241500000000 1.0
C      1  0.5392780000000  0.5446670000000  0.5290940000000 1.0
C      1  0.5223570000000  0.4828480000000  0.4878340000000 1.0
C      1  0.5223240000000  0.4978920000000  0.5210520000000 1.0
C      1  0.5221510000000  0.5191840000000  0.4913530000000 1.0
C      1  0.4479170000000  0.4713200000000  0.5080500000000 1.0
C      1  0.4479430000000  0.5212670000000  0.5208030000000 1.0
C      1  0.4480510000000  0.5073370000000  0.4712110000000 1.0
C      1  0.4898200000000  0.5233750000000  0.5274850000000 1.0
C      1  0.4900250000000  0.5123960000000  0.4658380000000 1.0
C      1  0.4900300000000  0.4641120000000  0.5061660000000 1.0
C      1  0.4572600000000  0.4613120000000  0.4523040000000 1.0
C      1  0.4572860000000  0.4780290000000  0.5573620000000 1.0
C      1  0.4572860000000  0.5607110000000  0.4903470000000 1.0
C      1  0.5312160000000  0.4785390000000  0.5651100000000 1.0
C      1  0.5312800000000  0.5670260000000  0.4860310000000 1.0
C      1  0.5312310000000  0.4543910000000  0.4489660000000 1.0
C      1  0.4799210000000  0.4885450000000  0.5757080000000 1.0
C      1  0.4799630000000  0.5713220000000  0.4721160000000 1.0
C      1  0.4798970000000  0.4402650000000  0.4523210000000 1.0
C      1  0.5512720000000  0.5524220000000  0.5032570000000 1.0
C      1  0.5512750000000  0.4766030000000  0.4528830000000 1.0
C      1  0.5511960000000  0.4709970000000  0.5438090000000 1.0
C      1  0.4909090000000  0.4791730000000  0.4744040000000 1.0
C      1  0.4907100000000  0.4881850000000  0.5306060000000 1.0
C      1  0.4906990000000  0.5324910000000  0.4946770000000 1.0
C      1  0.5638930000000  0.4971360000000  0.5356060000000 1.0
C      1  0.5639090000000  0.5322480000000  0.4846370000000 1.0
C      1  0.5639840000000  0.4707080000000  0.4796830000000 1.0
C      1  0.5495990000000  0.4497130000000  0.4966810000000 1.0
C      1  0.5495420000000  0.5223300000000  0.5453520000000 1.0
C      1  0.5495110000000  0.5280890000000  0.4579080000000 1.0
C      1  0.4635070000000  0.4486050000000  0.5483480000000 1.0
C      1  0.4635280000000  0.5675900000000  0.5203340000000 1.0
C      1  0.4635710000000  0.4837820000000  0.4313560000000 1.0
C      1  0.5016840000000  0.4717280000000  0.5604480000000 1.0
C      1  0.5017270000000  0.5663640000000  0.4942450000000 1.0
C      1  0.5016740000000  0.4619140000000  0.4454950000000 1.0
C      1  0.4781970000000  0.5370330000000  0.5574110000000 1.0
C      1  0.4782050000000  0.5312260000000  0.4391000000000 1.0
C      1  0.4781050000000  0.4317350000000  0.5035870000000 1.0
C      1  0.4941920000000  0.4432760000000  0.5522100000000 1.0
C      1  0.4941950000000  0.5736120000000  0.5229540000000 1.0
C      1  0.4941990000000  0.4829680000000  0.4246390000000 1.0
END
