TITL C-3985254-1270-1052 -2.54212813043378e-06 125000 -344.280603868227 0 0 60 (Ci) n - 1
REM
REM in /home/nfs/bkarasulu/CARBON/AIRSS/Generating-Clusters/TERSOFF/Higher-Symm/Only-C60
REM
REM
REM
REM
REM
REM ./C.cell (28575a23ae977d3b5fae324c64b13b57)
REM
REM compiler GCC version 9.2.1 20190827 (Red Hat 9.2.1-1)
REM options -cpp -mtune=generic -march=x86-64 -g -O0 -fpre-include=/usr/include/finclude/math-vector-fortran.h
REM seed 2142137928 -245466518 -1127651362 -1137391362 1971557867 1774339228 -462505897 -159353926 -1177908346 2063461037 123195917 1181139537 -1281249079 1037117039 1621138044 245304020 1240715706 752180845 -1659238519 1072034090 179313182 -367124120 2020318611 -1360755222 -1585837061 -1884956224 1064850383 -1643045775 -2062541296 587035972 1469371161 -1545697542 1298476379
REM
CELL 1.54180   50.00000   50.00000   50.00000   90.00000   90.00000   90.00000
LATT -1
SFAC C  
C      1  0.5234770000000  0.4815180000000  0.5206490000000 1.0
C      1  0.4836220000000  0.4945390000000  0.5230780000000 1.0
C      1  0.5213420000000  0.5128190000000  0.5239060000000 1.0
C      1  0.4830380000000  0.5213620000000  0.5092080000000 1.0
C      1  0.5238800000000  0.5277160000000  0.4962090000000 1.0
C      1  0.4765230000000  0.5184820000000  0.4793510000000 1.0
C      1  0.5163780000000  0.5054610000000  0.4769220000000 1.0
C      1  0.4786580000000  0.4871810000000  0.4760940000000 1.0
C      1  0.5169620000000  0.4786380000000  0.4907920000000 1.0
C      1  0.4761200000000  0.4722840000000  0.5037910000000 1.0
C      1  0.5100720000000  0.4562060000000  0.4468120000000 1.0
C      1  0.4888370000000  0.4337330000000  0.4826470000000 1.0
C      1  0.5111190000000  0.4346720000000  0.5257340000000 1.0
C      1  0.4887990000000  0.4620600000000  0.5591190000000 1.0
C      1  0.5105140000000  0.5037050000000  0.5678170000000 1.0
C      1  0.4899280000000  0.5437940000000  0.5531880000000 1.0
C      1  0.5111630000000  0.5662670000000  0.5173530000000 1.0
C      1  0.4888810000000  0.5653280000000  0.4742660000000 1.0
C      1  0.5112010000000  0.5379400000000  0.4408810000000 1.0
C      1  0.4894860000000  0.4962950000000  0.4321830000000 1.0
C      1  0.4550730000000  0.5311750000000  0.4456890000000 1.0
C      1  0.5425460000000  0.4946220000000  0.4459220000000 1.0
C      1  0.4524510000000  0.4608310000000  0.4566100000000 1.0
C      1  0.5431830000000  0.4459860000000  0.4878490000000 1.0
C      1  0.4552420000000  0.4435340000000  0.5259880000000 1.0
C      1  0.5449270000000  0.4688250000000  0.5543110000000 1.0
C      1  0.4574540000000  0.5053780000000  0.5540780000000 1.0
C      1  0.5475490000000  0.5391690000000  0.5433900000000 1.0
C      1  0.4568170000000  0.5540140000000  0.5121510000000 1.0
C      1  0.5447580000000  0.5564660000000  0.4740120000000 1.0
C      1  0.5562940000000  0.5260430000000  0.4894910000000 1.0
C      1  0.4430640000000  0.5144220000000  0.4752420000000 1.0
C      1  0.5574170000000  0.4972980000000  0.4733670000000 1.0
C      1  0.4373410000000  0.4803090000000  0.4777140000000 1.0
C      1  0.5584460000000  0.4729690000000  0.4938270000000 1.0
C      1  0.4437060000000  0.4739570000000  0.5105090000000 1.0
C      1  0.5569360000000  0.4855780000000  0.5247580000000 1.0
C      1  0.4425830000000  0.5027020000000  0.5266330000000 1.0
C      1  0.5626590000000  0.5196910000000  0.5222860000000 1.0
C      1  0.4415540000000  0.5270310000000  0.5061730000000 1.0
C      1  0.5348310000000  0.5540940000000  0.4462110000000 1.0
C      1  0.4666780000000  0.5130100000000  0.4251580000000 1.0
C      1  0.5342380000000  0.4682270000000  0.4355690000000 1.0
C      1  0.4645000000000  0.4347110000000  0.4660870000000 1.0
C      1  0.5351970000000  0.4282360000000  0.5102930000000 1.0
C      1  0.4651690000000  0.4459060000000  0.5537890000000 1.0
C      1  0.5333220000000  0.4869900000000  0.5748420000000 1.0
C      1  0.4657620000000  0.5317730000000  0.5644310000000 1.0
C      1  0.5355000000000  0.5652890000000  0.5339130000000 1.0
C      1  0.4648030000000  0.5717640000000  0.4897070000000 1.0
C      1  0.4851930000000  0.5429020000000  0.4561550000000 1.0
C      1  0.5142560000000  0.5093230000000  0.4449300000000 1.0
C      1  0.4832510000000  0.4722750000000  0.4475060000000 1.0
C      1  0.5136770000000  0.4499310000000  0.4748320000000 1.0
C      1  0.4849710000000  0.4395470000000  0.5107780000000 1.0
C      1  0.5148070000000  0.4570980000000  0.5438450000000 1.0
C      1  0.4857440000000  0.4906770000000  0.5550700000000 1.0
C      1  0.5167490000000  0.5277250000000  0.5524940000000 1.0
C      1  0.4863230000000  0.5500690000000  0.5251680000000 1.0
C      1  0.5150290000000  0.5604530000000  0.4892220000000 1.0
END
