TITL C-3985253-1688-580 -0.000240584107223426 125000 -311.815791933878 0 0 60 (C5) n - 1
REM
REM in /home/nfs/bkarasulu/CARBON/AIRSS/Generating-Clusters/TERSOFF/Higher-Symm/Only-C60
REM
REM
REM
REM
REM
REM ./C.cell (28575a23ae977d3b5fae324c64b13b57)
REM
REM compiler GCC version 9.2.1 20190827 (Red Hat 9.2.1-1)
REM options -cpp -mtune=generic -march=x86-64 -g -O0 -fpre-include=/usr/include/finclude/math-vector-fortran.h
REM seed -304026781 -1981996562 -546067299 2053149517 -1821845482 -598800957 2080662086 -1338839773 -1630141303 1939087682 -225964227 -860002149 1133980606 40759285 -803723707 -1949584899 398720976 1609466473 2062496810 -1261708210 -1940682102 -279406849 341642484 -1989677419 -20392769 1945580578 1768281124 2024704810 -1152312366 537865709 716925413 -1081946805 -1156480044
REM
CELL 1.54180   50.00000   50.00000   50.00000   90.00000   90.00000   90.00000
LATT -1
SFAC C  
C      1  0.5079270000000  0.5259110000000  0.4476860000000 1.0
C      1  0.4778180000000  0.5155560000000  0.4477140000000 1.0
C      1  0.4783590000000  0.4836960000000  0.4477020000000 1.0
C      1  0.5088140000000  0.4743780000000  0.4477020000000 1.0
C      1  0.5270910000000  0.5004720000000  0.4477040000000 1.0
C      1  0.4516090000000  0.4969280000000  0.5607730000000 1.0
C      1  0.4879690000000  0.4530300000000  0.5607670000000 1.0
C      1  0.5409550000000  0.4740410000000  0.5607670000000 1.0
C      1  0.5373440000000  0.5309290000000  0.5607680000000 1.0
C      1  0.4821260000000  0.5450730000000  0.5607680000000 1.0
C      1  0.4853920000000  0.5445600000000  0.5071950000000 1.0
C      1  0.4531060000000  0.4998790000000  0.5071940000000 1.0
C      1  0.4856240000000  0.4553630000000  0.5071950000000 1.0
C      1  0.5380100000000  0.4725360000000  0.5071930000000 1.0
C      1  0.5378650000000  0.5276640000000  0.5071940000000 1.0
C      1  0.5619870000000  0.5172020000000  0.4872340000000 1.0
C      1  0.5027870000000  0.5642690000000  0.4872190000000 1.0
C      1  0.4397380000000  0.5225110000000  0.4872190000000 1.0
C      1  0.4599690000000  0.4496430000000  0.4872180000000 1.0
C      1  0.5355220000000  0.4463670000000  0.4872190000000 1.0
C      1  0.4919140000000  0.5233790000000  0.4864110000000 1.0
C      1  0.4752640000000  0.4995460000000  0.4864410000000 1.0
C      1  0.4927860000000  0.4763390000000  0.4864190000000 1.0
C      1  0.5202740000000  0.4858270000000  0.4864340000000 1.0
C      1  0.5197470000000  0.5148980000000  0.4864320000000 1.0
C      1  0.5120780000000  0.5476940000000  0.5483840000000 1.0
C      1  0.4583750000000  0.5262240000000  0.5483820000000 1.0
C      1  0.4621980000000  0.4685160000000  0.5483810000000 1.0
C      1  0.5182630000000  0.4543160000000  0.5483820000000 1.0
C      1  0.5490960000000  0.5032510000000  0.5483760000000 1.0
C      1  0.5693890000000  0.5009780000000  0.5185230000000 1.0
C      1  0.5205200000000  0.5662980000000  0.5185320000000 1.0
C      1  0.4432880000000  0.5400030000000  0.5185330000000 1.0
C      1  0.4444300000000  0.4584260000000  0.5185320000000 1.0
C      1  0.5223660000000  0.4343020000000  0.5185310000000 1.0
C      1  0.5281790000000  0.5013480000000  0.5263820000000 1.0
C      1  0.5074270000000  0.5272200000000  0.5263820000000 1.0
C      1  0.4764090000000  0.5154750000000  0.5263820000000 1.0
C      1  0.4779930000000  0.4823450000000  0.5263820000000 1.0
C      1  0.5099910000000  0.4736140000000  0.5263810000000 1.0
C      1  0.5706570000000  0.4703740000000  0.5113410000000 1.0
C      1  0.5500080000000  0.5580450000000  0.5113410000000 1.0
C      1  0.4602500000000  0.5654980000000  0.5113410000000 1.0
C      1  0.4254250000000  0.4824360000000  0.5113410000000 1.0
C      1  0.4936590000000  0.4236460000000  0.5113400000000 1.0
C      1  0.4286450000000  0.4798970000000  0.4609750000000 1.0
C      1  0.4970700000000  0.4259240000000  0.4609750000000 1.0
C      1  0.5695450000000  0.4743220000000  0.4609770000000 1.0
C      1  0.5459120000000  0.5582060000000  0.4609760000000 1.0
C      1  0.4588300000000  0.5616510000000  0.4609750000000 1.0
C      1  0.4558110000000  0.5325760000000  0.4622360000000 1.0
C      1  0.4553630000000  0.4680410000000  0.4622350000000 1.0
C      1  0.5166020000000  0.4476720000000  0.4622350000000 1.0
C      1  0.5548960000000  0.4996160000000  0.4622350000000 1.0
C      1  0.5173270000000  0.5520920000000  0.4622360000000 1.0
C      1  0.5635810000000  0.5500680000000  0.4828410000000 1.0
C      1  0.4720300000000  0.5759420000000  0.4828410000000 1.0
C      1  0.4191330000000  0.4968670000000  0.4828410000000 1.0
C      1  0.4779910000000  0.4221220000000  0.4828400000000 1.0
C      1  0.5672650000000  0.4550010000000  0.4828420000000 1.0
END
