TITL C-3985244-725-756 6.05399573758899e-06 125000 -319.38288173499 0 0 60 (C3) n - 1
REM
REM in /home/nfs/bkarasulu/CARBON/AIRSS/Generating-Clusters/TERSOFF/Higher-Symm/Only-C60
REM
REM
REM
REM
REM
REM ./C.cell (28575a23ae977d3b5fae324c64b13b57)
REM
REM compiler GCC version 9.2.1 20190827 (Red Hat 9.2.1-1)
REM options -cpp -mtune=generic -march=x86-64 -g -O0 -fpre-include=/usr/include/finclude/math-vector-fortran.h
REM seed 1512951749 993112599 -826891196 -961753798 350595111 -1869392614 -2072442135 302827881 -319682256 1162028073 -232008714 1497269401 891984918 -1389390329 1624589829 -1064036573 -1256503138 1836865941 -1507153835 800210232 -1352608433 -1771332702 -1512894269 -517007841 -2124529416 -1430779719 -1877718711 -89299247 -1575158454 1927334332 -1918108049 -2012810650 496939969
REM
CELL 1.54180   50.00000   50.00000   50.00000   90.00000   90.00000   90.00000
LATT -1
SFAC C  
C      1  0.4383330000000  0.5373360000000  0.5226590000000 1.0
C      1  0.4383330000000  0.4617090000000  0.5210040000000 1.0
C      1  0.4383330000000  0.5009560000000  0.4563370000000 1.0
C      1  0.4694630000000  0.5342800000000  0.5627430000000 1.0
C      1  0.4694630000000  0.4285230000000  0.4983160000000 1.0
C      1  0.4694630000000  0.5371970000000  0.4389410000000 1.0
C      1  0.4807030000000  0.4780680000000  0.4384090000000 1.0
C      1  0.4807030000000  0.5643050000000  0.5118020000000 1.0
C      1  0.4807030000000  0.4576260000000  0.5497890000000 1.0
C      1  0.4273090000000  0.4640360000000  0.4935090000000 1.0
C      1  0.4273090000000  0.5236040000000  0.4720990000000 1.0
C      1  0.4273090000000  0.5123610000000  0.5343920000000 1.0
C      1  0.5421340000000  0.4943160000000  0.4587570000000 1.0
C      1  0.5421340000000  0.5385590000000  0.5156990000000 1.0
C      1  0.5421340000000  0.4671240000000  0.5255440000000 1.0
C      1  0.4655090000000  0.5459540000000  0.5344950000000 1.0
C      1  0.4655090000000  0.4471500000000  0.5225500000000 1.0
C      1  0.4655090000000  0.5068960000000  0.4429550000000 1.0
C      1  0.5229580000000  0.4801860000000  0.5041000000000 1.0
C      1  0.5229590000000  0.5063560000000  0.4807910000000 1.0
C      1  0.5229580000000  0.5134570000000  0.5151090000000 1.0
C      1  0.5267480000000  0.4333900000000  0.5004400000000 1.0
C      1  0.5267480000000  0.5329240000000  0.4420940000000 1.0
C      1  0.5267480000000  0.5336860000000  0.5574660000000 1.0
C      1  0.4824930000000  0.5526220000000  0.4607940000000 1.0
C      1  0.4824930000000  0.5076420000000  0.5651750000000 1.0
C      1  0.4824930000000  0.4397360000000  0.4740310000000 1.0
C      1  0.5512170000000  0.5417450000000  0.4618050000000 1.0
C      1  0.5512170000000  0.5122050000000  0.5552490000000 1.0
C      1  0.5512170000000  0.4460500000000  0.4829450000000 1.0
C      1  0.4435960000000  0.5391350000000  0.4918390000000 1.0
C      1  0.4435960000000  0.4875000000000  0.5379720000000 1.0
C      1  0.4435960000000  0.4733650000000  0.4701890000000 1.0
C      1  0.4707290000000  0.4924180000000  0.5230240000000 1.0
C      1  0.4707290000000  0.4838510000000  0.4819220000000 1.0
C      1  0.4707290000000  0.5237310000000  0.4950540000000 1.0
C      1  0.5105870000000  0.5660250000000  0.5122220000000 1.0
C      1  0.5105860000000  0.4564030000000  0.5510680000000 1.0
C      1  0.5105860000000  0.4775720000000  0.4367100000000 1.0
C      1  0.5649050000000  0.4619170000000  0.5056690000000 1.0
C      1  0.5649050000000  0.5141310000000  0.4641850000000 1.0
C      1  0.5649050000000  0.5239510000000  0.5301460000000 1.0
C      1  0.5083010000000  0.5099890000000  0.5460290000000 1.0
C      1  0.5083010000000  0.4551430000000  0.4856360000000 1.0
C      1  0.5083010000000  0.5348680000000  0.4683350000000 1.0
C      1  0.4825450000000  0.5103330000000  0.4709440000000 1.0
C      1  0.4825450000000  0.5199960000000  0.5234770000000 1.0
C      1  0.4825450000000  0.4696700000000  0.5055790000000 1.0
C      1  0.5311520000000  0.5522470000000  0.4874170000000 1.0
C      1  0.5311520000000  0.4847740000000  0.5515390000000 1.0
C      1  0.5311520000000  0.4629790000000  0.4610440000000 1.0
C      1  0.5283770000000  0.5578080000000  0.5380080000000 1.0
C      1  0.5283770000000  0.4381800000000  0.5310600000000 1.0
C      1  0.5283770000000  0.5040120000000  0.4309320000000 1.0
C      1  0.5872610000000  0.5121100000000  0.5160960000000 1.0
C      1  0.5872610000000  0.4800050000000  0.5024400000000 1.0
C      1  0.5872610000000  0.5078850000000  0.4814640000000 1.0
C      1  0.4656810000000  0.5637980000000  0.4838840000000 1.0
C      1  0.4656800000000  0.4820580000000  0.5633090000000 1.0
C      1  0.4656800000000  0.4541440000000  0.4528070000000 1.0
END
