TITL C-3985254-1270-1178 0.00092142122729913 125000 -311.490213586007 0 0 60 (C2) n - 1
REM
REM in /home/nfs/bkarasulu/CARBON/AIRSS/Generating-Clusters/TERSOFF/Higher-Symm/Only-C60
REM
REM
REM
REM
REM
REM ./C.cell (28575a23ae977d3b5fae324c64b13b57)
REM
REM compiler GCC version 9.2.1 20190827 (Red Hat 9.2.1-1)
REM options -cpp -mtune=generic -march=x86-64 -g -O0 -fpre-include=/usr/include/finclude/math-vector-fortran.h
REM seed -997751133 -1800497970 893192019 1996281730 -2040674395 1876019192 158710126 936054987 1716311137 1096749462 1726443715 -2074950397 1681367701 -1937104998 1124218696 -86305916 -134072761 499057228 1471772539 -1422889669 -930913588 -415973647 743670394 -789519740 590046917 202910543 -492530176 555389213 -1943053028 166338848 853892090 -1268484363 -828877059
REM
CELL 1.54180   50.00000   50.00000   50.00000   90.00000   90.00000   90.00000
LATT -1
SFAC C  
C      1  0.4846670000000  0.5062750000000  0.4728960000000 1.0
C      1  0.5153290000000  0.4937220000000  0.4728990000000 1.0
C      1  0.5332230000000  0.5315510000000  0.5142000000000 1.0
C      1  0.4667810000000  0.4684440000000  0.5142000000000 1.0
C      1  0.4753130000000  0.4817230000000  0.4392510000000 1.0
C      1  0.5246920000000  0.5182800000000  0.4392520000000 1.0
C      1  0.4979890000000  0.5744190000000  0.4934650000000 1.0
C      1  0.5020130000000  0.4255690000000  0.4934830000000 1.0
C      1  0.5209570000000  0.5647160000000  0.4797740000000 1.0
C      1  0.4790350000000  0.4352830000000  0.4797670000000 1.0
C      1  0.4593450000000  0.4809960000000  0.4659730000000 1.0
C      1  0.5406570000000  0.5189960000000  0.4659700000000 1.0
C      1  0.4845420000000  0.4675470000000  0.5541900000000 1.0
C      1  0.5154700000000  0.5324460000000  0.5541980000000 1.0
C      1  0.4733610000000  0.5482470000000  0.4569630000000 1.0
C      1  0.5266400000000  0.4517540000000  0.4569680000000 1.0
C      1  0.4460190000000  0.5320310000000  0.4529980000000 1.0
C      1  0.5539790000000  0.4679660000000  0.4529980000000 1.0
C      1  0.4277360000000  0.5093150000000  0.4961980000000 1.0
C      1  0.5722640000000  0.4906840000000  0.4961980000000 1.0
C      1  0.5266610000000  0.4817940000000  0.5225150000000 1.0
C      1  0.4733690000000  0.5182090000000  0.5225310000000 1.0
C      1  0.5143090000000  0.5083720000000  0.5285040000000 1.0
C      1  0.4856870000000  0.4916360000000  0.5284990000000 1.0
C      1  0.4723680000000  0.4622030000000  0.4863080000000 1.0
C      1  0.5276340000000  0.5378050000000  0.4863140000000 1.0
C      1  0.4560910000000  0.4791570000000  0.5627600000000 1.0
C      1  0.5439100000000  0.5208400000000  0.5627540000000 1.0
C      1  0.5691270000000  0.5322580000000  0.4844910000000 1.0
C      1  0.4308700000000  0.4677520000000  0.4844870000000 1.0
C      1  0.5650250000000  0.4577630000000  0.4865980000000 1.0
C      1  0.4349760000000  0.5422390000000  0.4866000000000 1.0
C      1  0.5539220000000  0.4799100000000  0.5341990000000 1.0
C      1  0.4460760000000  0.5200960000000  0.5342020000000 1.0
C      1  0.4848890000000  0.5382150000000  0.5415330000000 1.0
C      1  0.5151250000000  0.4617660000000  0.5415470000000 1.0
C      1  0.5625220000000  0.5069670000000  0.5439480000000 1.0
C      1  0.4374780000000  0.4930360000000  0.5439460000000 1.0
C      1  0.5006330000000  0.4268980000000  0.5231790000000 1.0
C      1  0.4993630000000  0.5730920000000  0.5232020000000 1.0
C      1  0.4440260000000  0.5471270000000  0.5460250000000 1.0
C      1  0.5559180000000  0.4528790000000  0.5460260000000 1.0
C      1  0.4397500000000  0.5051150000000  0.4677170000000 1.0
C      1  0.5602460000000  0.4948830000000  0.4677170000000 1.0
C      1  0.4684740000000  0.5667080000000  0.5357820000000 1.0
C      1  0.5315310000000  0.4332870000000  0.5357640000000 1.0
C      1  0.5316090000000  0.4881200000000  0.4325600000000 1.0
C      1  0.4683920000000  0.5118800000000  0.4325610000000 1.0
C      1  0.4943550000000  0.5254650000000  0.4451990000000 1.0
C      1  0.5056410000000  0.4745370000000  0.4452020000000 1.0
C      1  0.5483800000000  0.4371960000000  0.5040250000000 1.0
C      1  0.4516130000000  0.5627990000000  0.5040060000000 1.0
C      1  0.4779360000000  0.5265080000000  0.4943760000000 1.0
C      1  0.5220590000000  0.4734940000000  0.4943820000000 1.0
C      1  0.5241390000000  0.4432180000000  0.4861440000000 1.0
C      1  0.4758650000000  0.5567920000000  0.4861570000000 1.0
C      1  0.4350410000000  0.4797350000000  0.5150670000000 1.0
C      1  0.5649590000000  0.5202660000000  0.5150690000000 1.0
C      1  0.5221160000000  0.5558880000000  0.5331220000000 1.0
C      1  0.4779080000000  0.4441280000000  0.5331410000000 1.0
END
