TITL C-3985245-9316-292 0.000549625752971593 125000 -315.572074181337 0 0 60 (C3) n - 1
REM
REM in /home/nfs/bkarasulu/CARBON/AIRSS/Generating-Clusters/TERSOFF/Higher-Symm/Only-C60
REM
REM
REM
REM
REM
REM ./C.cell (28575a23ae977d3b5fae324c64b13b57)
REM
REM compiler GCC version 9.2.1 20190827 (Red Hat 9.2.1-1)
REM options -cpp -mtune=generic -march=x86-64 -g -O0 -fpre-include=/usr/include/finclude/math-vector-fortran.h
REM seed -891278268 1069067616 -1106643015 1444449267 -281625610 799996107 307422694 940558629 -642026591 1128407554 -339251268 1821248835 1798577831 1979856602 -1510293376 -485061026 -292807355 -1802343509 743288532 -691427518 -700666512 907382892 1462997351 -1170160752 -1012902815 772331567 -73252677 635592021 228394869 -235264151 -1395883180 -605889688 2008351151
REM
CELL 1.54180   50.00000   50.00000   50.00000   90.00000   90.00000   90.00000
LATT -1
SFAC C  
C      1  0.4484120000000  0.4913850000000  0.4454270000000 1.0
C      1  0.5730880000000  0.4913740000000  0.4826560000000 1.0
C      1  0.4784420000000  0.4913600000000  0.5717400000000 1.0
C      1  0.4484120000000  0.4913850000000  0.5545730000000 1.0
C      1  0.5730880000000  0.4913740000000  0.5173440000000 1.0
C      1  0.4784420000000  0.4913600000000  0.4282600000000 1.0
C      1  0.5076080000000  0.4708980000000  0.5778420000000 1.0
C      1  0.4285530000000  0.4709780000000  0.4677090000000 1.0
C      1  0.5636900000000  0.4709700000000  0.4543240000000 1.0
C      1  0.5076080000000  0.4708980000000  0.4221580000000 1.0
C      1  0.4285530000000  0.4709780000000  0.5322910000000 1.0
C      1  0.5636900000000  0.4709700000000  0.5456760000000 1.0
C      1  0.4192930000000  0.4969520000000  0.5152870000000 1.0
C      1  0.5270480000000  0.4968800000000  0.4224770000000 1.0
C      1  0.5535750000000  0.4969160000000  0.5622640000000 1.0
C      1  0.4192930000000  0.4969520000000  0.4847130000000 1.0
C      1  0.5270480000000  0.4968800000000  0.5775230000000 1.0
C      1  0.5535750000000  0.4969160000000  0.4377360000000 1.0
C      1  0.5414900000000  0.4470750000000  0.5398860000000 1.0
C      1  0.4447020000000  0.4471110000000  0.5159330000000 1.0
C      1  0.5137620000000  0.4470530000000  0.4442000000000 1.0
C      1  0.5414900000000  0.4470750000000  0.4601140000000 1.0
C      1  0.4447020000000  0.4471110000000  0.4840670000000 1.0
C      1  0.5137620000000  0.4470530000000  0.5558000000000 1.0
C      1  0.5070990000000  0.4911310000000  0.5410430000000 1.0
C      1  0.4608450000000  0.4910730000000  0.4855320000000 1.0
C      1  0.5321450000000  0.4911400000000  0.4733580000000 1.0
C      1  0.5070990000000  0.4911310000000  0.4589570000000 1.0
C      1  0.4608450000000  0.4910730000000  0.5144680000000 1.0
C      1  0.5321450000000  0.4911400000000  0.5266420000000 1.0
C      1  0.4692960000000  0.4649400000000  0.4754600000000 1.0
C      1  0.5364580000000  0.4649540000000  0.4856120000000 1.0
C      1  0.4944510000000  0.4649320000000  0.5384930000000 1.0
C      1  0.4692960000000  0.4649400000000  0.5245400000000 1.0
C      1  0.5364580000000  0.4649540000000  0.5143880000000 1.0
C      1  0.4944510000000  0.4649320000000  0.4615070000000 1.0
C      1  0.4353650000000  0.5165130000000  0.4640100000000 1.0
C      1  0.5635400000000  0.5165330000000  0.4620010000000 1.0
C      1  0.5010630000000  0.5164670000000  0.5739240000000 1.0
C      1  0.4353650000000  0.5165130000000  0.5359900000000 1.0
C      1  0.5635400000000  0.5165330000000  0.5379990000000 1.0
C      1  0.5010630000000  0.5164670000000  0.4260760000000 1.0
C      1  0.5003440000000  0.5405890000000  0.5541310000000 1.0
C      1  0.4529500000000  0.5405750000000  0.4732360000000 1.0
C      1  0.5467340000000  0.5406090000000  0.4726320000000 1.0
C      1  0.5003440000000  0.5405890000000  0.4458690000000 1.0
C      1  0.4529500000000  0.5405750000000  0.5267640000000 1.0
C      1  0.5467340000000  0.5406090000000  0.5273680000000 1.0
C      1  0.4986950000000  0.5192930000000  0.5310720000000 1.0
C      1  0.4737210000000  0.5192570000000  0.4833310000000 1.0
C      1  0.5276120000000  0.5193090000000  0.4855880000000 1.0
C      1  0.4986950000000  0.5192930000000  0.4689280000000 1.0
C      1  0.4737210000000  0.5192570000000  0.5166690000000 1.0
C      1  0.5276120000000  0.5193090000000  0.5144120000000 1.0
C      1  0.5000190000000  0.5612510000000  0.4701540000000 1.0
C      1  0.5258480000000  0.5612650000000  0.5149430000000 1.0
C      1  0.4741520000000  0.5612180000000  0.5148990000000 1.0
C      1  0.5000190000000  0.5612510000000  0.5298460000000 1.0
C      1  0.5258480000000  0.5612650000000  0.4850570000000 1.0
C      1  0.4741520000000  0.5612180000000  0.4851010000000 1.0
END
