TITL C-3985250-725-461 0.000865542083678606 125000 -331.752039817505 0 0 60 (C1) n - 1
REM
REM in /home/nfs/bkarasulu/CARBON/AIRSS/Generating-Clusters/TERSOFF/Higher-Symm/Only-C60
REM
REM
REM
REM
REM
REM ./C.cell (28575a23ae977d3b5fae324c64b13b57)
REM
REM compiler GCC version 9.2.1 20190827 (Red Hat 9.2.1-1)
REM options -cpp -mtune=generic -march=x86-64 -g -O0 -fpre-include=/usr/include/finclude/math-vector-fortran.h
REM seed -550660369 1884050895 -1463018651 2111219762 1717733663 -1334818541 -394129326 -1707901222 811736668 -43364363 1582277544 -1933285565 -8845051 -1536125670 -175993916 -493215575 -657179480 -1498351921 933725689 534538068 -1129509467 -893330182 1935372836 -76686260 1286275966 -1307518536 -99973200 -307762594 -809846106 709732615 1459621282 -223196869 -2121071393
REM
CELL 1.54180   50.00000   50.00000   50.00000   90.00000   90.00000   90.00000
LATT -1
SFAC C  
C      1  0.4520150000000  0.5229880000000  0.4391440000000 1.0
C      1  0.5560040000000  0.4765190000000  0.4621530000000 1.0
C      1  0.4755550000000  0.5282770000000  0.4809780000000 1.0
C      1  0.4815670000000  0.4839300000000  0.4227750000000 1.0
C      1  0.5707010000000  0.4987980000000  0.4831460000000 1.0
C      1  0.5384400000000  0.5566070000000  0.4669900000000 1.0
C      1  0.4513110000000  0.5342740000000  0.5240900000000 1.0
C      1  0.5006340000000  0.5268390000000  0.4664530000000 1.0
C      1  0.5618740000000  0.5318630000000  0.4755940000000 1.0
C      1  0.5097230000000  0.4772080000000  0.4106900000000 1.0
C      1  0.4666550000000  0.5470090000000  0.5479840000000 1.0
C      1  0.4592600000000  0.4730640000000  0.4735550000000 1.0
C      1  0.5394440000000  0.5166610000000  0.5712730000000 1.0
C      1  0.5326480000000  0.5178470000000  0.4293370000000 1.0
C      1  0.4722750000000  0.4652250000000  0.4472640000000 1.0
C      1  0.5582870000000  0.4777570000000  0.5328100000000 1.0
C      1  0.4459600000000  0.4873120000000  0.5544450000000 1.0
C      1  0.4788610000000  0.4257720000000  0.5222280000000 1.0
C      1  0.5504650000000  0.4880020000000  0.5622390000000 1.0
C      1  0.5076930000000  0.5562940000000  0.4769860000000 1.0
C      1  0.5770600000000  0.4920070000000  0.5130110000000 1.0
C      1  0.5519950000000  0.5229140000000  0.5264120000000 1.0
C      1  0.5040430000000  0.5341000000000  0.5223510000000 1.0
C      1  0.4981790000000  0.4901510000000  0.5422090000000 1.0
C      1  0.5403460000000  0.5153530000000  0.4594300000000 1.0
C      1  0.4454060000000  0.4486050000000  0.5111440000000 1.0
C      1  0.5006180000000  0.4608140000000  0.5435920000000 1.0
C      1  0.4966190000000  0.5426610000000  0.5505960000000 1.0
C      1  0.5157450000000  0.4821810000000  0.4518920000000 1.0
C      1  0.4413960000000  0.5483540000000  0.4941450000000 1.0
C      1  0.4443140000000  0.5023720000000  0.5270900000000 1.0
C      1  0.4750510000000  0.4906370000000  0.5188860000000 1.0
C      1  0.5367050000000  0.4629790000000  0.4828020000000 1.0
C      1  0.4945870000000  0.4415200000000  0.4998300000000 1.0
C      1  0.4465260000000  0.5219830000000  0.4692370000000 1.0
C      1  0.4497680000000  0.4575870000000  0.5526870000000 1.0
C      1  0.5146680000000  0.4568480000000  0.5179840000000 1.0
C      1  0.5439070000000  0.4542990000000  0.5232460000000 1.0
C      1  0.4780560000000  0.5216220000000  0.5098720000000 1.0
C      1  0.4756090000000  0.4442110000000  0.5460440000000 1.0
C      1  0.5020980000000  0.5264720000000  0.4363760000000 1.0
C      1  0.5007710000000  0.4577780000000  0.4528060000000 1.0
C      1  0.4387420000000  0.4947650000000  0.4779720000000 1.0
C      1  0.4703010000000  0.4625740000000  0.5001290000000 1.0
C      1  0.5386800000000  0.4844810000000  0.4310140000000 1.0
C      1  0.5127860000000  0.4432940000000  0.4754850000000 1.0
C      1  0.4719500000000  0.5618150000000  0.4803080000000 1.0
C      1  0.5600310000000  0.5416840000000  0.5052150000000 1.0
C      1  0.5219300000000  0.4865730000000  0.5019140000000 1.0
C      1  0.5569340000000  0.5314670000000  0.5534760000000 1.0
C      1  0.4632040000000  0.5005770000000  0.5741560000000 1.0
C      1  0.5091940000000  0.5245350000000  0.5725930000000 1.0
C      1  0.5425260000000  0.5643790000000  0.5097280000000 1.0
C      1  0.5235210000000  0.5084700000000  0.5241020000000 1.0
C      1  0.4257110000000  0.4916000000000  0.5053720000000 1.0
C      1  0.4773800000000  0.5131180000000  0.4266040000000 1.0
C      1  0.5173600000000  0.5011750000000  0.4746580000000 1.0
C      1  0.4205560000000  0.4633130000000  0.5113700000000 1.0
C      1  0.4915240000000  0.5015490000000  0.5681270000000 1.0
C      1  0.5148320000000  0.5569310000000  0.5059990000000 1.0
END
