TITL C-3985254-1270-948 -0.0001483172461205 125000 -332.878447502807 0 0 60 (Cs) n - 1
REM
REM in /home/nfs/bkarasulu/CARBON/AIRSS/Generating-Clusters/TERSOFF/Higher-Symm/Only-C60
REM
REM
REM
REM
REM
REM ./C.cell (28575a23ae977d3b5fae324c64b13b57)
REM
REM compiler GCC version 9.2.1 20190827 (Red Hat 9.2.1-1)
REM options -cpp -mtune=generic -march=x86-64 -g -O0 -fpre-include=/usr/include/finclude/math-vector-fortran.h
REM seed -522900047 -1146766334 -1808735590 -1498589498 -1520274274 -1792423960 641079883 678859703 -2137384592 -720771876 -1143563437 -973140019 278530600 1696173229 1041159762 -1021260096 -377912084 834774220 -2105979227 56321089 1755506355 -610754081 -1715604411 -638834781 1143203453 450208467 -1105544395 1291820162 -578841139 592242594 1777843617 1005925243 -394862543
REM
CELL 1.54180   50.00000   50.00000   50.00000   90.00000   90.00000   90.00000
LATT -1
SFAC C  
C      1  0.4259920000000  0.4786910000000  0.5783540000000 1.0
C      1  0.5521310000000  0.4774400000000  0.5991750000000 1.0
C      1  0.6089170000000  0.4785250000000  0.4819210000000 1.0
C      1  0.5151180000000  0.4777160000000  0.3904610000000 1.0
C      1  0.4021850000000  0.4794550000000  0.4538040000000 1.0
C      1  0.5740090000000  0.4786920000000  0.5783540000000 1.0
C      1  0.4478700000000  0.4774400000000  0.5991740000000 1.0
C      1  0.3910820000000  0.4785250000000  0.4819210000000 1.0
C      1  0.4848830000000  0.4777180000000  0.3904620000000 1.0
C      1  0.5978160000000  0.4794540000000  0.4538040000000 1.0
C      1  0.4292020000000  0.4551580000000  0.5080060000000 1.0
C      1  0.4856720000000  0.4545190000000  0.5722490000000 1.0
C      1  0.5609890000000  0.4552230000000  0.5349360000000 1.0
C      1  0.5526750000000  0.4555640000000  0.4514250000000 1.0
C      1  0.4702160000000  0.4552180000000  0.4342720000000 1.0
C      1  0.5707980000000  0.4551590000000  0.5080060000000 1.0
C      1  0.5143330000000  0.4545040000000  0.5722470000000 1.0
C      1  0.4390100000000  0.4552240000000  0.5349340000000 1.0
C      1  0.4473260000000  0.4555650000000  0.4514250000000 1.0
C      1  0.5297840000000  0.4552170000000  0.4342720000000 1.0
C      1  0.5149230000000  0.5042470000000  0.5749640000000 1.0
C      1  0.5727330000000  0.5048780000000  0.5081510000000 1.0
C      1  0.5301260000000  0.5049960000000  0.4318850000000 1.0
C      1  0.4469800000000  0.5053490000000  0.4508590000000 1.0
C      1  0.4386530000000  0.5047960000000  0.5355070000000 1.0
C      1  0.4850800000000  0.5042460000000  0.5749640000000 1.0
C      1  0.4272670000000  0.5048790000000  0.5081520000000 1.0
C      1  0.4698770000000  0.5049980000000  0.4318880000000 1.0
C      1  0.5530210000000  0.5053480000000  0.4508580000000 1.0
C      1  0.5613450000000  0.5047980000000  0.5355100000000 1.0
C      1  0.4819680000000  0.4792060000000  0.4221740000000 1.0
C      1  0.4212780000000  0.4793880000000  0.4933500000000 1.0
C      1  0.4691350000000  0.4786770000000  0.5747510000000 1.0
C      1  0.5582340000000  0.4794270000000  0.5512010000000 1.0
C      1  0.5667980000000  0.4799880000000  0.4593190000000 1.0
C      1  0.5180330000000  0.4792040000000  0.4221730000000 1.0
C      1  0.5787220000000  0.4793880000000  0.4933500000000 1.0
C      1  0.5308550000000  0.4786820000000  0.5747540000000 1.0
C      1  0.4417700000000  0.4794280000000  0.5512080000000 1.0
C      1  0.4332030000000  0.4799890000000  0.4593190000000 1.0
C      1  0.5363280000000  0.5517780000000  0.5261370000000 1.0
C      1  0.5377610000000  0.5538030000000  0.4688860000000 1.0
C      1  0.4836320000000  0.5539150000000  0.4478130000000 1.0
C      1  0.4495510000000  0.5522590000000  0.4995320000000 1.0
C      1  0.4854160000000  0.5521550000000  0.5518020000000 1.0
C      1  0.4636720000000  0.5517770000000  0.5261370000000 1.0
C      1  0.4622350000000  0.5538040000000  0.4688870000000 1.0
C      1  0.5163650000000  0.5539090000000  0.4478100000000 1.0
C      1  0.5504460000000  0.5522600000000  0.4995350000000 1.0
C      1  0.5145840000000  0.5521550000000  0.5518020000000 1.0
C      1  0.5716410000000  0.5296040000000  0.4930810000000 1.0
C      1  0.5154480000000  0.5296720000000  0.4273250000000 1.0
C      1  0.4407500000000  0.5301400000000  0.4649420000000 1.0
C      1  0.4508240000000  0.5292330000000  0.5454630000000 1.0
C      1  0.5287640000000  0.5289840000000  0.5682490000000 1.0
C      1  0.4283570000000  0.5296040000000  0.4930820000000 1.0
C      1  0.4845570000000  0.5296740000000  0.4273310000000 1.0
C      1  0.5592500000000  0.5301370000000  0.4649380000000 1.0
C      1  0.5491770000000  0.5292340000000  0.5454620000000 1.0
C      1  0.4712340000000  0.5289840000000  0.5682490000000 1.0
END
