TITL C-3985251-913-461 -5.96458232678014e-05 125000 -331.050648914137 0 0 60 (C1) n - 1
REM
REM in /home/nfs/bkarasulu/CARBON/AIRSS/Generating-Clusters/TERSOFF/Higher-Symm/Only-C60
REM
REM
REM
REM
REM
REM ./C.cell (28575a23ae977d3b5fae324c64b13b57)
REM
REM compiler GCC version 9.2.1 20190827 (Red Hat 9.2.1-1)
REM options -cpp -mtune=generic -march=x86-64 -g -O0 -fpre-include=/usr/include/finclude/math-vector-fortran.h
REM seed -1767056156 383319164 -1123421613 -771079474 -2124925224 1930867952 1486613423 1084364832 -827762233 744815454 443179507 485386742 -1692061864 1827144800 664894722 471183653 -1516183978 -1081870461 -1313263246 1473915167 -1047456648 761038826 -1094805195 1178942880 578647655 -898263394 1214318572 549978089 -1165805987 410168987 994838998 -2038942819 1592569395
REM
CELL 1.54180   50.00000   50.00000   50.00000   90.00000   90.00000   90.00000
LATT -1
SFAC C  
C      1  0.5428430000000  0.4694750000000  0.5545620000000 1.0
C      1  0.4863980000000  0.4812060000000  0.5454310000000 1.0
C      1  0.4646000000000  0.4888480000000  0.4831130000000 1.0
C      1  0.5639620000000  0.5251870000000  0.5195120000000 1.0
C      1  0.4367010000000  0.5044710000000  0.4996110000000 1.0
C      1  0.4413590000000  0.4947390000000  0.4486060000000 1.0
C      1  0.5518840000000  0.4696640000000  0.5264470000000 1.0
C      1  0.5235620000000  0.5153620000000  0.5408370000000 1.0
C      1  0.5733630000000  0.5294200000000  0.4884550000000 1.0
C      1  0.4998360000000  0.4166450000000  0.5197750000000 1.0
C      1  0.4942480000000  0.4637510000000  0.5689840000000 1.0
C      1  0.4586720000000  0.5079410000000  0.4284620000000 1.0
C      1  0.4816490000000  0.5394210000000  0.4781730000000 1.0
C      1  0.5092180000000  0.4895020000000  0.5312110000000 1.0
C      1  0.4813510000000  0.4734650000000  0.5019610000000 1.0
C      1  0.4939310000000  0.4906460000000  0.5856550000000 1.0
C      1  0.4675500000000  0.5233940000000  0.5256890000000 1.0
C      1  0.5124650000000  0.4790180000000  0.5042870000000 1.0
C      1  0.5007680000000  0.4722100000000  0.4376370000000 1.0
C      1  0.5696290000000  0.4911870000000  0.5169180000000 1.0
C      1  0.5196330000000  0.4360530000000  0.5290640000000 1.0
C      1  0.4305770000000  0.4815640000000  0.5220610000000 1.0
C      1  0.5021290000000  0.5559200000000  0.4632680000000 1.0
C      1  0.5078990000000  0.5583520000000  0.5359310000000 1.0
C      1  0.4416140000000  0.5317020000000  0.5157060000000 1.0
C      1  0.4514110000000  0.5421800000000  0.4687710000000 1.0
C      1  0.5001580000000  0.5762610000000  0.4862430000000 1.0
C      1  0.5349920000000  0.5451830000000  0.4942030000000 1.0
C      1  0.5158470000000  0.5256130000000  0.5108870000000 1.0
C      1  0.4519410000000  0.5573550000000  0.5016640000000 1.0
C      1  0.5384860000000  0.4974490000000  0.5612040000000 1.0
C      1  0.4950120000000  0.4356520000000  0.4728250000000 1.0
C      1  0.4397680000000  0.4922050000000  0.5483730000000 1.0
C      1  0.5009090000000  0.5363350000000  0.4362500000000 1.0
C      1  0.5295010000000  0.5287940000000  0.4457470000000 1.0
C      1  0.5653900000000  0.5035260000000  0.4691340000000 1.0
C      1  0.5142170000000  0.4973940000000  0.4799180000000 1.0
C      1  0.4811790000000  0.4256310000000  0.4987020000000 1.0
C      1  0.5795630000000  0.4873020000000  0.4900180000000 1.0
C      1  0.4888740000000  0.5023650000000  0.4359090000000 1.0
C      1  0.4684090000000  0.4494910000000  0.5102070000000 1.0
C      1  0.4839800000000  0.5161490000000  0.5715140000000 1.0
C      1  0.4883900000000  0.5264270000000  0.5042710000000 1.0
C      1  0.5358930000000  0.5178070000000  0.4732780000000 1.0
C      1  0.5235610000000  0.4475250000000  0.4760360000000 1.0
C      1  0.4671360000000  0.5040350000000  0.5486620000000 1.0
C      1  0.4799330000000  0.4537860000000  0.4518410000000 1.0
C      1  0.5619320000000  0.5560710000000  0.4790160000000 1.0
C      1  0.5425420000000  0.5535680000000  0.5269070000000 1.0
C      1  0.4401120000000  0.4538410000000  0.5163390000000 1.0
C      1  0.4657850000000  0.5372580000000  0.4388610000000 1.0
C      1  0.5522660000000  0.4835160000000  0.4482300000000 1.0
C      1  0.5053610000000  0.5340670000000  0.5573410000000 1.0
C      1  0.4346210000000  0.5152000000000  0.4701460000000 1.0
C      1  0.5273100000000  0.4677510000000  0.4529700000000 1.0
C      1  0.4887860000000  0.4997140000000  0.4669670000000 1.0
C      1  0.4543980000000  0.4687740000000  0.4609560000000 1.0
C      1  0.5317300000000  0.4546880000000  0.5064970000000 1.0
C      1  0.5196860000000  0.4499070000000  0.5577620000000 1.0
C      1  0.4850830000000  0.5680390000000  0.5109980000000 1.0
END
