TITL C-3985245-9316-1285 1.0062629418048e-07 125000 -258.323549584097 0 0 60 (D3h) n - 1
REM
REM in /home/nfs/bkarasulu/CARBON/AIRSS/Generating-Clusters/TERSOFF/Higher-Symm/Only-C60
REM
REM
REM
REM
REM
REM ./C.cell (28575a23ae977d3b5fae324c64b13b57)
REM
REM compiler GCC version 9.2.1 20190827 (Red Hat 9.2.1-1)
REM options -cpp -mtune=generic -march=x86-64 -g -O0 -fpre-include=/usr/include/finclude/math-vector-fortran.h
REM seed 1036811980 -1916278245 -1004480818 1322297340 1897088391 -1145849230 -395105063 2027034993 -934448508 -131854829 1120056214 707009425 1599982366 2138511521 1786696044 -1716555592 1381945669 1228032666 -1869507192 244988898 337029258 212515399 -1370501224 -635952848 -1491691530 919987687 117786227 756024514 -993584589 1929509349 -881179769 -2048704443 1077430026
REM
CELL 1.54180   50.00000   50.00000   50.00000   90.00000   90.00000   90.00000
LATT -1
SFAC C  
C      1  0.4622220000000  0.4447150000000  0.4489120000000 1.0
C      1  0.4710110000000  0.5603590000000  0.4489120000000 1.0
C      1  0.5667670000000  0.4949260000000  0.4489120000000 1.0
C      1  0.4622220000000  0.4447150000000  0.5510880000000 1.0
C      1  0.4710110000000  0.5603590000000  0.5510880000000 1.0
C      1  0.5667670000000  0.4949260000000  0.5510880000000 1.0
C      1  0.5377780000000  0.4447150000000  0.4489120000000 1.0
C      1  0.5289890000000  0.5603590000000  0.4489120000000 1.0
C      1  0.4332330000000  0.4949260000000  0.4489120000000 1.0
C      1  0.5377780000000  0.4447150000000  0.5510880000000 1.0
C      1  0.5289890000000  0.5603590000000  0.5510880000000 1.0
C      1  0.4332330000000  0.4949260000000  0.5510880000000 1.0
C      1  0.5149020000000  0.5278330000000  0.5446790000000 1.0
C      1  0.5166530000000  0.4731780000000  0.5446790000000 1.0
C      1  0.4684450000000  0.4989890000000  0.5446790000000 1.0
C      1  0.5149020000000  0.5278330000000  0.4553210000000 1.0
C      1  0.5166530000000  0.4731780000000  0.4553210000000 1.0
C      1  0.4684450000000  0.4989890000000  0.4553210000000 1.0
C      1  0.4850980000000  0.5278330000000  0.5446790000000 1.0
C      1  0.4833470000000  0.4731780000000  0.5446790000000 1.0
C      1  0.5315550000000  0.4989890000000  0.5446790000000 1.0
C      1  0.4850980000000  0.5278330000000  0.4553210000000 1.0
C      1  0.4833470000000  0.4731780000000  0.4553210000000 1.0
C      1  0.5315550000000  0.4989890000000  0.4553210000000 1.0
C      1  0.4501750000000  0.5090600000000  0.4842760000000 1.0
C      1  0.5327590000000  0.5386200000000  0.4842760000000 1.0
C      1  0.5170660000000  0.4523200000000  0.4842760000000 1.0
C      1  0.4501750000000  0.5090600000000  0.5157240000000 1.0
C      1  0.5327590000000  0.5386200000000  0.5157240000000 1.0
C      1  0.5170660000000  0.4523200000000  0.5157240000000 1.0
C      1  0.5498250000000  0.5090600000000  0.4842760000000 1.0
C      1  0.4672410000000  0.5386200000000  0.4842760000000 1.0
C      1  0.4829340000000  0.4523200000000  0.4842760000000 1.0
C      1  0.5498250000000  0.5090600000000  0.5157240000000 1.0
C      1  0.4672410000000  0.5386200000000  0.5157240000000 1.0
C      1  0.4829340000000  0.4523200000000  0.5157240000000 1.0
C      1  0.4481870000000  0.4516330000000  0.5183510000000 1.0
C      1  0.4840190000000  0.5690550000000  0.5183510000000 1.0
C      1  0.5677940000000  0.4793120000000  0.5183510000000 1.0
C      1  0.4481870000000  0.4516330000000  0.4816490000000 1.0
C      1  0.4840190000000  0.5690550000000  0.4816490000000 1.0
C      1  0.5677940000000  0.4793120000000  0.4816490000000 1.0
C      1  0.5518130000000  0.4516330000000  0.5183510000000 1.0
C      1  0.5159810000000  0.5690550000000  0.5183510000000 1.0
C      1  0.4322060000000  0.4793120000000  0.5183510000000 1.0
C      1  0.5518130000000  0.4516330000000  0.4816490000000 1.0
C      1  0.5159810000000  0.5690550000000  0.4816490000000 1.0
C      1  0.4322060000000  0.4793120000000  0.4816490000000 1.0
C      1  0.4422130000000  0.5514590000000  0.4632920000000 1.0
C      1  0.5734580000000  0.5243150000000  0.4632920000000 1.0
C      1  0.4843280000000  0.4242260000000  0.4632920000000 1.0
C      1  0.4422130000000  0.5514590000000  0.5367080000000 1.0
C      1  0.5734580000000  0.5243150000000  0.5367080000000 1.0
C      1  0.4843280000000  0.4242260000000  0.5367080000000 1.0
C      1  0.5577870000000  0.5514590000000  0.4632920000000 1.0
C      1  0.4265420000000  0.5243150000000  0.4632920000000 1.0
C      1  0.5156720000000  0.4242260000000  0.4632920000000 1.0
C      1  0.5577870000000  0.5514590000000  0.5367080000000 1.0
C      1  0.4265420000000  0.5243150000000  0.5367080000000 1.0
C      1  0.5156720000000  0.4242260000000  0.5367080000000 1.0
END
