TITL C-3985255-5397-162 0.00050101188795683 125000 -336.647236183071 0 0 60 (C1) n - 1
REM
REM in /home/nfs/bkarasulu/CARBON/AIRSS/Generating-Clusters/TERSOFF/Higher-Symm/Only-C60
REM
REM
REM
REM
REM
REM ./C.cell (28575a23ae977d3b5fae324c64b13b57)
REM
REM compiler GCC version 9.2.1 20190827 (Red Hat 9.2.1-1)
REM options -cpp -mtune=generic -march=x86-64 -g -O0 -fpre-include=/usr/include/finclude/math-vector-fortran.h
REM seed -734762747 1648993180 833507269 1022886612 -73952900 -207882378 -277094215 690057453 -435693852 978237090 259160191 1855562208 -2088327807 578712526 877757741 -554347050 -1786800076 -1827760011 -329331904 1169794427 -950834349 -926337944 -694078639 -1344142150 1792592880 63907873 1524112591 1220760651 178236097 -1914861348 -2058905856 152105761 687744864
REM
CELL 1.54180   50.00000   50.00000   50.00000   90.00000   90.00000   90.00000
LATT -1
SFAC C  
C      1  0.5054600000000  0.4901220000000  0.4238460000000 1.0
C      1  0.4472050000000  0.4998360000000  0.5512000000000 1.0
C      1  0.4443830000000  0.5022010000000  0.4427960000000 1.0
C      1  0.4578790000000  0.5266400000000  0.4534910000000 1.0
C      1  0.5539740000000  0.5292920000000  0.5422830000000 1.0
C      1  0.4675310000000  0.4740690000000  0.5615420000000 1.0
C      1  0.5041140000000  0.4318970000000  0.4761050000000 1.0
C      1  0.5606560000000  0.5006950000000  0.5357690000000 1.0
C      1  0.4358430000000  0.4588010000000  0.4950100000000 1.0
C      1  0.5132310000000  0.4519800000000  0.5509840000000 1.0
C      1  0.4852650000000  0.4871140000000  0.5389810000000 1.0
C      1  0.5778770000000  0.5391060000000  0.5014610000000 1.0
C      1  0.4846830000000  0.5133640000000  0.4918040000000 1.0
C      1  0.5247660000000  0.4792430000000  0.5652360000000 1.0
C      1  0.4469530000000  0.4890170000000  0.5219420000000 1.0
C      1  0.5335850000000  0.4447970000000  0.5236840000000 1.0
C      1  0.4582740000000  0.4790160000000  0.4316070000000 1.0
C      1  0.5534340000000  0.4639070000000  0.5002790000000 1.0
C      1  0.5033890000000  0.5039700000000  0.4694970000000 1.0
C      1  0.4790690000000  0.4866930000000  0.4132140000000 1.0
C      1  0.5138310000000  0.5090390000000  0.5663970000000 1.0
C      1  0.4866990000000  0.5373550000000  0.4502430000000 1.0
C      1  0.5062620000000  0.5141220000000  0.5146600000000 1.0
C      1  0.4338660000000  0.5219160000000  0.4993890000000 1.0
C      1  0.5371240000000  0.4634080000000  0.4752700000000 1.0
C      1  0.4703240000000  0.5596810000000  0.4980130000000 1.0
C      1  0.4933430000000  0.5547410000000  0.4745010000000 1.0
C      1  0.4662380000000  0.4321930000000  0.5305790000000 1.0
C      1  0.5573820000000  0.5477430000000  0.5197910000000 1.0
C      1  0.5145350000000  0.4652920000000  0.4386970000000 1.0
C      1  0.5121530000000  0.5688200000000  0.5284850000000 1.0
C      1  0.5326470000000  0.5601440000000  0.5092210000000 1.0
C      1  0.4936540000000  0.4434460000000  0.4491360000000 1.0
C      1  0.4509780000000  0.5414300000000  0.5224310000000 1.0
C      1  0.4843120000000  0.4659720000000  0.4917110000000 1.0
C      1  0.4601100000000  0.5297100000000  0.4832820000000 1.0
C      1  0.5744570000000  0.5135570000000  0.4877940000000 1.0
C      1  0.5125940000000  0.5177540000000  0.4415330000000 1.0
C      1  0.4816210000000  0.4472470000000  0.5514610000000 1.0
C      1  0.4637750000000  0.5293690000000  0.5476620000000 1.0
C      1  0.4640180000000  0.4544670000000  0.4488070000000 1.0
C      1  0.5308800000000  0.5335840000000  0.5608830000000 1.0
C      1  0.4869480000000  0.5773090000000  0.5167820000000 1.0
C      1  0.5607010000000  0.5189790000000  0.4621200000000 1.0
C      1  0.5373380000000  0.4839210000000  0.5382840000000 1.0
C      1  0.4937100000000  0.5144450000000  0.5439580000000 1.0
C      1  0.5225970000000  0.5549130000000  0.4811370000000 1.0
C      1  0.5076510000000  0.4759440000000  0.4716120000000 1.0
C      1  0.5444450000000  0.5001460000000  0.4440390000000 1.0
C      1  0.5189750000000  0.4830400000000  0.5144610000000 1.0
C      1  0.5080970000000  0.4494860000000  0.5040440000000 1.0
C      1  0.5105700000000  0.5553940000000  0.5547930000000 1.0
C      1  0.4747720000000  0.4868980000000  0.5100870000000 1.0
C      1  0.4394620000000  0.4407450000000  0.5192250000000 1.0
C      1  0.5359030000000  0.5379780000000  0.4600660000000 1.0
C      1  0.5457690000000  0.4701300000000  0.4465280000000 1.0
C      1  0.5675170000000  0.4910310000000  0.5076740000000 1.0
C      1  0.4605540000000  0.4564440000000  0.4782610000000 1.0
C      1  0.4241880000000  0.4907120000000  0.5025380000000 1.0
C      1  0.4824310000000  0.5497350000000  0.5637160000000 1.0
END
