TITL C-3985254-1270-172 -3.66553100120062e-06 125000 -340.051545189749 0 0 60 (D2h) n - 1
REM
REM in /home/nfs/bkarasulu/CARBON/AIRSS/Generating-Clusters/TERSOFF/Higher-Symm/Only-C60
REM
REM
REM
REM
REM
REM ./C.cell (28575a23ae977d3b5fae324c64b13b57)
REM
REM compiler GCC version 9.2.1 20190827 (Red Hat 9.2.1-1)
REM options -cpp -mtune=generic -march=x86-64 -g -O0 -fpre-include=/usr/include/finclude/math-vector-fortran.h
REM seed 246014643 -2099218927 569122417 -2097851899 684980613 -1782800233 898931567 -770486400 2028258411 -957638849 -225356353 1940923807 1735954709 -115098289 99956857 1353637375 -1064083529 1058806473 1262186161 -1367955340 -144447869 -658985232 -25176826 100168142 -1498038185 -342797988 1434936096 718727449 123723806 -2133902157 1071039842 -844652590 1483327313
REM
CELL 1.54180   50.00000   50.00000   50.00000   90.00000   90.00000   90.00000
LATT -1
SFAC C  
C      1  0.5630090000000  0.4476750000000  0.5000000000000 1.0
C      1  0.5812260000000  0.5300480000000  0.5000000000000 1.0
C      1  0.5147040000000  0.5884630000000  0.5000000000000 1.0
C      1  0.4369910000000  0.5523250000000  0.5000000000000 1.0
C      1  0.4187740000000  0.4699520000000  0.5000000000000 1.0
C      1  0.4852960000000  0.4115370000000  0.5000000000000 1.0
C      1  0.5630090000000  0.5523250000000  0.5000000000000 1.0
C      1  0.5812260000000  0.4699520000000  0.5000000000000 1.0
C      1  0.5147040000000  0.4115370000000  0.5000000000000 1.0
C      1  0.4369910000000  0.4476750000000  0.5000000000000 1.0
C      1  0.4187740000000  0.5300480000000  0.5000000000000 1.0
C      1  0.4852960000000  0.5884630000000  0.5000000000000 1.0
C      1  0.5842160000000  0.5154750000000  0.4747980000000 1.0
C      1  0.5285660000000  0.5814780000000  0.4748490000000 1.0
C      1  0.4503120000000  0.5592850000000  0.4754160000000 1.0
C      1  0.4157840000000  0.4845250000000  0.4747980000000 1.0
C      1  0.4714340000000  0.4185220000000  0.4748490000000 1.0
C      1  0.5496880000000  0.4407150000000  0.4754160000000 1.0
C      1  0.5842160000000  0.4845250000000  0.4747980000000 1.0
C      1  0.5285660000000  0.4185220000000  0.4748490000000 1.0
C      1  0.4503120000000  0.4407150000000  0.4754160000000 1.0
C      1  0.4157840000000  0.5154750000000  0.4747980000000 1.0
C      1  0.4714340000000  0.5814780000000  0.4748490000000 1.0
C      1  0.5496880000000  0.5592850000000  0.4754160000000 1.0
C      1  0.5285660000000  0.5814770000000  0.5251520000000 1.0
C      1  0.4503120000000  0.5592850000000  0.5245840000000 1.0
C      1  0.4157840000000  0.4845250000000  0.5252020000000 1.0
C      1  0.4714340000000  0.4185230000000  0.5251520000000 1.0
C      1  0.5496880000000  0.4407150000000  0.5245840000000 1.0
C      1  0.5842160000000  0.5154750000000  0.5252020000000 1.0
C      1  0.5285660000000  0.4185230000000  0.5251520000000 1.0
C      1  0.4503120000000  0.4407150000000  0.5245840000000 1.0
C      1  0.4157840000000  0.5154750000000  0.5252020000000 1.0
C      1  0.4714340000000  0.5814770000000  0.5251520000000 1.0
C      1  0.5496880000000  0.5592850000000  0.5245840000000 1.0
C      1  0.5842160000000  0.4845250000000  0.5252020000000 1.0
C      1  0.5380160000000  0.5365830000000  0.5443870000000 1.0
C      1  0.4852490000000  0.5628340000000  0.5475640000000 1.0
C      1  0.4388480000000  0.5165970000000  0.5477640000000 1.0
C      1  0.4619840000000  0.4634170000000  0.5443870000000 1.0
C      1  0.5147510000000  0.4371660000000  0.5475640000000 1.0
C      1  0.5611520000000  0.4834030000000  0.5477640000000 1.0
C      1  0.5380160000000  0.4634170000000  0.5443870000000 1.0
C      1  0.4852490000000  0.4371660000000  0.5475640000000 1.0
C      1  0.4388480000000  0.4834030000000  0.5477640000000 1.0
C      1  0.4619840000000  0.5365830000000  0.5443870000000 1.0
C      1  0.5147510000000  0.5628340000000  0.5475640000000 1.0
C      1  0.5611520000000  0.5165970000000  0.5477640000000 1.0
C      1  0.4388490000000  0.5165970000000  0.4522350000000 1.0
C      1  0.4619840000000  0.4634160000000  0.4556120000000 1.0
C      1  0.5147510000000  0.4371650000000  0.4524360000000 1.0
C      1  0.5611510000000  0.4834030000000  0.4522350000000 1.0
C      1  0.5380160000000  0.5365840000000  0.4556120000000 1.0
C      1  0.4852490000000  0.5628350000000  0.4524360000000 1.0
C      1  0.4388490000000  0.4834030000000  0.4522350000000 1.0
C      1  0.4619840000000  0.5365840000000  0.4556120000000 1.0
C      1  0.5147510000000  0.5628350000000  0.4524360000000 1.0
C      1  0.5611510000000  0.5165970000000  0.4522350000000 1.0
C      1  0.5380160000000  0.4634160000000  0.4556120000000 1.0
C      1  0.4852490000000  0.4371650000000  0.4524360000000 1.0
END
