TITL C-3985254-1270-2047 -0.000954414741011927 125000 -347.158092473377 0 0 60 (D6h) n - 1
REM
REM in /home/nfs/bkarasulu/CARBON/AIRSS/Generating-Clusters/TERSOFF/Higher-Symm/Only-C60
REM
REM
REM
REM
REM
REM ./C.cell (28575a23ae977d3b5fae324c64b13b57)
REM
REM compiler GCC version 9.2.1 20190827 (Red Hat 9.2.1-1)
REM options -cpp -mtune=generic -march=x86-64 -g -O0 -fpre-include=/usr/include/finclude/math-vector-fortran.h
REM seed 1497988426 -1157620815 -1346118156 598953218 -786374222 435384894 1413850426 2135514205 240111872 1723720092 -46169717 -1709200206 1383258829 -1176774486 1741520439 1314542323 -1330158130 -477189164 -57206984 -870948394 1705059827 920843664 -1601947355 1814512708 1605360873 1261354886 -648721986 111659727 490035596 -1773939693 -796200460 1838279072 242346875
REM
CELL 1.54180   50.00000   50.00000   50.00000   90.00000   90.00000   90.00000
LATT -1
SFAC C  
C      1  0.5144780000000  0.4833920000000  0.4207760000000 1.0
C      1  0.5144750000000  0.4230890000000  0.4748000000000 1.0
C      1  0.5144600000000  0.4397450000000  0.5539750000000 1.0
C      1  0.5144740000000  0.5166130000000  0.5791900000000 1.0
C      1  0.5144610000000  0.5768770000000  0.5251960000000 1.0
C      1  0.5144490000000  0.5602430000000  0.4460630000000 1.0
C      1  0.4855060000000  0.4833880000000  0.4207680000000 1.0
C      1  0.4855220000000  0.4230970000000  0.4747960000000 1.0
C      1  0.4855400000000  0.4397400000000  0.5539770000000 1.0
C      1  0.4855250000000  0.5166200000000  0.5791990000000 1.0
C      1  0.4855330000000  0.5768810000000  0.5251990000000 1.0
C      1  0.4855480000000  0.5602430000000  0.4460620000000 1.0
C      1  0.5338030000000  0.4307840000000  0.5297250000000 1.0
C      1  0.5338250000000  0.4911040000000  0.5747770000000 1.0
C      1  0.5338020000000  0.5603370000000  0.5450830000000 1.0
C      1  0.5337780000000  0.5692590000000  0.4702940000000 1.0
C      1  0.5338500000000  0.5088270000000  0.4252490000000 1.0
C      1  0.5337930000000  0.4396630000000  0.4548940000000 1.0
C      1  0.4662010000000  0.4307530000000  0.5296880000000 1.0
C      1  0.4661670000000  0.4911450000000  0.5747630000000 1.0
C      1  0.4662090000000  0.5603260000000  0.5450900000000 1.0
C      1  0.4662140000000  0.5692720000000  0.4702970000000 1.0
C      1  0.4661740000000  0.5088180000000  0.4252660000000 1.0
C      1  0.4661970000000  0.4396860000000  0.4549150000000 1.0
C      1  0.5567350000000  0.4719570000000  0.4907910000000 1.0
C      1  0.5567170000000  0.4780120000000  0.5196960000000 1.0
C      1  0.5567790000000  0.5060670000000  0.5289090000000 1.0
C      1  0.5567450000000  0.5280550000000  0.5092030000000 1.0
C      1  0.5566860000000  0.5219840000000  0.4803130000000 1.0
C      1  0.5568010000000  0.4939480000000  0.4710870000000 1.0
C      1  0.4432600000000  0.4719330000000  0.4907950000000 1.0
C      1  0.4433080000000  0.4780090000000  0.5197100000000 1.0
C      1  0.4431980000000  0.5060690000000  0.5289260000000 1.0
C      1  0.4432590000000  0.5280670000000  0.5092240000000 1.0
C      1  0.4433290000000  0.5220070000000  0.4803080000000 1.0
C      1  0.4432050000000  0.4939390000000  0.4710770000000 1.0
C      1  0.4661840000000  0.5752950000000  0.4994180000000 1.0
C      1  0.4662160000000  0.5371180000000  0.4343990000000 1.0
C      1  0.4661720000000  0.4618720000000  0.4351170000000 1.0
C      1  0.4661800000000  0.4247160000000  0.5005650000000 1.0
C      1  0.4662040000000  0.4628760000000  0.5655510000000 1.0
C      1  0.4661650000000  0.5381600000000  0.5648970000000 1.0
C      1  0.5338320000000  0.5753060000000  0.4994210000000 1.0
C      1  0.5337630000000  0.5371270000000  0.4344150000000 1.0
C      1  0.5338300000000  0.4618710000000  0.4351000000000 1.0
C      1  0.5338310000000  0.4246910000000  0.5006090000000 1.0
C      1  0.5338140000000  0.4628540000000  0.5655200000000 1.0
C      1  0.5338180000000  0.5381800000000  0.5649090000000 1.0
C      1  0.4502500000000  0.4447500000000  0.4818720000000 1.0
C      1  0.4502730000000  0.4567100000000  0.5387860000000 1.0
C      1  0.4502640000000  0.5119380000000  0.5568920000000 1.0
C      1  0.4502640000000  0.5552200000000  0.5181400000000 1.0
C      1  0.4502420000000  0.5433150000000  0.4612230000000 1.0
C      1  0.4502500000000  0.4880620000000  0.4430900000000 1.0
C      1  0.5497510000000  0.4447780000000  0.4818810000000 1.0
C      1  0.5497460000000  0.4566880000000  0.5387850000000 1.0
C      1  0.5497310000000  0.5119280000000  0.5568800000000 1.0
C      1  0.5497400000000  0.5552300000000  0.5181130000000 1.0
C      1  0.5497390000000  0.5432920000000  0.4612300000000 1.0
C      1  0.5497380000000  0.4880760000000  0.4431040000000 1.0
END
