TITL C-3985258-5380-101 -7.76733828519336e-05 125000 -345.596462749759 0 0 60 (Ci) n - 1
REM
REM in /home/nfs/bkarasulu/CARBON/AIRSS/Generating-Clusters/TERSOFF/Higher-Symm/Only-C60
REM
REM
REM
REM
REM
REM ./C.cell (28575a23ae977d3b5fae324c64b13b57)
REM
REM compiler GCC version 9.2.1 20190827 (Red Hat 9.2.1-1)
REM options -cpp -mtune=generic -march=x86-64 -g -O0 -fpre-include=/usr/include/finclude/math-vector-fortran.h
REM seed -613006956 -426619950 -2052730669 1123669314 -678011134 1289704873 1350630788 -1946989788 1350623771 2131654448 -996977259 1048565750 -1090741242 -1692821637 -489809402 136972168 -829157656 629312519 2079018024 -1317163813 -881809602 433328709 707717670 1484415930 87188225 301104895 -2109396546 262898933 -235526958 1193700380 916516605 1085376713 -1177020289
REM
CELL 1.54180   50.00000   50.00000   50.00000   90.00000   90.00000   90.00000
LATT -1
SFAC C  
C      1  0.5605120000000  0.5047320000000  0.5490040000000 1.0
C      1  0.4394880000000  0.4952700000000  0.4509960000000 1.0
C      1  0.5054510000000  0.4603710000000  0.4357300000000 1.0
C      1  0.4945480000000  0.5396280000000  0.5642710000000 1.0
C      1  0.5561010000000  0.4684380000000  0.5163110000000 1.0
C      1  0.4438990000000  0.5315630000000  0.4836890000000 1.0
C      1  0.4333550000000  0.5070620000000  0.5001470000000 1.0
C      1  0.5666450000000  0.4929380000000  0.4998520000000 1.0
C      1  0.5125420000000  0.4311210000000  0.5021600000000 1.0
C      1  0.4874570000000  0.5688780000000  0.4978410000000 1.0
C      1  0.5265020000000  0.5366870000000  0.4387510000000 1.0
C      1  0.4734980000000  0.4633080000000  0.5612510000000 1.0
C      1  0.5049900000000  0.4266210000000  0.4722780000000 1.0
C      1  0.4950100000000  0.5733780000000  0.5277230000000 1.0
C      1  0.4480180000000  0.5245950000000  0.4547170000000 1.0
C      1  0.5519800000000  0.4754050000000  0.5452830000000 1.0
C      1  0.4695510000000  0.4508990000000  0.4913150000000 1.0
C      1  0.5304530000000  0.5491070000000  0.5086850000000 1.0
C      1  0.4759600000000  0.5316700000000  0.4402770000000 1.0
C      1  0.5240340000000  0.4683270000000  0.5597230000000 1.0
C      1  0.5411830000000  0.4459630000000  0.5024880000000 1.0
C      1  0.4588170000000  0.5540370000000  0.4975130000000 1.0
C      1  0.5019330000000  0.5016220000000  0.4689080000000 1.0
C      1  0.4980690000000  0.4983780000000  0.5310900000000 1.0
C      1  0.5053130000000  0.4688510000000  0.5332320000000 1.0
C      1  0.4946910000000  0.5311490000000  0.4667670000000 1.0
C      1  0.4885230000000  0.4459220000000  0.5175080000000 1.0
C      1  0.5114770000000  0.5540800000000  0.4824890000000 1.0
C      1  0.5393960000000  0.5188190000000  0.5653490000000 1.0
C      1  0.4606040000000  0.4811810000000  0.4346510000000 1.0
C      1  0.4758610000000  0.4540710000000  0.4407160000000 1.0
C      1  0.5241380000000  0.5459280000000  0.5592850000000 1.0
C      1  0.4595770000000  0.4772060000000  0.4865870000000 1.0
C      1  0.5404210000000  0.5227950000000  0.5134100000000 1.0
C      1  0.5210290000000  0.4880100000000  0.4861590000000 1.0
C      1  0.4789700000000  0.5119920000000  0.5138430000000 1.0
C      1  0.5185560000000  0.4980960000000  0.5724110000000 1.0
C      1  0.4814420000000  0.5019020000000  0.4275890000000 1.0
C      1  0.5337610000000  0.4626150000000  0.4785570000000 1.0
C      1  0.4662370000000  0.5373870000000  0.5214420000000 1.0
C      1  0.4991420000000  0.4553400000000  0.5725240000000 1.0
C      1  0.5008570000000  0.5446580000000  0.4274760000000 1.0
C      1  0.5684760000000  0.5165020000000  0.5218200000000 1.0
C      1  0.4315270000000  0.4835000000000  0.4781810000000 1.0
C      1  0.4769490000000  0.4996180000000  0.4880860000000 1.0
C      1  0.5230500000000  0.5003850000000  0.5119150000000 1.0
C      1  0.4768210000000  0.4367070000000  0.4667020000000 1.0
C      1  0.5231780000000  0.5632930000000  0.5333000000000 1.0
C      1  0.4413660000000  0.4643780000000  0.5278230000000 1.0
C      1  0.5586360000000  0.5356230000000  0.4721730000000 1.0
C      1  0.5563970000000  0.5049300000000  0.4711040000000 1.0
C      1  0.4436050000000  0.4950690000000  0.5288920000000 1.0
C      1  0.4638340000000  0.4477060000000  0.5377670000000 1.0
C      1  0.5361680000000  0.5522920000000  0.4622290000000 1.0
C      1  0.5093420000000  0.4894280000000  0.4294510000000 1.0
C      1  0.4906580000000  0.5105720000000  0.5705520000000 1.0
C      1  0.5218770000000  0.4466530000000  0.4563470000000 1.0
C      1  0.4781230000000  0.5533460000000  0.5436550000000 1.0
C      1  0.4711510000000  0.4936080000000  0.5522020000000 1.0
C      1  0.5288520000000  0.5063890000000  0.4478000000000 1.0
END
