TITL C-3985250-725-584 0.000889976174430369 125000 -324.187058068364 0 0 60 (Ci) n - 1
REM
REM in /home/nfs/bkarasulu/CARBON/AIRSS/Generating-Clusters/TERSOFF/Higher-Symm/Only-C60
REM
REM
REM
REM
REM
REM ./C.cell (28575a23ae977d3b5fae324c64b13b57)
REM
REM compiler GCC version 9.2.1 20190827 (Red Hat 9.2.1-1)
REM options -cpp -mtune=generic -march=x86-64 -g -O0 -fpre-include=/usr/include/finclude/math-vector-fortran.h
REM seed -568452475 1452215732 386594713 -749399317 -2085220935 -1416817133 -1743244440 1203484977 301322385 1437774081 423877687 -2126230441 -1227607243 -279064110 496589921 -1594346820 -1634663729 -1658907510 -1914342795 1448543006 1246078803 608883702 -1323941131 -1714012207 2036189043 -1362634294 1952993012 1576005620 -1461487190 -1946622399 1020883029 2012807180 367433163
REM
CELL 1.54180   50.00000   50.00000   50.00000   90.00000   90.00000   90.00000
LATT -1
SFAC C  
C      1  0.5647270000000  0.4694730000000  0.4791660000000 1.0
C      1  0.4352730000000  0.5305270000000  0.5208340000000 1.0
C      1  0.5031990000000  0.5070700000000  0.5681370000000 1.0
C      1  0.4968010000000  0.4929280000000  0.4318610000000 1.0
C      1  0.5358390000000  0.5472470000000  0.4944180000000 1.0
C      1  0.4641600000000  0.4527530000000  0.5055820000000 1.0
C      1  0.5081590000000  0.5536480000000  0.4476540000000 1.0
C      1  0.4918380000000  0.4463470000000  0.5523490000000 1.0
C      1  0.4888300000000  0.5437550000000  0.5217420000000 1.0
C      1  0.5111690000000  0.4562450000000  0.4782580000000 1.0
C      1  0.5663180000000  0.5418520000000  0.5468570000000 1.0
C      1  0.4336820000000  0.4581480000000  0.4531430000000 1.0
C      1  0.4327680000000  0.4990060000000  0.4817720000000 1.0
C      1  0.5672320000000  0.5009940000000  0.5182280000000 1.0
C      1  0.4854850000000  0.5025580000000  0.5031860000000 1.0
C      1  0.5145250000000  0.4974320000000  0.4968090000000 1.0
C      1  0.5043570000000  0.4820040000000  0.5344610000000 1.0
C      1  0.4956460000000  0.5179980000000  0.4655430000000 1.0
C      1  0.5419520000000  0.4696540000000  0.4361040000000 1.0
C      1  0.4580480000000  0.5303460000000  0.5638960000000 1.0
C      1  0.4336050000000  0.4539440000000  0.5001860000000 1.0
C      1  0.5663950000000  0.5460570000000  0.4998140000000 1.0
C      1  0.4395850000000  0.5155470000000  0.5462390000000 1.0
C      1  0.5604150000000  0.4844530000000  0.4537610000000 1.0
C      1  0.4887110000000  0.4440860000000  0.4578810000000 1.0
C      1  0.5112890000000  0.5559140000000  0.5421180000000 1.0
C      1  0.4613550000000  0.5376960000000  0.4794390000000 1.0
C      1  0.5386420000000  0.4623060000000  0.5205620000000 1.0
C      1  0.5215590000000  0.4998930000000  0.4677310000000 1.0
C      1  0.4784400000000  0.5001070000000  0.5322690000000 1.0
C      1  0.5342860000000  0.5432580000000  0.4637240000000 1.0
C      1  0.4657170000000  0.4567420000000  0.5362740000000 1.0
C      1  0.5053490000000  0.5383270000000  0.4937630000000 1.0
C      1  0.4946430000000  0.4616840000000  0.5062400000000 1.0
C      1  0.4240040000000  0.4703800000000  0.4781110000000 1.0
C      1  0.5759910000000  0.5296190000000  0.5218890000000 1.0
C      1  0.4659010000000  0.4731450000000  0.4778420000000 1.0
C      1  0.5341030000000  0.5268560000000  0.5221580000000 1.0
C      1  0.5414580000000  0.4626970000000  0.5702650000000 1.0
C      1  0.4585410000000  0.5373020000000  0.4297360000000 1.0
C      1  0.5405040000000  0.4537260000000  0.4912550000000 1.0
C      1  0.4594960000000  0.5462740000000  0.5087450000000 1.0
C      1  0.4840490000000  0.5242540000000  0.5504530000000 1.0
C      1  0.5159510000000  0.4757460000000  0.4495470000000 1.0
C      1  0.4525760000000  0.4855870000000  0.5420070000000 1.0
C      1  0.5474240000000  0.5144130000000  0.4579930000000 1.0
C      1  0.5805060000000  0.4833550000000  0.4994010000000 1.0
C      1  0.4194940000000  0.5166450000000  0.5005990000000 1.0
C      1  0.5010040000000  0.4753120000000  0.5663500000000 1.0
C      1  0.4989960000000  0.5246870000000  0.4336500000000 1.0
C      1  0.5273810000000  0.4492230000000  0.5466830000000 1.0
C      1  0.4726190000000  0.5507810000000  0.4533160000000 1.0
C      1  0.4693830000000  0.4850220000000  0.4311080000000 1.0
C      1  0.5306160000000  0.5149780000000  0.5688920000000 1.0
C      1  0.4504310000000  0.5081400000000  0.4287950000000 1.0
C      1  0.5495700000000  0.4918610000000  0.5712040000000 1.0
C      1  0.4649220000000  0.5050780000000  0.4794460000000 1.0
C      1  0.5350770000000  0.4949210000000  0.5205550000000 1.0
C      1  0.5365440000000  0.5385130000000  0.5510770000000 1.0
C      1  0.4634560000000  0.4614870000000  0.4489230000000 1.0
END
