TITL C-3985250-725-286 5.51742947345264e-05 125000 -318.587341036653 0 0 60 (C4v) n - 1
REM
REM in /home/nfs/bkarasulu/CARBON/AIRSS/Generating-Clusters/TERSOFF/Higher-Symm/Only-C60
REM
REM
REM
REM
REM
REM ./C.cell (28575a23ae977d3b5fae324c64b13b57)
REM
REM compiler GCC version 9.2.1 20190827 (Red Hat 9.2.1-1)
REM options -cpp -mtune=generic -march=x86-64 -g -O0 -fpre-include=/usr/include/finclude/math-vector-fortran.h
REM seed 1508305150 420437873 1553950114 2037658706 230798665 -83802458 1245202222 -1148685126 840511791 387612484 533525116 -401697932 1521808595 -8517670 1557695367 1154988883 -1959873356 278899172 -247070053 405585415 2009601541 1119188601 -1025601368 -1889682670 1492099931 2048888575 -1512934082 -1605527487 -1480103772 -550965995 931908165 1250739478 1744578675
REM
CELL 1.54180   50.00000   50.00000   50.00000   90.00000   90.00000   90.00000
LATT -1
SFAC C  
C      1  0.5149650000000  0.4634620000000  0.4970310000000 1.0
C      1  0.5365390000000  0.5149650000000  0.4970310000000 1.0
C      1  0.4850350000000  0.5365380000000  0.4970310000000 1.0
C      1  0.4634610000000  0.4850350000000  0.4970310000000 1.0
C      1  0.5149650000000  0.5365380000000  0.4970310000000 1.0
C      1  0.5365390000000  0.4850350000000  0.4970310000000 1.0
C      1  0.4850350000000  0.4634620000000  0.4970310000000 1.0
C      1  0.4634610000000  0.5149650000000  0.4970310000000 1.0
C      1  0.5498110000000  0.4733540000000  0.5246850000000 1.0
C      1  0.5266460000000  0.5498110000000  0.5246850000000 1.0
C      1  0.4501890000000  0.5266460000000  0.5246850000000 1.0
C      1  0.4733540000000  0.4501890000000  0.5246850000000 1.0
C      1  0.5498110000000  0.5266460000000  0.5246850000000 1.0
C      1  0.5266460000000  0.4501890000000  0.5246850000000 1.0
C      1  0.4501890000000  0.4733540000000  0.5246850000000 1.0
C      1  0.4733540000000  0.5498110000000  0.5246850000000 1.0
C      1  0.4822820000000  0.4446750000000  0.4695760000000 1.0
C      1  0.5553250000000  0.4822820000000  0.4695760000000 1.0
C      1  0.5177180000000  0.5553250000000  0.4695760000000 1.0
C      1  0.4446750000000  0.5177180000000  0.4695760000000 1.0
C      1  0.4822820000000  0.5553250000000  0.4695760000000 1.0
C      1  0.5553250000000  0.5177180000000  0.4695760000000 1.0
C      1  0.5177180000000  0.4446750000000  0.4695760000000 1.0
C      1  0.4446750000000  0.4822820000000  0.4695760000000 1.0
C      1  0.4728190000000  0.4234280000000  0.5098490000000 1.0
C      1  0.5765680000000  0.4728220000000  0.5098500000000 1.0
C      1  0.5271800000000  0.5765700000000  0.5098490000000 1.0
C      1  0.4234310000000  0.5271790000000  0.5098500000000 1.0
C      1  0.4728200000000  0.5765700000000  0.5098490000000 1.0
C      1  0.5765680000000  0.5271780000000  0.5098500000000 1.0
C      1  0.5271810000000  0.4234280000000  0.5098490000000 1.0
C      1  0.4234310000000  0.4728210000000  0.5098500000000 1.0
C      1  0.5668640000000  0.5438950000000  0.4839450000000 1.0
C      1  0.4561050000000  0.5668640000000  0.4839450000000 1.0
C      1  0.4331360000000  0.4561050000000  0.4839450000000 1.0
C      1  0.5438950000000  0.4331360000000  0.4839450000000 1.0
C      1  0.5668640000000  0.4561050000000  0.4839450000000 1.0
C      1  0.4561050000000  0.4331360000000  0.4839450000000 1.0
C      1  0.4331360000000  0.5438950000000  0.4839450000000 1.0
C      1  0.5438950000000  0.5668640000000  0.4839450000000 1.0
C      1  0.5158900000000  0.5367980000000  0.4435560000000 1.0
C      1  0.4632020000000  0.5158900000000  0.4435560000000 1.0
C      1  0.4841100000000  0.4632020000000  0.4435560000000 1.0
C      1  0.5367980000000  0.4841100000000  0.4435560000000 1.0
C      1  0.5158900000000  0.4632020000000  0.4435560000000 1.0
C      1  0.4632020000000  0.4841100000000  0.4435560000000 1.0
C      1  0.4841100000000  0.5367980000000  0.4435560000000 1.0
C      1  0.5367980000000  0.5158900000000  0.4435560000000 1.0
C      1  0.4621710000000  0.4852210000000  0.5518330000000 1.0
C      1  0.5147790000000  0.4621710000000  0.5518330000000 1.0
C      1  0.5378290000000  0.5147790000000  0.5518330000000 1.0
C      1  0.4852210000000  0.5378280000000  0.5518330000000 1.0
C      1  0.4621710000000  0.5147790000000  0.5518330000000 1.0
C      1  0.5147790000000  0.5378290000000  0.5518330000000 1.0
C      1  0.5378290000000  0.4852210000000  0.5518330000000 1.0
C      1  0.4852210000000  0.4621710000000  0.5518330000000 1.0
C      1  0.4095130000000  0.5000000000000  0.5069750000000 1.0
C      1  0.5000000000000  0.5904840000000  0.5069750000000 1.0
C      1  0.5000000000000  0.4095210000000  0.5069760000000 1.0
C      1  0.5904890000000  0.5000000000000  0.5069740000000 1.0
END
