TITL C-3985247-764-715 2.10240654311821e-06 125000 -299.576105964873 0 0 60 (C4h) n - 1
REM
REM in /home/nfs/bkarasulu/CARBON/AIRSS/Generating-Clusters/TERSOFF/Higher-Symm/Only-C60
REM
REM
REM
REM
REM
REM ./C.cell (28575a23ae977d3b5fae324c64b13b57)
REM
REM compiler GCC version 9.2.1 20190827 (Red Hat 9.2.1-1)
REM options -cpp -mtune=generic -march=x86-64 -g -O0 -fpre-include=/usr/include/finclude/math-vector-fortran.h
REM seed -1897673862 1295178735 -12002312 -860245920 -847866559 2063955193 -761715087 -254845232 -701626310 1900951894 174174597 -1319834645 -348962656 1227846766 927592733 -436946927 1912291592 -1109431718 -2104210424 324974699 1175220824 -648668152 -1812666803 -1773322047 197932958 -1473971862 -812197603 -386107484 -368328893 2047365628 -1280688438 -1952565258 -1605318389
REM
CELL 1.54180   50.00000   50.00000   50.00000   90.00000   90.00000   90.00000
LATT -1
SFAC C  
C      1  0.5513350000000  0.5526180000000  0.4961930000000 1.0
C      1  0.4961930000000  0.5526180000000  0.4486650000000 1.0
C      1  0.4486650000000  0.5526180000000  0.5038070000000 1.0
C      1  0.5038070000000  0.5526180000000  0.5513350000000 1.0
C      1  0.5513350000000  0.4485410000000  0.4961930000000 1.0
C      1  0.4961930000000  0.4485410000000  0.4486650000000 1.0
C      1  0.4486650000000  0.4485410000000  0.5038070000000 1.0
C      1  0.5038070000000  0.4485410000000  0.5513350000000 1.0
C      1  0.5231380000000  0.4309030000000  0.5101980000000 1.0
C      1  0.5101980000000  0.4309030000000  0.4768620000000 1.0
C      1  0.4768620000000  0.4309030000000  0.4898020000000 1.0
C      1  0.4898020000000  0.4309030000000  0.5231380000000 1.0
C      1  0.5231380000000  0.5702570000000  0.5101980000000 1.0
C      1  0.5101980000000  0.5702570000000  0.4768620000000 1.0
C      1  0.4768620000000  0.5702570000000  0.4898020000000 1.0
C      1  0.4898020000000  0.5702570000000  0.5231380000000 1.0
C      1  0.4734410000000  0.4268280000000  0.4572120000000 1.0
C      1  0.4572120000000  0.4268280000000  0.5265590000000 1.0
C      1  0.5265590000000  0.4268280000000  0.5427880000000 1.0
C      1  0.5427880000000  0.4268280000000  0.4734410000000 1.0
C      1  0.4734410000000  0.5743320000000  0.4572120000000 1.0
C      1  0.4572120000000  0.5743320000000  0.5265590000000 1.0
C      1  0.5265590000000  0.5743320000000  0.5427880000000 1.0
C      1  0.5427880000000  0.5743320000000  0.4734410000000 1.0
C      1  0.4777680000000  0.4733840000000  0.4535390000000 1.0
C      1  0.4535390000000  0.4733840000000  0.5222320000000 1.0
C      1  0.5222320000000  0.4733840000000  0.5464610000000 1.0
C      1  0.5464610000000  0.4733840000000  0.4777680000000 1.0
C      1  0.4777680000000  0.5277760000000  0.4535390000000 1.0
C      1  0.4535390000000  0.5277760000000  0.5222320000000 1.0
C      1  0.5222320000000  0.5277760000000  0.5464610000000 1.0
C      1  0.5464610000000  0.5277760000000  0.4777680000000 1.0
C      1  0.5513330000000  0.5354870000000  0.5456310000000 1.0
C      1  0.5456310000000  0.5354870000000  0.4486670000000 1.0
C      1  0.4486670000000  0.5354870000000  0.4543690000000 1.0
C      1  0.4543690000000  0.5354870000000  0.5513330000000 1.0
C      1  0.5513330000000  0.4656730000000  0.5456310000000 1.0
C      1  0.5456310000000  0.4656730000000  0.4486670000000 1.0
C      1  0.4486670000000  0.4656730000000  0.4543690000000 1.0
C      1  0.4543690000000  0.4656730000000  0.5513330000000 1.0
C      1  0.4795040000000  0.5167580000000  0.5110760000000 1.0
C      1  0.5110760000000  0.5167580000000  0.5204960000000 1.0
C      1  0.5204960000000  0.5167580000000  0.4889240000000 1.0
C      1  0.4889240000000  0.5167580000000  0.4795040000000 1.0
C      1  0.4795040000000  0.4844020000000  0.5110760000000 1.0
C      1  0.5110760000000  0.4844020000000  0.5204960000000 1.0
C      1  0.5204960000000  0.4844020000000  0.4889240000000 1.0
C      1  0.4889240000000  0.4844020000000  0.4795040000000 1.0
C      1  0.4350930000000  0.5466930000000  0.4775920000000 1.0
C      1  0.4775920000000  0.5466930000000  0.5649070000000 1.0
C      1  0.5649070000000  0.5466930000000  0.5224080000000 1.0
C      1  0.5224080000000  0.5466930000000  0.4350930000000 1.0
C      1  0.4350930000000  0.4544670000000  0.4775920000000 1.0
C      1  0.4775920000000  0.4544670000000  0.5649070000000 1.0
C      1  0.5649070000000  0.4544670000000  0.5224080000000 1.0
C      1  0.5224080000000  0.4544670000000  0.4350930000000 1.0
C      1  0.5614070000000  0.5005800000000  0.4815410000000 1.0
C      1  0.4815410000000  0.5005800000000  0.4385930000000 1.0
C      1  0.4385930000000  0.5005800000000  0.5184590000000 1.0
C      1  0.5184590000000  0.5005800000000  0.5614070000000 1.0
END
