TITL C-3985254-1270-614 0.000380421918412405 125000 -344.643457437293 0 0 60 (S4) n - 1
REM
REM in /home/nfs/bkarasulu/CARBON/AIRSS/Generating-Clusters/TERSOFF/Higher-Symm/Only-C60
REM
REM
REM
REM
REM
REM ./C.cell (28575a23ae977d3b5fae324c64b13b57)
REM
REM compiler GCC version 9.2.1 20190827 (Red Hat 9.2.1-1)
REM options -cpp -mtune=generic -march=x86-64 -g -O0 -fpre-include=/usr/include/finclude/math-vector-fortran.h
REM seed 1891454190 -806136140 1013720985 1434528927 452868831 1639582110 1107900695 -1076328178 1661570743 -405077408 1896936736 334062695 1904240643 -1270910227 -811137828 -692540049 1299800279 -413391113 -1845544191 2040057101 -995893814 -86703553 -155937215 175952654 773718909 622408193 252260670 -590647668 759625662 376326627 -1521055005 -835804859 1253687706
REM
CELL 1.54180   50.00000   50.00000   50.00000   90.00000   90.00000   90.00000
LATT -1
SFAC C  
C      1  0.4499630000000  0.5370010000000  0.4634410000000 1.0
C      1  0.5365590000000  0.4629990000000  0.4499630000000 1.0
C      1  0.5500370000000  0.5370010000000  0.5365590000000 1.0
C      1  0.4634410000000  0.4629990000000  0.5500370000000 1.0
C      1  0.4997120000000  0.4848450000000  0.5273790000000 1.0
C      1  0.4726210000000  0.5151550000000  0.4997120000000 1.0
C      1  0.5002880000000  0.4848450000000  0.4726210000000 1.0
C      1  0.5273790000000  0.5151550000000  0.5002880000000 1.0
C      1  0.5228390000000  0.4673210000000  0.5157660000000 1.0
C      1  0.4842340000000  0.5326780000000  0.5228390000000 1.0
C      1  0.4771580000000  0.4673260000000  0.4842430000000 1.0
C      1  0.5157660000000  0.5326790000000  0.4771610000000 1.0
C      1  0.5508380000000  0.5519430000000  0.4898920000000 1.0
C      1  0.5101080000000  0.4480570000000  0.5508380000000 1.0
C      1  0.4491610000000  0.5519430000000  0.5101080000000 1.0
C      1  0.4898950000000  0.4480520000000  0.4491530000000 1.0
C      1  0.4249100000000  0.5038510000000  0.4974800000000 1.0
C      1  0.5025200000000  0.4961490000000  0.4249100000000 1.0
C      1  0.5750900000000  0.5038510000000  0.5025200000000 1.0
C      1  0.4974800000000  0.4961490000000  0.5750900000000 1.0
C      1  0.4906190000000  0.5250000000000  0.5689520000000 1.0
C      1  0.4310480000000  0.4750000000000  0.4906190000000 1.0
C      1  0.5093810000000  0.5250000000000  0.4310480000000 1.0
C      1  0.5689530000000  0.4750000000000  0.5093810000000 1.0
C      1  0.5334040000000  0.5145000000000  0.5485250000000 1.0
C      1  0.4514750000000  0.4855000000000  0.5334040000000 1.0
C      1  0.4665960000000  0.5145000000000  0.4514750000000 1.0
C      1  0.5485250000000  0.4855000000000  0.4665960000000 1.0
C      1  0.4790690000000  0.5631350000000  0.5125840000000 1.0
C      1  0.4874160000000  0.4368650000000  0.4790690000000 1.0
C      1  0.5209310000000  0.5631350000000  0.4874160000000 1.0
C      1  0.5125840000000  0.4368650000000  0.5209320000000 1.0
C      1  0.5674750000000  0.4531070000000  0.4888250000000 1.0
C      1  0.5111750000000  0.5468930000000  0.5674750000000 1.0
C      1  0.4325240000000  0.4531070000000  0.5111750000000 1.0
C      1  0.4888250000000  0.5468930000000  0.4325250000000 1.0
C      1  0.4699400000000  0.5286500000000  0.5486130000000 1.0
C      1  0.4513870000000  0.4713500000000  0.4699400000000 1.0
C      1  0.5300600000000  0.5286500000000  0.4513870000000 1.0
C      1  0.5486130000000  0.4713500000000  0.5300600000000 1.0
C      1  0.4445170000000  0.5271370000000  0.4927450000000 1.0
C      1  0.5072550000000  0.4728630000000  0.4445170000000 1.0
C      1  0.5554830000000  0.5271370000000  0.5072550000000 1.0
C      1  0.4927450000000  0.4728630000000  0.5554830000000 1.0
C      1  0.4813650000000  0.4328080000000  0.5113180000000 1.0
C      1  0.4886820000000  0.5671920000000  0.4813650000000 1.0
C      1  0.5186350000000  0.4328080000000  0.4886820000000 1.0
C      1  0.5113180000000  0.5671920000000  0.5186350000000 1.0
C      1  0.4476260000000  0.5105920000000  0.5471000000000 1.0
C      1  0.4529000000000  0.4894080000000  0.4476260000000 1.0
C      1  0.5523740000000  0.5105920000000  0.4529000000000 1.0
C      1  0.5471000000000  0.4894080000000  0.5523740000000 1.0
C      1  0.4893800000000  0.5139140000000  0.4735070000000 1.0
C      1  0.5264930000000  0.4860860000000  0.4893800000000 1.0
C      1  0.5106200000000  0.5139140000000  0.5264930000000 1.0
C      1  0.4735070000000  0.4860860000000  0.5106200000000 1.0
C      1  0.5257910000000  0.5552920000000  0.5421350000000 1.0
C      1  0.4578650000000  0.4447080000000  0.5257910000000 1.0
C      1  0.4742090000000  0.5552920000000  0.4578650000000 1.0
C      1  0.5421350000000  0.4447080000000  0.4742090000000 1.0
END
