TITL C-3985259-1859-761 -0.000261292938909406 125000 -335.080436022838 0 0 60 (C1) n - 1
REM
REM in /home/nfs/bkarasulu/CARBON/AIRSS/Generating-Clusters/TERSOFF/Higher-Symm/Only-C60
REM
REM
REM
REM
REM
REM ./C.cell (28575a23ae977d3b5fae324c64b13b57)
REM
REM compiler GCC version 9.2.1 20190827 (Red Hat 9.2.1-1)
REM options -cpp -mtune=generic -march=x86-64 -g -O0 -fpre-include=/usr/include/finclude/math-vector-fortran.h
REM seed -1085218629 1448927253 1452608841 -1029322123 2017503455 -1713660479 -456962074 -757939653 1669402469 163599024 1182534435 -1124425403 -590430155 575529670 1101874834 47823790 -1854575078 -1512442766 -1006954137 867100661 -913700527 1861020317 -415019565 -68898786 1045691883 2045541781 1785234591 449899905 -57758293 -1467517725 -643411538 2051687214 -399044261
REM
CELL 1.54180   50.00000   50.00000   50.00000   90.00000   90.00000   90.00000
LATT -1
SFAC C  
C      1  0.5026430000000  0.5522460000000  0.4913610000000 1.0
C      1  0.4494690000000  0.4746990000000  0.4904330000000 1.0
C      1  0.5456520000000  0.4707480000000  0.4912390000000 1.0
C      1  0.5348700000000  0.4520180000000  0.4690690000000 1.0
C      1  0.5242830000000  0.5544400000000  0.4689760000000 1.0
C      1  0.4397110000000  0.4941950000000  0.4678000000000 1.0
C      1  0.4713440000000  0.5610920000000  0.4927250000000 1.0
C      1  0.4605310000000  0.4436640000000  0.4924000000000 1.0
C      1  0.5685290000000  0.4945570000000  0.4923290000000 1.0
C      1  0.5394180000000  0.5582660000000  0.5275590000000 1.0
C      1  0.4298330000000  0.5055680000000  0.5270770000000 1.0
C      1  0.5303940000000  0.4371500000000  0.5274310000000 1.0
C      1  0.4632990000000  0.5572230000000  0.5224340000000 1.0
C      1  0.4681960000000  0.4399710000000  0.5222410000000 1.0
C      1  0.5686100000000  0.5030230000000  0.5223990000000 1.0
C      1  0.4599970000000  0.4953070000000  0.4469430000000 1.0
C      1  0.5229820000000  0.4686220000000  0.4486730000000 1.0
C      1  0.5155420000000  0.5367130000000  0.4476610000000 1.0
C      1  0.4842750000000  0.4815810000000  0.4902350000000 1.0
C      1  0.5241510000000  0.5000270000000  0.4909500000000 1.0
C      1  0.4920920000000  0.5171740000000  0.4896520000000 1.0
C      1  0.5226970000000  0.4896960000000  0.5246360000000 1.0
C      1  0.4985020000000  0.5239800000000  0.5244180000000 1.0
C      1  0.4808710000000  0.4858920000000  0.5244090000000 1.0
C      1  0.4726680000000  0.4697440000000  0.4362640000000 1.0
C      1  0.5384160000000  0.4918980000000  0.4370140000000 1.0
C      1  0.4873980000000  0.5377680000000  0.4371760000000 1.0
C      1  0.4689830000000  0.4412690000000  0.4438820000000 1.0
C      1  0.5653870000000  0.5025690000000  0.4437520000000 1.0
C      1  0.4653880000000  0.5559920000000  0.4442900000000 1.0
C      1  0.5460050000000  0.4799800000000  0.5636390000000 1.0
C      1  0.4945460000000  0.5494680000000  0.5636820000000 1.0
C      1  0.4591360000000  0.4708260000000  0.5633300000000 1.0
C      1  0.4737790000000  0.5129540000000  0.5386690000000 1.0
C      1  0.5023540000000  0.4704670000000  0.5387230000000 1.0
C      1  0.5254880000000  0.5167780000000  0.5393090000000 1.0
C      1  0.5007620000000  0.4536370000000  0.4990890000000 1.0
C      1  0.5413440000000  0.5257280000000  0.4995110000000 1.0
C      1  0.4589520000000  0.5214120000000  0.4985800000000 1.0
C      1  0.5509770000000  0.5294620000000  0.5285790000000 1.0
C      1  0.4507500000000  0.5282280000000  0.5274300000000 1.0
C      1  0.4998820000000  0.4426030000000  0.5279840000000 1.0
C      1  0.5173990000000  0.4747360000000  0.5648310000000 1.0
C      1  0.5137230000000  0.5276490000000  0.5651470000000 1.0
C      1  0.4695130000000  0.4979340000000  0.5646700000000 1.0
C      1  0.5241040000000  0.5098930000000  0.4562950000000 1.0
C      1  0.4804020000000  0.5151080000000  0.4555370000000 1.0
C      1  0.4950410000000  0.4742920000000  0.4565180000000 1.0
C      1  0.4373230000000  0.4784430000000  0.5183860000000 1.0
C      1  0.5494180000000  0.4578580000000  0.5186810000000 1.0
C      1  0.5119010000000  0.5633270000000  0.5186220000000 1.0
C      1  0.4532900000000  0.5523240000000  0.4705910000000 1.0
C      1  0.4779410000000  0.4331220000000  0.4704220000000 1.0
C      1  0.5692250000000  0.5148150000000  0.4700750000000 1.0
C      1  0.4890230000000  0.5629520000000  0.5382240000000 1.0
C      1  0.4502540000000  0.4593000000000  0.5378590000000 1.0
C      1  0.5606160000000  0.4778800000000  0.5382580000000 1.0
C      1  0.5098510000000  0.4344930000000  0.4775170000000 1.0
C      1  0.5528850000000  0.5428320000000  0.4774080000000 1.0
C      1  0.4379840000000  0.5244070000000  0.4770090000000 1.0
END
