TITL C-3985251-913-718 -8.42052647834591e-08 125000 -273.630903708724 0 0 60 (C6) n - 1
REM
REM in /home/nfs/bkarasulu/CARBON/AIRSS/Generating-Clusters/TERSOFF/Higher-Symm/Only-C60
REM
REM
REM
REM
REM
REM ./C.cell (28575a23ae977d3b5fae324c64b13b57)
REM
REM compiler GCC version 9.2.1 20190827 (Red Hat 9.2.1-1)
REM options -cpp -mtune=generic -march=x86-64 -g -O0 -fpre-include=/usr/include/finclude/math-vector-fortran.h
REM seed 749954778 -1550473408 752946293 1809356868 -477063572 -707078598 578233017 -1390302489 -1652971316 -1105506898 -144660658 -1081304152 -1155893759 240842969 -1125522243 1667523698 -54057587 1485102370 628933561 1814000502 -508228445 -1956467953 -430425520 1586161428 -1891056834 638878200 -918530454 1519953789 -1378700717 569070340 -1993928008 -82609315 1527370933
REM
CELL 1.54180   50.00000   50.00000   50.00000   90.00000   90.00000   90.00000
LATT -1
SFAC C  
C      1  0.4981980000000  0.4303100000000  0.4753650000000 1.0
C      1  0.5594520000000  0.4635940000000  0.4753650000000 1.0
C      1  0.5612550000000  0.5332840000000  0.4753650000000 1.0
C      1  0.5018020000000  0.5696900000000  0.4753650000000 1.0
C      1  0.4405480000000  0.5364060000000  0.4753650000000 1.0
C      1  0.4387450000000  0.4667160000000  0.4753650000000 1.0
C      1  0.5018020000000  0.4303100000000  0.5246350000000 1.0
C      1  0.4405480000000  0.4635940000000  0.5246350000000 1.0
C      1  0.4387450000000  0.5332840000000  0.5246350000000 1.0
C      1  0.4981980000000  0.5696900000000  0.5246350000000 1.0
C      1  0.5594520000000  0.5364060000000  0.5246350000000 1.0
C      1  0.5612550000000  0.4667160000000  0.5246350000000 1.0
C      1  0.5245000000000  0.5264140000000  0.4311680000000 1.0
C      1  0.4893750000000  0.5344250000000  0.4311680000000 1.0
C      1  0.4648750000000  0.5080110000000  0.4311680000000 1.0
C      1  0.4755000000000  0.4735860000000  0.4311680000000 1.0
C      1  0.5106250000000  0.4655750000000  0.4311680000000 1.0
C      1  0.5351250000000  0.4919890000000  0.4311680000000 1.0
C      1  0.4755000000000  0.5264140000000  0.5688320000000 1.0
C      1  0.5106250000000  0.5344250000000  0.5688320000000 1.0
C      1  0.5351250000000  0.5080110000000  0.5688320000000 1.0
C      1  0.5245000000000  0.4735860000000  0.5688320000000 1.0
C      1  0.4893750000000  0.4655750000000  0.5688320000000 1.0
C      1  0.4648750000000  0.4919890000000  0.5688320000000 1.0
C      1  0.4849710000000  0.4725990000000  0.4832700000000 1.0
C      1  0.5162150000000  0.4732840000000  0.4832700000000 1.0
C      1  0.5312440000000  0.5006850000000  0.4832700000000 1.0
C      1  0.5150290000000  0.5274010000000  0.4832700000000 1.0
C      1  0.4837850000000  0.5267160000000  0.4832700000000 1.0
C      1  0.4687560000000  0.4993150000000  0.4832700000000 1.0
C      1  0.5150290000000  0.4725990000000  0.5167300000000 1.0
C      1  0.4837850000000  0.4732840000000  0.5167300000000 1.0
C      1  0.4687560000000  0.5006850000000  0.5167300000000 1.0
C      1  0.4849710000000  0.5274010000000  0.5167300000000 1.0
C      1  0.5162150000000  0.5267160000000  0.5167300000000 1.0
C      1  0.5312440000000  0.4993150000000  0.5167300000000 1.0
C      1  0.5109710000000  0.5459350000000  0.4576990000000 1.0
C      1  0.4657050000000  0.5324680000000  0.4576990000000 1.0
C      1  0.4547340000000  0.4865330000000  0.4576990000000 1.0
C      1  0.4890290000000  0.4540650000000  0.4576990000000 1.0
C      1  0.5342950000000  0.4675320000000  0.4576990000000 1.0
C      1  0.5452660000000  0.5134670000000  0.4576990000000 1.0
C      1  0.4890290000000  0.5459350000000  0.5423010000000 1.0
C      1  0.5342950000000  0.5324680000000  0.5423010000000 1.0
C      1  0.5452660000000  0.4865330000000  0.5423010000000 1.0
C      1  0.5109710000000  0.4540650000000  0.5423010000000 1.0
C      1  0.4657050000000  0.4675320000000  0.5423010000000 1.0
C      1  0.4547340000000  0.5134670000000  0.5423010000000 1.0
C      1  0.4290770000000  0.4844940000000  0.5002060000000 1.0
C      1  0.4779670000000  0.4308260000000  0.5002060000000 1.0
C      1  0.5488900000000  0.4463320000000  0.5002060000000 1.0
C      1  0.5709230000000  0.5155060000000  0.5002060000000 1.0
C      1  0.5220330000000  0.5691740000000  0.5002060000000 1.0
C      1  0.4511100000000  0.5536680000000  0.5002060000000 1.0
C      1  0.5709230000000  0.4844940000000  0.4997940000000 1.0
C      1  0.5220330000000  0.4308260000000  0.4997940000000 1.0
C      1  0.4511100000000  0.4463320000000  0.4997940000000 1.0
C      1  0.4290770000000  0.5155060000000  0.4997940000000 1.0
C      1  0.4779670000000  0.5691740000000  0.4997940000000 1.0
C      1  0.5488900000000  0.5536680000000  0.4997940000000 1.0
END
