TITL C-3985259-1859-503 0.0120675321305934 125000 -321.963650886288 0 0 60 (Cs) n - 1
REM
REM in /home/nfs/bkarasulu/CARBON/AIRSS/Generating-Clusters/TERSOFF/Higher-Symm/Only-C60
REM
REM
REM
REM
REM
REM ./C.cell (28575a23ae977d3b5fae324c64b13b57)
REM
REM compiler GCC version 9.2.1 20190827 (Red Hat 9.2.1-1)
REM options -cpp -mtune=generic -march=x86-64 -g -O0 -fpre-include=/usr/include/finclude/math-vector-fortran.h
REM seed -1324100241 1924838340 8158252 1727686850 10039448 1231775482 1857715548 -1299295490 1676938774 1864665236 218854172 -1937377371 -1862781620 1123177073 1425493690 -1025346016 199863969 696102169 1676265210 1687062783 1531266658 1319509610 1692996254 -1918615120 2011300715 455946154 852950906 -1448230346 1442391593 495822790 694132412 1954237147 734951593
REM
CELL 1.54180   50.00000   50.00000   50.00000   90.00000   90.00000   90.00000
LATT -1
SFAC C  
C      1  0.4686560000000  0.4726850000000  0.4558240000000 1.0
C      1  0.4686560000000  0.5273150000000  0.4558240000000 1.0
C      1  0.5252770000000  0.4470610000000  0.4788580000000 1.0
C      1  0.5252770000000  0.5529390000000  0.4788580000000 1.0
C      1  0.4636560000000  0.4444360000000  0.5437200000000 1.0
C      1  0.4636560000000  0.5555640000000  0.5437200000000 1.0
C      1  0.4984230000000  0.4355810000000  0.4695870000000 1.0
C      1  0.4984230000000  0.5644190000000  0.4695870000000 1.0
C      1  0.4409240000000  0.5361070000000  0.4640150000000 1.0
C      1  0.4409240000000  0.4638930000000  0.4640150000000 1.0
C      1  0.5503650000000  0.4681480000000  0.4635180000000 1.0
C      1  0.5503650000000  0.5318520000000  0.4635180000000 1.0
C      1  0.5305180000000  0.4283890000000  0.5423510000000 1.0
C      1  0.5305180000000  0.5716110000000  0.5423510000000 1.0
C      1  0.4802410000000  0.4843940000000  0.5692700000000 1.0
C      1  0.4802410000000  0.5156060000000  0.5692700000000 1.0
C      1  0.4866440000000  0.5488180000000  0.4474630000000 1.0
C      1  0.4866440000000  0.4511820000000  0.4474630000000 1.0
C      1  0.5015660000000  0.4694200000000  0.5296080000000 1.0
C      1  0.5015660000000  0.5305800000000  0.5296080000000 1.0
C      1  0.5206970000000  0.5161690000000  0.5123210000000 1.0
C      1  0.5206970000000  0.4838310000000  0.5123210000000 1.0
C      1  0.5597150000000  0.4843030000000  0.4368640000000 1.0
C      1  0.5597150000000  0.5156970000000  0.4368640000000 1.0
C      1  0.4787860000000  0.5153040000000  0.4826530000000 1.0
C      1  0.4787860000000  0.4846960000000  0.4826530000000 1.0
C      1  0.4775940000000  0.5491230000000  0.5167880000000 1.0
C      1  0.4775940000000  0.4508770000000  0.5167880000000 1.0
C      1  0.5234000000000  0.5150370000000  0.4614470000000 1.0
C      1  0.5234000000000  0.4849630000000  0.4614470000000 1.0
C      1  0.4338870000000  0.4842100000000  0.4859520000000 1.0
C      1  0.4338870000000  0.5157900000000  0.4859520000000 1.0
C      1  0.5294530000000  0.5140980000000  0.5675670000000 1.0
C      1  0.5294530000000  0.4859020000000  0.5675670000000 1.0
C      1  0.5478950000000  0.4703870000000  0.5157390000000 1.0
C      1  0.5478950000000  0.5296130000000  0.5157390000000 1.0
C      1  0.5374990000000  0.4751580000000  0.4184970000000 1.0
C      1  0.5374990000000  0.5248420000000  0.4184970000000 1.0
C      1  0.5060060000000  0.4703400000000  0.5596110000000 1.0
C      1  0.5060060000000  0.5296600000000  0.5596110000000 1.0
C      1  0.4471170000000  0.5142510000000  0.5336160000000 1.0
C      1  0.4471170000000  0.4857490000000  0.5336160000000 1.0
C      1  0.5111700000000  0.4836800000000  0.4309200000000 1.0
C      1  0.5111700000000  0.5163200000000  0.4309200000000 1.0
C      1  0.5086440000000  0.5244270000000  0.4858920000000 1.0
C      1  0.5086440000000  0.4755730000000  0.4858920000000 1.0
C      1  0.5127420000000  0.5585990000000  0.5614710000000 1.0
C      1  0.5127420000000  0.4414010000000  0.5614710000000 1.0
C      1  0.4757970000000  0.4337160000000  0.4902470000000 1.0
C      1  0.4757970000000  0.5662840000000  0.4902470000000 1.0
C      1  0.5501980000000  0.4424300000000  0.5253090000000 1.0
C      1  0.5501980000000  0.5575700000000  0.5253090000000 1.0
C      1  0.4561440000000  0.5257600000000  0.5073070000000 1.0
C      1  0.4561440000000  0.4742400000000  0.5073070000000 1.0
C      1  0.4487610000000  0.5628640000000  0.4768380000000 1.0
C      1  0.4487610000000  0.4371360000000  0.4768380000000 1.0
C      1  0.4566810000000  0.4705590000000  0.5572600000000 1.0
C      1  0.4566810000000  0.5294410000000  0.5572600000000 1.0
C      1  0.5715470000000  0.4857470000000  0.5094870000000 1.0
C      1  0.5715470000000  0.5142530000000  0.5094870000000 1.0
END
