TITL C-3985253-1688-698 5.80489007752365e-08 125000 -273.62281914837 0 0 60 (D2h) n - 1
REM
REM in /home/nfs/bkarasulu/CARBON/AIRSS/Generating-Clusters/TERSOFF/Higher-Symm/Only-C60
REM
REM
REM
REM
REM
REM ./C.cell (28575a23ae977d3b5fae324c64b13b57)
REM
REM compiler GCC version 9.2.1 20190827 (Red Hat 9.2.1-1)
REM options -cpp -mtune=generic -march=x86-64 -g -O0 -fpre-include=/usr/include/finclude/math-vector-fortran.h
REM seed 2043328737 879340073 970494776 -1900434557 -50803434 592151730 797751937 1495703599 -531244444 -1846938747 1480037388 1683676399 -1860777537 -404457022 -2042820704 -1735238703 -1690162288 -721030466 1974983798 1358390095 2065959117 58695913 -1456588979 1434994593 1039820321 -1742745470 -1712312200 -841795567 1985550798 396732077 -1617062969 -627677833 -404171588
REM
CELL 1.54180   50.00000   50.00000   50.00000   90.00000   90.00000   90.00000
LATT -1
SFAC C  
C      1  0.5472970000000  0.5183790000000  0.5282690000000 1.0
C      1  0.5472970000000  0.4816210000000  0.4717310000000 1.0
C      1  0.4527030000000  0.5183790000000  0.5282690000000 1.0
C      1  0.4527030000000  0.4816210000000  0.4717310000000 1.0
C      1  0.5472970000000  0.4816210000000  0.5282690000000 1.0
C      1  0.5472970000000  0.5183790000000  0.4717310000000 1.0
C      1  0.4527030000000  0.4816210000000  0.5282690000000 1.0
C      1  0.4527030000000  0.5183790000000  0.4717310000000 1.0
C      1  0.5167830000000  0.4839470000000  0.5457790000000 1.0
C      1  0.5167830000000  0.5160530000000  0.4542210000000 1.0
C      1  0.4832170000000  0.4839470000000  0.5457790000000 1.0
C      1  0.4832170000000  0.5160530000000  0.4542210000000 1.0
C      1  0.5167830000000  0.5160530000000  0.5457790000000 1.0
C      1  0.5167830000000  0.4839470000000  0.4542210000000 1.0
C      1  0.4832170000000  0.5160530000000  0.5457790000000 1.0
C      1  0.4832170000000  0.4839470000000  0.4542210000000 1.0
C      1  0.5158250000000  0.5651930000000  0.4834350000000 1.0
C      1  0.5158250000000  0.4348070000000  0.5165650000000 1.0
C      1  0.4841750000000  0.5651930000000  0.4834350000000 1.0
C      1  0.4841750000000  0.4348070000000  0.5165650000000 1.0
C      1  0.5158250000000  0.4348070000000  0.4834350000000 1.0
C      1  0.5158250000000  0.5651930000000  0.5165650000000 1.0
C      1  0.4841750000000  0.4348070000000  0.4834350000000 1.0
C      1  0.4841750000000  0.5651930000000  0.5165650000000 1.0
C      1  0.5160560000000  0.4490280000000  0.4311850000000 1.0
C      1  0.5160560000000  0.5509720000000  0.5688150000000 1.0
C      1  0.4839440000000  0.4490280000000  0.4311850000000 1.0
C      1  0.4839440000000  0.5509720000000  0.5688150000000 1.0
C      1  0.5160560000000  0.5509720000000  0.4311850000000 1.0
C      1  0.5160560000000  0.4490280000000  0.5688150000000 1.0
C      1  0.4839440000000  0.5509720000000  0.4311850000000 1.0
C      1  0.4839440000000  0.4490280000000  0.5688150000000 1.0
C      1  0.4712960000000  0.4515760000000  0.4623190000000 1.0
C      1  0.4712960000000  0.5484240000000  0.5376810000000 1.0
C      1  0.5287040000000  0.4515760000000  0.4623190000000 1.0
C      1  0.5287040000000  0.5484240000000  0.5376810000000 1.0
C      1  0.4712960000000  0.5484240000000  0.4623190000000 1.0
C      1  0.4712960000000  0.4515760000000  0.5376810000000 1.0
C      1  0.5287040000000  0.5484240000000  0.4623190000000 1.0
C      1  0.5287040000000  0.4515760000000  0.5376810000000 1.0
C      1  0.5728980000000  0.4714690000000  0.4855580000000 1.0
C      1  0.5728980000000  0.5285310000000  0.5144420000000 1.0
C      1  0.4271020000000  0.4714690000000  0.4855580000000 1.0
C      1  0.4271020000000  0.5285310000000  0.5144420000000 1.0
C      1  0.5728980000000  0.5285310000000  0.4855580000000 1.0
C      1  0.5728980000000  0.4714690000000  0.5144420000000 1.0
C      1  0.4271020000000  0.5285310000000  0.4855580000000 1.0
C      1  0.4271020000000  0.4714690000000  0.5144420000000 1.0
C      1  0.4822330000000  0.5180450000000  0.5806840000000 1.0
C      1  0.4822330000000  0.4819550000000  0.4193160000000 1.0
C      1  0.5177670000000  0.5180450000000  0.5806840000000 1.0
C      1  0.5177670000000  0.4819550000000  0.4193160000000 1.0
C      1  0.4822330000000  0.4819550000000  0.5806840000000 1.0
C      1  0.4822330000000  0.5180450000000  0.4193160000000 1.0
C      1  0.5177670000000  0.4819550000000  0.5806840000000 1.0
C      1  0.5177670000000  0.5180450000000  0.4193160000000 1.0
C      1  0.4691230000000  0.5150510000000  0.5000000000000 1.0
C      1  0.5308770000000  0.4849490000000  0.5000000000000 1.0
C      1  0.5308770000000  0.5150510000000  0.5000000000000 1.0
C      1  0.4691230000000  0.4849490000000  0.5000000000000 1.0
END
