TITL C-3985250-725-1095 1.0658017848878e-06 125000 -327.432667982507 0 0 60 (Ci) n - 1
REM
REM in /home/nfs/bkarasulu/CARBON/AIRSS/Generating-Clusters/TERSOFF/Higher-Symm/Only-C60
REM
REM
REM
REM
REM
REM ./C.cell (28575a23ae977d3b5fae324c64b13b57)
REM
REM compiler GCC version 9.2.1 20190827 (Red Hat 9.2.1-1)
REM options -cpp -mtune=generic -march=x86-64 -g -O0 -fpre-include=/usr/include/finclude/math-vector-fortran.h
REM seed -1725312173 -659217802 482158904 1917316109 -1288222075 392093819 1014904406 710774152 550096498 -1425796997 1565403978 1035912153 -1099734229 -387201418 -442425724 688741339 1540528795 1981580394 -354720271 -539087514 1376279967 -1451065016 449995476 -88026039 -154639541 835570844 -280138123 -1118933671 -810732812 444540528 -703045960 908161215 -42645049
REM
CELL 1.54180   50.00000   50.00000   50.00000   90.00000   90.00000   90.00000
LATT -1
SFAC C  
C      1  0.5173800000000  0.5739680000000  0.5335080000000 1.0
C      1  0.4826200000000  0.4260320000000  0.4664920000000 1.0
C      1  0.5103460000000  0.5229780000000  0.5562020000000 1.0
C      1  0.4896540000000  0.4770220000000  0.4437980000000 1.0
C      1  0.4996660000000  0.5495620000000  0.5348560000000 1.0
C      1  0.5003340000000  0.4504380000000  0.4651440000000 1.0
C      1  0.4671560000000  0.4815860000000  0.5738660000000 1.0
C      1  0.5328440000000  0.5184140000000  0.4261340000000 1.0
C      1  0.4570050000000  0.4576780000000  0.4975310000000 1.0
C      1  0.5429950000000  0.5423220000000  0.5024690000000 1.0
C      1  0.4406730000000  0.4954510000000  0.4451310000000 1.0
C      1  0.5593270000000  0.5045490000000  0.5548690000000 1.0
C      1  0.4642080000000  0.5004200000000  0.5519790000000 1.0
C      1  0.5357920000000  0.4995800000000  0.4480210000000 1.0
C      1  0.5507090000000  0.5467280000000  0.5317260000000 1.0
C      1  0.4492910000000  0.4532720000000  0.4682740000000 1.0
C      1  0.4695300000000  0.4634410000000  0.5262340000000 1.0
C      1  0.5304700000000  0.5365590000000  0.4737660000000 1.0
C      1  0.4579900000000  0.5148570000000  0.4311740000000 1.0
C      1  0.5420100000000  0.4851430000000  0.5688260000000 1.0
C      1  0.4985670000000  0.5448640000000  0.5049900000000 1.0
C      1  0.5014330000000  0.4551360000000  0.4950100000000 1.0
C      1  0.4682140000000  0.4926380000000  0.4960840000000 1.0
C      1  0.5317860000000  0.5073620000000  0.5039160000000 1.0
C      1  0.4729220000000  0.5288880000000  0.4542740000000 1.0
C      1  0.5270780000000  0.4711120000000  0.5457260000000 1.0
C      1  0.4849220000000  0.5033090000000  0.4208550000000 1.0
C      1  0.5150780000000  0.4966910000000  0.5791450000000 1.0
C      1  0.4533000000000  0.5384470000000  0.4742090000000 1.0
C      1  0.5467000000000  0.4615530000000  0.5257910000000 1.0
C      1  0.4778370000000  0.5820540000000  0.4862280000000 1.0
C      1  0.5221630000000  0.4179460000000  0.5137720000000 1.0
C      1  0.5052030000000  0.4541400000000  0.5583090000000 1.0
C      1  0.4947970000000  0.5458600000000  0.4416910000000 1.0
C      1  0.4802360000000  0.4919760000000  0.5266410000000 1.0
C      1  0.5197640000000  0.5080240000000  0.4733590000000 1.0
C      1  0.4678740000000  0.5489670000000  0.5391860000000 1.0
C      1  0.5321260000000  0.4510330000000  0.4608140000000 1.0
C      1  0.5547340000000  0.4844510000000  0.5045250000000 1.0
C      1  0.4452660000000  0.5155490000000  0.4954750000000 1.0
C      1  0.4543440000000  0.5653800000000  0.4891150000000 1.0
C      1  0.5456560000000  0.4346200000000  0.5108850000000 1.0
C      1  0.4745650000000  0.5264600000000  0.5591730000000 1.0
C      1  0.5254350000000  0.4735400000000  0.4408270000000 1.0
C      1  0.5291140000000  0.5736370000000  0.5057810000000 1.0
C      1  0.4708860000000  0.4263630000000  0.4942190000000 1.0
C      1  0.5140170000000  0.5570050000000  0.4605190000000 1.0
C      1  0.4859830000000  0.4429950000000  0.5394810000000 1.0
C      1  0.4496840000000  0.5456730000000  0.5153650000000 1.0
C      1  0.5503170000000  0.4543270000000  0.4846350000000 1.0
C      1  0.4956310000000  0.4307810000000  0.5142710000000 1.0
C      1  0.5043690000000  0.5692190000000  0.4857290000000 1.0
C      1  0.5054810000000  0.5264830000000  0.4208320000000 1.0
C      1  0.4945190000000  0.4735170000000  0.5791680000000 1.0
C      1  0.4884390000000  0.5019530000000  0.4692940000000 1.0
C      1  0.5115610000000  0.4980470000000  0.5307060000000 1.0
C      1  0.5428180000000  0.5288650000000  0.5524470000000 1.0
C      1  0.4571820000000  0.4711350000000  0.4475530000000 1.0
C      1  0.5719480000000  0.4949180000000  0.5294140000000 1.0
C      1  0.4280520000000  0.5050820000000  0.4705860000000 1.0
END
