TITL C-3985253-1688-127 -5.34982972146132e-07 125000 -305.140670758556 0 0 60 (D4) n - 1
REM
REM in /home/nfs/bkarasulu/CARBON/AIRSS/Generating-Clusters/TERSOFF/Higher-Symm/Only-C60
REM
REM
REM
REM
REM
REM ./C.cell (28575a23ae977d3b5fae324c64b13b57)
REM
REM compiler GCC version 9.2.1 20190827 (Red Hat 9.2.1-1)
REM options -cpp -mtune=generic -march=x86-64 -g -O0 -fpre-include=/usr/include/finclude/math-vector-fortran.h
REM seed -1266476561 1496050054 954243039 2042448139 -1014888867 1197809298 486449625 1466821270 -605226748 721099701 -61167416 943508248 968685312 -1954621601 224351112 1911257225 85531481 -200174454 -1931099597 344210431 -1639786300 270571175 -1186794881 -416250131 -1805701692 -355247398 -397653914 -265939960 -1548049564 2061516782 -1055020801 -787852826 761636553
REM
CELL 1.54180   50.00000   50.00000   50.00000   90.00000   90.00000   90.00000
LATT -1
SFAC C  
C      1  0.5466080000000  0.4350650000000  0.4937060000000 1.0
C      1  0.5649350000000  0.5466080000000  0.4937060000000 1.0
C      1  0.4533920000000  0.5649350000000  0.4937060000000 1.0
C      1  0.4350650000000  0.4533920000000  0.4937060000000 1.0
C      1  0.4533920000000  0.4350660000000  0.5090910000000 1.0
C      1  0.4350660000000  0.5466080000000  0.5090910000000 1.0
C      1  0.5466080000000  0.5649340000000  0.5090910000000 1.0
C      1  0.5649340000000  0.4533920000000  0.5090910000000 1.0
C      1  0.4680810000000  0.4826000000000  0.5131140000000 1.0
C      1  0.5174000000000  0.4680810000000  0.5131140000000 1.0
C      1  0.5319190000000  0.5174000000000  0.5131140000000 1.0
C      1  0.4826000000000  0.5319190000000  0.5131140000000 1.0
C      1  0.5319190000000  0.4826000000000  0.4896830000000 1.0
C      1  0.4826000000000  0.4680810000000  0.4896830000000 1.0
C      1  0.4680810000000  0.5174000000000  0.4896830000000 1.0
C      1  0.5174000000000  0.5319190000000  0.4896830000000 1.0
C      1  0.4533760000000  0.4628270000000  0.4692220000000 1.0
C      1  0.5371730000000  0.4533760000000  0.4692220000000 1.0
C      1  0.5466240000000  0.5371730000000  0.4692220000000 1.0
C      1  0.4628270000000  0.5466240000000  0.4692220000000 1.0
C      1  0.5466240000000  0.4628270000000  0.5335760000000 1.0
C      1  0.4628270000000  0.4533760000000  0.5335760000000 1.0
C      1  0.4533760000000  0.5371730000000  0.5335760000000 1.0
C      1  0.5371730000000  0.5466240000000  0.5335760000000 1.0
C      1  0.4758350000000  0.5743630000000  0.5115880000000 1.0
C      1  0.4256370000000  0.4758350000000  0.5115880000000 1.0
C      1  0.5241650000000  0.4256370000000  0.5115880000000 1.0
C      1  0.5743630000000  0.5241650000000  0.5115880000000 1.0
C      1  0.5241650000000  0.5743630000000  0.4912100000000 1.0
C      1  0.5743630000000  0.4758350000000  0.4912100000000 1.0
C      1  0.4758350000000  0.4256370000000  0.4912100000000 1.0
C      1  0.4256370000000  0.5241650000000  0.4912100000000 1.0
C      1  0.5063730000000  0.4491240000000  0.4534590000000 1.0
C      1  0.5508760000000  0.5063730000000  0.4534590000000 1.0
C      1  0.4936270000000  0.5508760000000  0.4534590000000 1.0
C      1  0.4491240000000  0.4936270000000  0.4534590000000 1.0
C      1  0.4936270000000  0.4491240000000  0.5493380000000 1.0
C      1  0.4491240000000  0.5063730000000  0.5493380000000 1.0
C      1  0.5063730000000  0.5508760000000  0.5493380000000 1.0
C      1  0.5508760000000  0.4936270000000  0.5493380000000 1.0
C      1  0.5221870000000  0.5012780000000  0.5389800000000 1.0
C      1  0.4987220000000  0.5221870000000  0.5389800000000 1.0
C      1  0.4778130000000  0.4987220000000  0.5389800000000 1.0
C      1  0.5012780000000  0.4778130000000  0.5389800000000 1.0
C      1  0.4778130000000  0.5012780000000  0.4638180000000 1.0
C      1  0.5012780000000  0.5221870000000  0.4638180000000 1.0
C      1  0.5221870000000  0.4987220000000  0.4638180000000 1.0
C      1  0.4987220000000  0.4778130000000  0.4638180000000 1.0
C      1  0.4766480000000  0.4373840000000  0.4617500000000 1.0
C      1  0.5626160000000  0.4766480000000  0.4617500000000 1.0
C      1  0.5233520000000  0.5626160000000  0.4617500000000 1.0
C      1  0.4373840000000  0.5233520000000  0.4617500000000 1.0
C      1  0.5233520000000  0.4373840000000  0.5410470000000 1.0
C      1  0.4373840000000  0.4766480000000  0.5410470000000 1.0
C      1  0.4766480000000  0.5626160000000  0.5410470000000 1.0
C      1  0.5626160000000  0.5233520000000  0.5410470000000 1.0
C      1  0.5000000000000  0.5580630000000  0.5013990000000 1.0
C      1  0.4419370000000  0.5000000000000  0.5013990000000 1.0
C      1  0.5000000000000  0.4419370000000  0.5013990000000 1.0
C      1  0.5580630000000  0.5000000000000  0.5013990000000 1.0
END
