TITL C-3985247-764-546 -0.000985655887043776 125000 -330.533860570465 0 0 60 (C2) n - 1
REM
REM in /home/nfs/bkarasulu/CARBON/AIRSS/Generating-Clusters/TERSOFF/Higher-Symm/Only-C60
REM
REM
REM
REM
REM
REM ./C.cell (28575a23ae977d3b5fae324c64b13b57)
REM
REM compiler GCC version 9.2.1 20190827 (Red Hat 9.2.1-1)
REM options -cpp -mtune=generic -march=x86-64 -g -O0 -fpre-include=/usr/include/finclude/math-vector-fortran.h
REM seed 1172161302 -2068434067 9985185 -1939847596 1021116199 -1514019296 846471502 -1205584069 -1537440587 -910683090 -634052756 146515189 -1634563529 -1030271180 -907327648 789183675 33492187 -918825136 1859606310 -1159200052 583616138 -1781444899 -1646450385 2131641442 -1149687023 1581401705 -175871782 1760399161 459163554 1115080835 949321341 1497608340 1409962357
REM
CELL 1.54180   50.00000   50.00000   50.00000   90.00000   90.00000   90.00000
LATT -1
SFAC C  
C      1  0.4930460000000  0.5022950000000  0.5322490000000 1.0
C      1  0.4930460000000  0.4977050000000  0.4677510000000 1.0
C      1  0.5587420000000  0.5205880000000  0.5206710000000 1.0
C      1  0.5587420000000  0.4794120000000  0.4793290000000 1.0
C      1  0.5234840000000  0.4729920000000  0.4388380000000 1.0
C      1  0.5234840000000  0.5270080000000  0.5611620000000 1.0
C      1  0.5722940000000  0.5248030000000  0.4932310000000 1.0
C      1  0.5722940000000  0.4751970000000  0.5067690000000 1.0
C      1  0.4750040000000  0.4607920000000  0.5046690000000 1.0
C      1  0.4750040000000  0.5392080000000  0.4953310000000 1.0
C      1  0.4660260000000  0.5568980000000  0.5322750000000 1.0
C      1  0.4660260000000  0.4431020000000  0.4677250000000 1.0
C      1  0.5293790000000  0.5234860000000  0.5051410000000 1.0
C      1  0.5293790000000  0.4765140000000  0.4948590000000 1.0
C      1  0.4939240000000  0.4441860000000  0.4822820000000 1.0
C      1  0.4939240000000  0.5558140000000  0.5177180000000 1.0
C      1  0.5067080000000  0.4733070000000  0.4773210000000 1.0
C      1  0.5067080000000  0.5266930000000  0.5226790000000 1.0
C      1  0.5309860000000  0.4978250000000  0.5685630000000 1.0
C      1  0.5309860000000  0.5021750000000  0.4314370000000 1.0
C      1  0.5067510000000  0.5195420000000  0.4255200000000 1.0
C      1  0.5067510000000  0.4804580000000  0.5744800000000 1.0
C      1  0.4294730000000  0.5226290000000  0.4938950000000 1.0
C      1  0.4294730000000  0.4773710000000  0.5061050000000 1.0
C      1  0.5652620000000  0.4927370000000  0.5297550000000 1.0
C      1  0.5652620000000  0.5072630000000  0.4702450000000 1.0
C      1  0.4482690000000  0.4828230000000  0.4443060000000 1.0
C      1  0.4482690000000  0.5171770000000  0.5556940000000 1.0
C      1  0.4579020000000  0.5070390000000  0.4284980000000 1.0
C      1  0.4579020000000  0.4929610000000  0.5715020000000 1.0
C      1  0.4863240000000  0.5026870000000  0.4378350000000 1.0
C      1  0.4863240000000  0.4973130000000  0.5621650000000 1.0
C      1  0.4701920000000  0.5089300000000  0.5119070000000 1.0
C      1  0.4701920000000  0.4910700000000  0.4880930000000 1.0
C      1  0.5023260000000  0.4578850000000  0.5526780000000 1.0
C      1  0.5023260000000  0.5421150000000  0.4473220000000 1.0
C      1  0.4534950000000  0.5240830000000  0.4536510000000 1.0
C      1  0.4534950000000  0.4759170000000  0.5463490000000 1.0
C      1  0.5178600000000  0.5165510000000  0.4772850000000 1.0
C      1  0.5178600000000  0.4834490000000  0.5227150000000 1.0
C      1  0.5412380000000  0.5424050000000  0.5406330000000 1.0
C      1  0.5412380000000  0.4575950000000  0.4593670000000 1.0
C      1  0.5268800000000  0.4366520000000  0.4798320000000 1.0
C      1  0.5268800000000  0.5633480000000  0.5201680000000 1.0
C      1  0.5488320000000  0.4807630000000  0.5509020000000 1.0
C      1  0.5488320000000  0.5192370000000  0.4490980000000 1.0
C      1  0.4430180000000  0.4989700000000  0.5258290000000 1.0
C      1  0.4430180000000  0.5010300000000  0.4741710000000 1.0
C      1  0.4953700000000  0.4619430000000  0.4294990000000 1.0
C      1  0.4953700000000  0.5380570000000  0.5705010000000 1.0
C      1  0.4679740000000  0.5395560000000  0.5552970000000 1.0
C      1  0.4679740000000  0.4604440000000  0.4447030000000 1.0
C      1  0.5379940000000  0.5545750000000  0.4906620000000 1.0
C      1  0.5379940000000  0.4454250000000  0.5093380000000 1.0
C      1  0.4450700000000  0.5466570000000  0.5071820000000 1.0
C      1  0.4450700000000  0.4533430000000  0.4928180000000 1.0
C      1  0.5297090000000  0.5416560000000  0.4611910000000 1.0
C      1  0.5297090000000  0.4583440000000  0.5388090000000 1.0
C      1  0.4764680000000  0.4602660000000  0.5355880000000 1.0
C      1  0.4764680000000  0.5397340000000  0.4644120000000 1.0
END
