TITL C-3985244-725-368 0.00101907649017028 125000 -320.400178694065 0 0 60 (C3) n - 1
REM
REM in /home/nfs/bkarasulu/CARBON/AIRSS/Generating-Clusters/TERSOFF/Higher-Symm/Only-C60
REM
REM
REM
REM
REM
REM ./C.cell (28575a23ae977d3b5fae324c64b13b57)
REM
REM compiler GCC version 9.2.1 20190827 (Red Hat 9.2.1-1)
REM options -cpp -mtune=generic -march=x86-64 -g -O0 -fpre-include=/usr/include/finclude/math-vector-fortran.h
REM seed 2053710992 1952465232 -1597949400 -220211295 779921091 38150244 520166135 1988291947 -408588246 -288623864 1370586600 1043400623 -634469873 -1046981074 -1539636367 1619735061 -1392019042 43835139 -169178028 -264421438 76641136 1388703272 1738023763 281086874 1598072018 1726442077 -753096655 -2104014830 471628804 -507338660 984531923 1406297817 -1430243416
REM
CELL 1.54180   50.00000   50.00000   50.00000   90.00000   90.00000   90.00000
LATT -1
SFAC C  
C      1  0.4620940000000  0.5451930000000  0.4526500000000 1.0
C      1  0.5580840000000  0.5101920000000  0.4526660000000 1.0
C      1  0.4797980000000  0.4445460000000  0.4526860000000 1.0
C      1  0.5139440000000  0.5317190000000  0.5050170000000 1.0
C      1  0.5205390000000  0.4720550000000  0.5050420000000 1.0
C      1  0.4655540000000  0.4961860000000  0.5050300000000 1.0
C      1  0.5599130000000  0.5376720000000  0.4999220000000 1.0
C      1  0.5026580000000  0.4292510000000  0.4999610000000 1.0
C      1  0.4373970000000  0.5330710000000  0.4999070000000 1.0
C      1  0.4748890000000  0.5119210000000  0.4827970000000 1.0
C      1  0.5228540000000  0.5158670000000  0.4827290000000 1.0
C      1  0.5023520000000  0.4722580000000  0.4827350000000 1.0
C      1  0.4265280000000  0.4832600000000  0.4869420000000 1.0
C      1  0.5221460000000  0.5719960000000  0.4869770000000 1.0
C      1  0.5512410000000  0.4447200000000  0.4869580000000 1.0
C      1  0.5139520000000  0.5599490000000  0.4585300000000 1.0
C      1  0.5449780000000  0.4579090000000  0.4585420000000 1.0
C      1  0.4410870000000  0.4820710000000  0.4585340000000 1.0
C      1  0.4960010000000  0.5632750000000  0.5312480000000 1.0
C      1  0.5566830000000  0.4718550000000  0.5311160000000 1.0
C      1  0.4472930000000  0.4649990000000  0.5311070000000 1.0
C      1  0.4409660000000  0.4606470000000  0.5029610000000 1.0
C      1  0.4953570000000  0.5712820000000  0.5031440000000 1.0
C      1  0.5636250000000  0.4685280000000  0.5029710000000 1.0
C      1  0.4374310000000  0.5404190000000  0.4700140000000 1.0
C      1  0.5662610000000  0.5339370000000  0.4700380000000 1.0
C      1  0.4962480000000  0.4255940000000  0.4700810000000 1.0
C      1  0.4774000000000  0.5086950000000  0.5293940000000 1.0
C      1  0.5188610000000  0.5152380000000  0.5293820000000 1.0
C      1  0.5037660000000  0.4760610000000  0.5293940000000 1.0
C      1  0.5297790000000  0.5054970000000  0.4426990000000 1.0
C      1  0.4899030000000  0.4713960000000  0.4427020000000 1.0
C      1  0.4803050000000  0.5229940000000  0.4427230000000 1.0
C      1  0.4741160000000  0.5435580000000  0.5369510000000 1.0
C      1  0.5506250000000  0.5006380000000  0.5369490000000 1.0
C      1  0.4752420000000  0.4558480000000  0.5369600000000 1.0
C      1  0.4849360000000  0.4710330000000  0.5664570000000 1.0
C      1  0.4824330000000  0.5275380000000  0.5664440000000 1.0
C      1  0.5326300000000  0.5014560000000  0.5664510000000 1.0
C      1  0.5173740000000  0.4745440000000  0.5593180000000 1.0
C      1  0.4692640000000  0.4977000000000  0.5593100000000 1.0
C      1  0.5133650000000  0.5277820000000  0.5592920000000 1.0
C      1  0.5359600000000  0.5536800000000  0.5080000000000 1.0
C      1  0.5285000000000  0.4419790000000  0.5080220000000 1.0
C      1  0.4355260000000  0.5043340000000  0.5079910000000 1.0
C      1  0.5186340000000  0.4768490000000  0.4518820000000 1.0
C      1  0.4706650000000  0.4953860000000  0.4518700000000 1.0
C      1  0.5106880000000  0.5276550000000  0.4518520000000 1.0
C      1  0.4532410000000  0.4530610000000  0.4635880000000 1.0
C      1  0.4827900000000  0.5635810000000  0.4638920000000 1.0
C      1  0.5640030000000  0.4829530000000  0.4635980000000 1.0
C      1  0.4488550000000  0.5504570000000  0.5208680000000 1.0
C      1  0.5692320000000  0.5190830000000  0.5209040000000 1.0
C      1  0.4819020000000  0.4304980000000  0.5209410000000 1.0
C      1  0.5236020000000  0.5552790000000  0.5410290000000 1.0
C      1  0.5360540000000  0.4519120000000  0.5410580000000 1.0
C      1  0.4403250000000  0.4928360000000  0.5410410000000 1.0
C      1  0.4708330000000  0.4651270000000  0.4894290000000 1.0
C      1  0.4845080000000  0.5428230000000  0.4898560000000 1.0
C      1  0.5448120000000  0.4921570000000  0.4894500000000 1.0
END
