TITL C-3985257-5396-139 0.00229998247506111 125000 -308.557465224952 0 0 60 (C3i) n - 1
REM
REM in /home/nfs/bkarasulu/CARBON/AIRSS/Generating-Clusters/TERSOFF/Higher-Symm/Only-C60
REM
REM
REM
REM
REM
REM ./C.cell (28575a23ae977d3b5fae324c64b13b57)
REM
REM compiler GCC version 9.2.1 20190827 (Red Hat 9.2.1-1)
REM options -cpp -mtune=generic -march=x86-64 -g -O0 -fpre-include=/usr/include/finclude/math-vector-fortran.h
REM seed 710233764 -1490855524 1198294348 -1625960152 795985366 1888678589 378665797 -617537322 -425542975 -2028187908 444457912 -1674863565 -309621281 1281091259 419872835 -825574792 -231798465 -1930927732 1461430022 392678693 1096943246 1411062933 -254186124 2002430037 -1294347917 -457862361 43094283 1945807849 -1762808286 -1248553050 2086273503 1983254853 1334510683
REM
CELL 1.54180   50.00000   50.00000   50.00000   90.00000   90.00000   90.00000
LATT -1
SFAC C  
C      1  0.4449730000000  0.4890630000000  0.4604830000000 1.0
C      1  0.5550350000000  0.4603090000000  0.4897100000000 1.0
C      1  0.4449650000000  0.4712370000000  0.5292270000000 1.0
C      1  0.5550270000000  0.5109370000000  0.5395170000000 1.0
C      1  0.4449650000000  0.5396910000000  0.5102900000000 1.0
C      1  0.5550350000000  0.5287630000000  0.4707730000000 1.0
C      1  0.4588130000000  0.5032920000000  0.5644470000000 1.0
C      1  0.5411880000000  0.5574550000000  0.5293800000000 1.0
C      1  0.4588220000000  0.5541550000000  0.4649100000000 1.0
C      1  0.5411870000000  0.4967080000000  0.4355530000000 1.0
C      1  0.4588120000000  0.4425450000000  0.4706200000000 1.0
C      1  0.5411780000000  0.4458450000000  0.5350900000000 1.0
C      1  0.4799060000000  0.4963390000000  0.5200550000000 1.0
C      1  0.5200720000000  0.5155510000000  0.5131810000000 1.0
C      1  0.4799340000000  0.5191940000000  0.4931460000000 1.0
C      1  0.5200940000000  0.5036610000000  0.4799450000000 1.0
C      1  0.4799280000000  0.4844490000000  0.4868190000000 1.0
C      1  0.5200660000000  0.4808060000000  0.5068540000000 1.0
C      1  0.5229120000000  0.4720850000000  0.4423500000000 1.0
C      1  0.4770960000000  0.4361230000000  0.4953430000000 1.0
C      1  0.5228850000000  0.4640540000000  0.5529770000000 1.0
C      1  0.4770880000000  0.5279150000000  0.5576500000000 1.0
C      1  0.5229040000000  0.5638770000000  0.5046570000000 1.0
C      1  0.4771150000000  0.5359460000000  0.4470230000000 1.0
C      1  0.5340500000000  0.5180270000000  0.5608500000000 1.0
C      1  0.4659490000000  0.5617210000000  0.5147990000000 1.0
C      1  0.5340280000000  0.5436830000000  0.4539590000000 1.0
C      1  0.4659500000000  0.4819730000000  0.4391500000000 1.0
C      1  0.5340510000000  0.4382790000000  0.4852010000000 1.0
C      1  0.4659720000000  0.4563170000000  0.5460410000000 1.0
C      1  0.5223680000000  0.5466080000000  0.5507470000000 1.0
C      1  0.4776380000000  0.5672460000000  0.4849830000000 1.0
C      1  0.5223570000000  0.5206290000000  0.4342530000000 1.0
C      1  0.4776320000000  0.4533920000000  0.4492530000000 1.0
C      1  0.5223620000000  0.4327540000000  0.5150170000000 1.0
C      1  0.4776430000000  0.4793710000000  0.5657470000000 1.0
C      1  0.5019770000000  0.4688720000000  0.5288050000000 1.0
C      1  0.4980180000000  0.5094090000000  0.5413620000000 1.0
C      1  0.5019870000000  0.5405170000000  0.5125400000000 1.0
C      1  0.4980230000000  0.5311280000000  0.4711950000000 1.0
C      1  0.5019820000000  0.4905910000000  0.4586380000000 1.0
C      1  0.4980130000000  0.4594830000000  0.4874600000000 1.0
C      1  0.5646930000000  0.5019590000000  0.4556200000000 1.0
C      1  0.4353070000000  0.4625520000000  0.4761160000000 1.0
C      1  0.5646870000000  0.4606040000000  0.5205050000000 1.0
C      1  0.4353070000000  0.4980410000000  0.5443800000000 1.0
C      1  0.5646930000000  0.5374480000000  0.5238840000000 1.0
C      1  0.4353130000000  0.5393960000000  0.4794950000000 1.0
C      1  0.5114770000000  0.4909170000000  0.5641350000000 1.0
C      1  0.4885480000000  0.5509800000000  0.5399590000000 1.0
C      1  0.5114540000000  0.5600940000000  0.4758340000000 1.0
C      1  0.4885230000000  0.5090830000000  0.4358650000000 1.0
C      1  0.5114520000000  0.4490200000000  0.4600410000000 1.0
C      1  0.4885460000000  0.4399060000000  0.5241660000000 1.0
C      1  0.5487580000000  0.4876370000000  0.4770450000000 1.0
C      1  0.4512520000000  0.4739420000000  0.4992360000000 1.0
C      1  0.5487880000000  0.4862680000000  0.5221790000000 1.0
C      1  0.4512420000000  0.5123630000000  0.5229550000000 1.0
C      1  0.5487480000000  0.5260580000000  0.5007640000000 1.0
C      1  0.4512120000000  0.5137320000000  0.4778210000000 1.0
END
