TITL C-3985254-1270-1739 1.39707650633562e-05 125000 -316.590247359866 0 0 60 (D2) n - 1
REM
REM in /home/nfs/bkarasulu/CARBON/AIRSS/Generating-Clusters/TERSOFF/Higher-Symm/Only-C60
REM
REM
REM
REM
REM
REM ./C.cell (28575a23ae977d3b5fae324c64b13b57)
REM
REM compiler GCC version 9.2.1 20190827 (Red Hat 9.2.1-1)
REM options -cpp -mtune=generic -march=x86-64 -g -O0 -fpre-include=/usr/include/finclude/math-vector-fortran.h
REM seed -794724958 -1592274560 930478939 1066026197 -1749171755 -621727904 -39532860 1678011062 807320824 -469401193 282118865 -1635590039 -1967653843 -369869315 -1863083423 -1999232351 -1303952622 371424961 -2136600070 1202479669 1552909200 2125097662 -401324069 -556454810 -1858662560 1046427487 907232038 98001125 -54285457 358717447 1134583486 -58229711 210365048
REM
CELL 1.54180   50.00000   50.00000   50.00000   90.00000   90.00000   90.00000
LATT -1
SFAC C  
C      1  0.5724910000000  0.5309480000000  0.5214310000000 1.0
C      1  0.5724910000000  0.4690520000000  0.4785690000000 1.0
C      1  0.4275090000000  0.4690520000000  0.5214310000000 1.0
C      1  0.4275090000000  0.5309480000000  0.4785690000000 1.0
C      1  0.4775290000000  0.4444030000000  0.5202650000000 1.0
C      1  0.4775290000000  0.5555970000000  0.4797350000000 1.0
C      1  0.5224710000000  0.5555970000000  0.5202650000000 1.0
C      1  0.5224710000000  0.4444030000000  0.4797350000000 1.0
C      1  0.4912270000000  0.5351120000000  0.4603270000000 1.0
C      1  0.4912270000000  0.4648880000000  0.5396730000000 1.0
C      1  0.5087730000000  0.4648880000000  0.4603270000000 1.0
C      1  0.5087730000000  0.5351120000000  0.5396730000000 1.0
C      1  0.5143990000000  0.5433250000000  0.4442420000000 1.0
C      1  0.5143990000000  0.4566750000000  0.5557580000000 1.0
C      1  0.4856010000000  0.4566750000000  0.4442420000000 1.0
C      1  0.4856010000000  0.5433250000000  0.5557580000000 1.0
C      1  0.4905560000000  0.4801620000000  0.4870650000000 1.0
C      1  0.4905560000000  0.5198380000000  0.5129350000000 1.0
C      1  0.5094440000000  0.5198380000000  0.4870650000000 1.0
C      1  0.5094440000000  0.4801620000000  0.5129350000000 1.0
C      1  0.4447050000000  0.5363220000000  0.5495350000000 1.0
C      1  0.4447050000000  0.4636780000000  0.4504650000000 1.0
C      1  0.5552950000000  0.4636780000000  0.5495350000000 1.0
C      1  0.5552950000000  0.5363220000000  0.4504650000000 1.0
C      1  0.4671190000000  0.4189390000000  0.5294780000000 1.0
C      1  0.4671190000000  0.5810610000000  0.4705220000000 1.0
C      1  0.5328810000000  0.5810610000000  0.5294780000000 1.0
C      1  0.5328810000000  0.4189390000000  0.4705220000000 1.0
C      1  0.5354650000000  0.5569720000000  0.4648470000000 1.0
C      1  0.5354650000000  0.4430280000000  0.5351530000000 1.0
C      1  0.4645350000000  0.4430280000000  0.4648470000000 1.0
C      1  0.4645350000000  0.5569720000000  0.5351530000000 1.0
C      1  0.5299380000000  0.5046790000000  0.5204130000000 1.0
C      1  0.5299380000000  0.4953210000000  0.4795870000000 1.0
C      1  0.4700620000000  0.4953210000000  0.5204130000000 1.0
C      1  0.4700620000000  0.5046790000000  0.4795870000000 1.0
C      1  0.4341160000000  0.5172300000000  0.5294430000000 1.0
C      1  0.4341160000000  0.4827700000000  0.4705570000000 1.0
C      1  0.5658840000000  0.4827700000000  0.5294430000000 1.0
C      1  0.5658840000000  0.5172300000000  0.4705570000000 1.0
C      1  0.4466380000000  0.4764860000000  0.4997420000000 1.0
C      1  0.4466380000000  0.5235140000000  0.5002580000000 1.0
C      1  0.5533620000000  0.5235140000000  0.4997420000000 1.0
C      1  0.5533620000000  0.4764860000000  0.5002580000000 1.0
C      1  0.5330850000000  0.5113860000000  0.5518150000000 1.0
C      1  0.5330850000000  0.4886140000000  0.4481850000000 1.0
C      1  0.4669150000000  0.4886140000000  0.5518150000000 1.0
C      1  0.4669150000000  0.5113860000000  0.4481850000000 1.0
C      1  0.4697870000000  0.5436440000000  0.5066230000000 1.0
C      1  0.4697870000000  0.4563560000000  0.4933770000000 1.0
C      1  0.5302130000000  0.4563560000000  0.5066230000000 1.0
C      1  0.5302130000000  0.5436440000000  0.4933770000000 1.0
C      1  0.4670060000000  0.5185660000000  0.5660760000000 1.0
C      1  0.4670060000000  0.4814340000000  0.4339240000000 1.0
C      1  0.5329940000000  0.4814340000000  0.5660760000000 1.0
C      1  0.5329940000000  0.5185660000000  0.4339240000000 1.0
C      1  0.4344050000000  0.4889600000000  0.5415840000000 1.0
C      1  0.4344050000000  0.5110400000000  0.4584160000000 1.0
C      1  0.5655950000000  0.5110400000000  0.5415840000000 1.0
C      1  0.5655950000000  0.4889600000000  0.4584160000000 1.0
END
