TITL C-3985252-168-252 -0.000519558485519534 125000 -326.013964865147 0 0 60 (C5) n - 1
REM
REM in /home/nfs/bkarasulu/CARBON/AIRSS/Generating-Clusters/TERSOFF/Higher-Symm/Only-C60
REM
REM
REM
REM
REM
REM ./C.cell (28575a23ae977d3b5fae324c64b13b57)
REM
REM compiler GCC version 9.2.1 20190827 (Red Hat 9.2.1-1)
REM options -cpp -mtune=generic -march=x86-64 -g -O0 -fpre-include=/usr/include/finclude/math-vector-fortran.h
REM seed 752554950 -1281715039 -1474414769 1122146385 -494689241 -113148362 1308487736 -304598185 1189892235 780015554 756287555 -1257070425 -103997277 1620357570 1144284175 1709307992 759231030 351322325 -128286334 -1170446341 -1478990401 -139506777 -1589060909 -2026088610 1771183901 -193819623 256759343 -1564805152 1201279546 -578094023 -517365825 -655696993 2014499064
REM
CELL 1.54180   50.00000   50.00000   50.00000   90.00000   90.00000   90.00000
LATT -1
SFAC C  
C      1  0.4741840000000  0.5025870000000  0.5654630000000 1.0
C      1  0.5542850000000  0.5025940000000  0.5447810000000 1.0
C      1  0.5593640000000  0.5025880000000  0.4622180000000 1.0
C      1  0.4824030000000  0.5025930000000  0.4318660000000 1.0
C      1  0.4297630000000  0.5025930000000  0.4956820000000 1.0
C      1  0.5125170000000  0.5230890000000  0.4343880000000 1.0
C      1  0.4414690000000  0.5230910000000  0.4678180000000 1.0
C      1  0.4513040000000  0.5230930000000  0.5457160000000 1.0
C      1  0.5284390000000  0.5230910000000  0.5604390000000 1.0
C      1  0.5662660000000  0.5230900000000  0.4916360000000 1.0
C      1  0.4865980000000  0.5661890000000  0.5221340000000 1.0
C      1  0.5169080000000  0.5661840000000  0.5195880000000 1.0
C      1  0.5238550000000  0.5661850000000  0.4899770000000 1.0
C      1  0.4978360000000  0.5661860000000  0.4742210000000 1.0
C      1  0.4748070000000  0.5661840000000  0.4940890000000 1.0
C      1  0.5233470000000  0.4373070000000  0.5122900000000 1.0
C      1  0.5189020000000  0.4372990000000  0.4816040000000 1.0
C      1  0.4883360000000  0.4373040000000  0.4763370000000 1.0
C      1  0.4738930000000  0.4373030000000  0.5037720000000 1.0
C      1  0.4955180000000  0.4373030000000  0.5259920000000 1.0
C      1  0.4740650000000  0.5287800000000  0.4540110000000 1.0
C      1  0.4482420000000  0.5287800000000  0.5104540000000 1.0
C      1  0.4939450000000  0.5287740000000  0.5524420000000 1.0
C      1  0.5480190000000  0.5287840000000  0.5219650000000 1.0
C      1  0.5357230000000  0.5287750000000  0.4611310000000 1.0
C      1  0.5215470000000  0.4726130000000  0.4462810000000 1.0
C      1  0.4555600000000  0.4726090000000  0.4629080000000 1.0
C      1  0.4509940000000  0.4726160000000  0.5308070000000 1.0
C      1  0.5141330000000  0.4726120000000  0.5561280000000 1.0
C      1  0.5577550000000  0.4726160000000  0.5038770000000 1.0
C      1  0.5055660000000  0.4828860000000  0.5274170000000 1.0
C      1  0.5277930000000  0.4829090000000  0.5031770000000 1.0
C      1  0.5116080000000  0.4828990000000  0.4745490000000 1.0
C      1  0.4793900000000  0.4828940000000  0.4810830000000 1.0
C      1  0.4756560000000  0.4829250000000  0.5137690000000 1.0
C      1  0.5730150000000  0.4961590000000  0.5147280000000 1.0
C      1  0.5365700000000  0.4961620000000  0.4351100000000 1.0
C      1  0.4495830000000  0.4961600000000  0.4451700000000 1.0
C      1  0.4322700000000  0.4961590000000  0.5310040000000 1.0
C      1  0.5085580000000  0.4961640000000  0.5739920000000 1.0
C      1  0.4946130000000  0.5511800000000  0.4484220000000 1.0
C      1  0.4492840000000  0.5511780000000  0.4891820000000 1.0
C      1  0.4740420000000  0.5511790000000  0.5448930000000 1.0
C      1  0.5346720000000  0.5511780000000  0.5385620000000 1.0
C      1  0.5473880000000  0.5511790000000  0.4789440000000 1.0
C      1  0.4476560000000  0.4521210000000  0.5081820000000 1.0
C      1  0.4916260000000  0.4521160000000  0.5523160000000 1.0
C      1  0.5471470000000  0.4521330000000  0.5241450000000 1.0
C      1  0.5375330000000  0.4521190000000  0.4626120000000 1.0
C      1  0.4760390000000  0.4521310000000  0.4527580000000 1.0
C      1  0.5243870000000  0.5157600000000  0.5094620000000 1.0
C      1  0.5165330000000  0.5157440000000  0.4797040000000 1.0
C      1  0.4858460000000  0.5157420000000  0.4780080000000 1.0
C      1  0.4747030000000  0.5157460000000  0.5066780000000 1.0
C      1  0.4985440000000  0.5157320000000  0.5261260000000 1.0
C      1  0.5583700000000  0.4713330000000  0.4741060000000 1.0
C      1  0.4934150000000  0.4713220000000  0.4364860000000 1.0
C      1  0.4375620000000  0.4713210000000  0.4866320000000 1.0
C      1  0.4679950000000  0.4713340000000  0.5552560000000 1.0
C      1  0.5426580000000  0.4713220000000  0.5475140000000 1.0
END
