TITL C-3985245-9316-856 2.32481042721848e-07 125000 -333.536734609015 0 0 60 (C4) n - 1
REM
REM in /home/nfs/bkarasulu/CARBON/AIRSS/Generating-Clusters/TERSOFF/Higher-Symm/Only-C60
REM
REM
REM
REM
REM
REM ./C.cell (28575a23ae977d3b5fae324c64b13b57)
REM
REM compiler GCC version 9.2.1 20190827 (Red Hat 9.2.1-1)
REM options -cpp -mtune=generic -march=x86-64 -g -O0 -fpre-include=/usr/include/finclude/math-vector-fortran.h
REM seed -188826407 -903447207 -1287284017 -253972061 239436043 1271389918 949481587 1463615870 201292876 1157195357 -1091991306 155114272 259783861 -1133243702 1279196779 119419316 -1523995556 -1884429102 260899059 164118203 -991241497 -41603163 1451708601 -243662518 -1661024986 2022465996 -447259016 85754680 -1226798104 -1574213211 2139456267 593210570 -2108281621
REM
CELL 1.54180   50.00000   50.00000   50.00000   90.00000   90.00000   90.00000
LATT -1
SFAC C  
C      1  0.4729270000000  0.4379340000000  0.5353200000000 1.0
C      1  0.4729270000000  0.4646800000000  0.4379340000000 1.0
C      1  0.4729270000000  0.5620660000000  0.4646800000000 1.0
C      1  0.4729270000000  0.5353200000000  0.5620660000000 1.0
C      1  0.5478250000000  0.4449110000000  0.4903190000000 1.0
C      1  0.5478250000000  0.5096810000000  0.4449110000000 1.0
C      1  0.5478250000000  0.5550890000000  0.5096810000000 1.0
C      1  0.5478250000000  0.4903190000000  0.5550890000000 1.0
C      1  0.4640320000000  0.5116110000000  0.4566160000000 1.0
C      1  0.4640320000000  0.5433840000000  0.5116110000000 1.0
C      1  0.4640320000000  0.4883890000000  0.5433840000000 1.0
C      1  0.4640320000000  0.4566160000000  0.4883890000000 1.0
C      1  0.4952690000000  0.5132950000000  0.5210870000000 1.0
C      1  0.4952690000000  0.4789130000000  0.5132950000000 1.0
C      1  0.4952690000000  0.4867050000000  0.4789130000000 1.0
C      1  0.4952690000000  0.5210870000000  0.4867050000000 1.0
C      1  0.5160840000000  0.4733330000000  0.4564470000000 1.0
C      1  0.5160840000000  0.5435530000000  0.4733330000000 1.0
C      1  0.5160840000000  0.5266670000000  0.5435530000000 1.0
C      1  0.5160840000000  0.4564470000000  0.5266670000000 1.0
C      1  0.5137290000000  0.5456390000000  0.4437010000000 1.0
C      1  0.5137290000000  0.5562990000000  0.5456390000000 1.0
C      1  0.5137290000000  0.4543610000000  0.5562990000000 1.0
C      1  0.5137290000000  0.4437010000000  0.4543610000000 1.0
C      1  0.5004370000000  0.4218280000000  0.4935220000000 1.0
C      1  0.5004370000000  0.5064780000000  0.4218280000000 1.0
C      1  0.5004370000000  0.5781720000000  0.5064780000000 1.0
C      1  0.5004370000000  0.4935220000000  0.5781720000000 1.0
C      1  0.4869800000000  0.5621020000000  0.5573100000000 1.0
C      1  0.4869800000000  0.4426900000000  0.5621020000000 1.0
C      1  0.4869800000000  0.4378980000000  0.4426900000000 1.0
C      1  0.4869800000000  0.5573100000000  0.4378980000000 1.0
C      1  0.5589930000000  0.4790720000000  0.4846750000000 1.0
C      1  0.5589930000000  0.5153250000000  0.4790720000000 1.0
C      1  0.5589930000000  0.5209280000000  0.5153250000000 1.0
C      1  0.5589930000000  0.4846750000000  0.5209280000000 1.0
C      1  0.4748030000000  0.4821040000000  0.5698190000000 1.0
C      1  0.4748030000000  0.4301810000000  0.4821040000000 1.0
C      1  0.4748030000000  0.5178960000000  0.4301810000000 1.0
C      1  0.4748030000000  0.5698190000000  0.5178960000000 1.0
C      1  0.4642050000000  0.5345710000000  0.4798030000000 1.0
C      1  0.4642050000000  0.5201970000000  0.5345710000000 1.0
C      1  0.4642050000000  0.4654290000000  0.5201970000000 1.0
C      1  0.4642050000000  0.4798030000000  0.4654290000000 1.0
C      1  0.5241970000000  0.5698100000000  0.5226340000000 1.0
C      1  0.5241970000000  0.4773660000000  0.5698100000000 1.0
C      1  0.5241970000000  0.4301900000000  0.4773660000000 1.0
C      1  0.5241970000000  0.5226340000000  0.4301900000000 1.0
C      1  0.5000610000000  0.4792130000000  0.4310310000000 1.0
C      1  0.5000610000000  0.5689690000000  0.4792130000000 1.0
C      1  0.5000610000000  0.5207870000000  0.5689690000000 1.0
C      1  0.5000610000000  0.4310310000000  0.5207870000000 1.0
C      1  0.5429810000000  0.5422540000000  0.4829390000000 1.0
C      1  0.5429810000000  0.5170610000000  0.5422540000000 1.0
C      1  0.5429810000000  0.4577460000000  0.5170610000000 1.0
C      1  0.5429810000000  0.4829390000000  0.4577460000000 1.0
C      1  0.4374760000000  0.4805870000000  0.5113090000000 1.0
C      1  0.4374760000000  0.4886910000000  0.4805870000000 1.0
C      1  0.4374760000000  0.5194130000000  0.4886910000000 1.0
C      1  0.4374760000000  0.5113090000000  0.5194130000000 1.0
END
