TITL C-3985245-9316-74 2.09070738980751e-08 125000 -311.944197118001 0 0 60 (C3h) n - 1
REM
REM in /home/nfs/bkarasulu/CARBON/AIRSS/Generating-Clusters/TERSOFF/Higher-Symm/Only-C60
REM
REM
REM
REM
REM
REM ./C.cell (28575a23ae977d3b5fae324c64b13b57)
REM
REM compiler GCC version 9.2.1 20190827 (Red Hat 9.2.1-1)
REM options -cpp -mtune=generic -march=x86-64 -g -O0 -fpre-include=/usr/include/finclude/math-vector-fortran.h
REM seed 1159134256 -1927684999 -418012266 674792363 13123390 802161257 -1558544823 1333001720 354904944 1743692260 -1501205730 1987850237 308959475 530530479 -1605368392 -1123220306 1670351744 1081151686 -35791494 -258726746 -1074734873 306756729 -432173901 -884782438 853287154 1453051344 1283948811 1058664787 2060873834 1365292867 -108083588 507482338 156657877
REM
CELL 1.54180   50.00000   50.00000   50.00000   90.00000   90.00000   90.00000
LATT -1
SFAC C  
C      1  0.5144780000000  0.4855830000000  0.5180660000000 1.0
C      1  0.5052460000000  0.5197470000000  0.5180660000000 1.0
C      1  0.4802760000000  0.4946700000000  0.5180660000000 1.0
C      1  0.5144780000000  0.4855830000000  0.4819340000000 1.0
C      1  0.5052460000000  0.5197470000000  0.4819340000000 1.0
C      1  0.4802760000000  0.4946700000000  0.4819340000000 1.0
C      1  0.5762880000000  0.4815500000000  0.4841150000000 1.0
C      1  0.4778340000000  0.5752920000000  0.4841150000000 1.0
C      1  0.4458780000000  0.4431580000000  0.4841150000000 1.0
C      1  0.5762880000000  0.4815500000000  0.5158850000000 1.0
C      1  0.4778340000000  0.5752920000000  0.5158850000000 1.0
C      1  0.4458780000000  0.4431580000000  0.5158850000000 1.0
C      1  0.4234150000000  0.4878190000000  0.5156770000000 1.0
C      1  0.5488420000000  0.4397660000000  0.5156770000000 1.0
C      1  0.5277440000000  0.5724150000000  0.5156770000000 1.0
C      1  0.4234150000000  0.4878190000000  0.4843230000000 1.0
C      1  0.5488420000000  0.4397660000000  0.4843230000000 1.0
C      1  0.5277440000000  0.5724150000000  0.4843230000000 1.0
C      1  0.4566820000000  0.5221570000000  0.5152310000000 1.0
C      1  0.5024710000000  0.4514070000000  0.5152310000000 1.0
C      1  0.5408470000000  0.5264360000000  0.5152310000000 1.0
C      1  0.4566820000000  0.5221570000000  0.4847690000000 1.0
C      1  0.5024710000000  0.4514070000000  0.4847690000000 1.0
C      1  0.5408470000000  0.5264360000000  0.4847690000000 1.0
C      1  0.4327150000000  0.5124530000000  0.4691470000000 1.0
C      1  0.5228590000000  0.4355030000000  0.4691470000000 1.0
C      1  0.5444270000000  0.5520440000000  0.4691470000000 1.0
C      1  0.4327150000000  0.5124530000000  0.5308530000000 1.0
C      1  0.5228590000000  0.4355030000000  0.5308530000000 1.0
C      1  0.5444270000000  0.5520440000000  0.5308530000000 1.0
C      1  0.5294720000000  0.5016930000000  0.5470200000000 1.0
C      1  0.4837980000000  0.5246770000000  0.5470200000000 1.0
C      1  0.4867300000000  0.4736300000000  0.5470200000000 1.0
C      1  0.5294720000000  0.5016930000000  0.4529800000000 1.0
C      1  0.4837980000000  0.5246770000000  0.4529800000000 1.0
C      1  0.4867300000000  0.4736300000000  0.4529800000000 1.0
C      1  0.5158970000000  0.4566640000000  0.5545920000000 1.0
C      1  0.5295820000000  0.5354350000000  0.5545920000000 1.0
C      1  0.4545210000000  0.5079010000000  0.5545920000000 1.0
C      1  0.5158970000000  0.4566640000000  0.4454080000000 1.0
C      1  0.5295820000000  0.5354350000000  0.4454080000000 1.0
C      1  0.4545210000000  0.5079010000000  0.4454080000000 1.0
C      1  0.5018260000000  0.5491010000000  0.4468970000000 1.0
C      1  0.4565650000000  0.4770310000000  0.4468970000000 1.0
C      1  0.5416100000000  0.4738680000000  0.4468970000000 1.0
C      1  0.5018260000000  0.5491010000000  0.5531030000000 1.0
C      1  0.4565650000000  0.4770310000000  0.5531030000000 1.0
C      1  0.5416100000000  0.4738680000000  0.5531030000000 1.0
C      1  0.5697470000000  0.5119770000000  0.5165870000000 1.0
C      1  0.4547540000000  0.5544140000000  0.5165870000000 1.0
C      1  0.4754990000000  0.4336080000000  0.5165870000000 1.0
C      1  0.5697470000000  0.5119770000000  0.4834130000000 1.0
C      1  0.4547540000000  0.5544140000000  0.4834130000000 1.0
C      1  0.4754990000000  0.4336080000000  0.4834130000000 1.0
C      1  0.4376980000000  0.4662260000000  0.5310030000000 1.0
C      1  0.5604000000000  0.4629320000000  0.5310030000000 1.0
C      1  0.5019020000000  0.5708420000000  0.5310030000000 1.0
C      1  0.4376980000000  0.4662260000000  0.4689970000000 1.0
C      1  0.5604000000000  0.4629320000000  0.4689970000000 1.0
C      1  0.5019020000000  0.5708420000000  0.4689970000000 1.0
END
