TITL C-3985254-1270-67 -0.000416107075786246 125000 -325.590076503723 0 0 60 (C4v) n - 1
REM
REM in /home/nfs/bkarasulu/CARBON/AIRSS/Generating-Clusters/TERSOFF/Higher-Symm/Only-C60
REM
REM
REM
REM
REM
REM ./C.cell (28575a23ae977d3b5fae324c64b13b57)
REM
REM compiler GCC version 9.2.1 20190827 (Red Hat 9.2.1-1)
REM options -cpp -mtune=generic -march=x86-64 -g -O0 -fpre-include=/usr/include/finclude/math-vector-fortran.h
REM seed -415388335 1566615372 1911068572 -1607435383 -468284122 223544313 1716698211 -2039736664 -1144357525 1152266071 -872090233 1510763673 985693258 1237456762 1982634371 -1420638138 -1601765905 -425743462 582273053 -1652578116 -1601037893 45963154 -1745076903 1427740935 -242764027 142028796 -1225158777 303871018 881105220 -1418716164 368003752 664632471 -1186862974
REM
CELL 1.54180   50.00000   50.00000   50.00000   90.00000   90.00000   90.00000
LATT -1
SFAC C  
C      1  0.4425230000000  0.4682410000000  0.5117000000000 1.0
C      1  0.5317590000000  0.4425220000000  0.5117000000000 1.0
C      1  0.5574780000000  0.5317590000000  0.5117000000000 1.0
C      1  0.4682410000000  0.5574780000000  0.5117000000000 1.0
C      1  0.4425220000000  0.5317590000000  0.5117000000000 1.0
C      1  0.5317590000000  0.5574780000000  0.5117000000000 1.0
C      1  0.5574780000000  0.4682410000000  0.5117000000000 1.0
C      1  0.4682410000000  0.4425230000000  0.5117000000000 1.0
C      1  0.4452500000000  0.5238230000000  0.4581910000000 1.0
C      1  0.4761770000000  0.4452510000000  0.4581910000000 1.0
C      1  0.5547500000000  0.4761770000000  0.4581910000000 1.0
C      1  0.5238230000000  0.5547500000000  0.4581910000000 1.0
C      1  0.4452500000000  0.4761770000000  0.4581910000000 1.0
C      1  0.4761770000000  0.5547500000000  0.4581910000000 1.0
C      1  0.5547490000000  0.5238230000000  0.4581910000000 1.0
C      1  0.5238230000000  0.4452500000000  0.4581910000000 1.0
C      1  0.4521100000000  0.4842830000000  0.4860790000000 1.0
C      1  0.5157170000000  0.4521100000000  0.4860790000000 1.0
C      1  0.5478880000000  0.5157170000000  0.4860790000000 1.0
C      1  0.4842830000000  0.5478900000000  0.4860790000000 1.0
C      1  0.4521100000000  0.5157170000000  0.4860790000000 1.0
C      1  0.5157170000000  0.5478890000000  0.4860790000000 1.0
C      1  0.5478890000000  0.4842830000000  0.4860790000000 1.0
C      1  0.4842830000000  0.4521100000000  0.4860790000000 1.0
C      1  0.5153780000000  0.4629400000000  0.4352010000000 1.0
C      1  0.5370600000000  0.5153780000000  0.4352010000000 1.0
C      1  0.4846220000000  0.5370600000000  0.4352010000000 1.0
C      1  0.4629400000000  0.4846220000000  0.4352010000000 1.0
C      1  0.5153780000000  0.5370600000000  0.4352010000000 1.0
C      1  0.5370600000000  0.4846220000000  0.4352010000000 1.0
C      1  0.4846220000000  0.4629400000000  0.4352010000000 1.0
C      1  0.4629400000000  0.5153780000000  0.4352010000000 1.0
C      1  0.4507720000000  0.5291420000000  0.5628660000000 1.0
C      1  0.4708580000000  0.4507720000000  0.5628660000000 1.0
C      1  0.5492280000000  0.4708580000000  0.5628660000000 1.0
C      1  0.5291420000000  0.5492280000000  0.5628660000000 1.0
C      1  0.4507720000000  0.4708580000000  0.5628660000000 1.0
C      1  0.4708580000000  0.5492280000000  0.5628660000000 1.0
C      1  0.5492280000000  0.5291420000000  0.5628660000000 1.0
C      1  0.5291420000000  0.4507720000000  0.5628660000000 1.0
C      1  0.4851160000000  0.4440360000000  0.5387080000000 1.0
C      1  0.5559640000000  0.4851160000000  0.5387080000000 1.0
C      1  0.5148840000000  0.5559640000000  0.5387080000000 1.0
C      1  0.4440360000000  0.5148840000000  0.5387090000000 1.0
C      1  0.4851160000000  0.5559640000000  0.5387090000000 1.0
C      1  0.5559640000000  0.5148840000000  0.5387090000000 1.0
C      1  0.5148840000000  0.4440360000000  0.5387090000000 1.0
C      1  0.4440360000000  0.4851160000000  0.5387080000000 1.0
C      1  0.5147400000000  0.4155690000000  0.5067540000000 1.0
C      1  0.5844330000000  0.5147400000000  0.5067550000000 1.0
C      1  0.4852600000000  0.5844310000000  0.5067540000000 1.0
C      1  0.4155680000000  0.4852600000000  0.5067540000000 1.0
C      1  0.5147400000000  0.5844320000000  0.5067540000000 1.0
C      1  0.5844320000000  0.4852600000000  0.5067550000000 1.0
C      1  0.4852600000000  0.4155690000000  0.5067540000000 1.0
C      1  0.4155680000000  0.5147400000000  0.5067540000000 1.0
C      1  0.5163770000000  0.4836230000000  0.4888170000000 1.0
C      1  0.4836230000000  0.4836230000000  0.4888170000000 1.0
C      1  0.4836230000000  0.5163770000000  0.4888170000000 1.0
C      1  0.5163770000000  0.5163770000000  0.4888170000000 1.0
END
