TITL C-3985250-725-176 -0.0100286116510147 125000 -295.166438309302 0 0 60 (C4v) n - 1
REM
REM in /home/nfs/bkarasulu/CARBON/AIRSS/Generating-Clusters/TERSOFF/Higher-Symm/Only-C60
REM
REM
REM
REM
REM
REM ./C.cell (28575a23ae977d3b5fae324c64b13b57)
REM
REM compiler GCC version 9.2.1 20190827 (Red Hat 9.2.1-1)
REM options -cpp -mtune=generic -march=x86-64 -g -O0 -fpre-include=/usr/include/finclude/math-vector-fortran.h
REM seed 501450096 -1152122500 1810198717 -1696741742 1939688098 479984872 -664453507 -416910200 878285362 514958741 1646303369 1347225824 702204489 1736846349 -741857012 -518711761 -2029924 -1858991120 701484393 -166020888 2084923904 -1904368109 971153627 1983693857 -541023158 -2017734794 1696913760 742076877 1474820782 1024581635 1275578036 -383312657 929946093
REM
CELL 1.54180   50.00000   50.00000   50.00000   90.00000   90.00000   90.00000
LATT -1
SFAC C  
C      1  0.4742260000000  0.4675480000000  0.5594170000000 1.0
C      1  0.4405830000000  0.4675480000000  0.4742260000000 1.0
C      1  0.5257740000000  0.4675480000000  0.4405830000000 1.0
C      1  0.5594170000000  0.4675480000000  0.5257740000000 1.0
C      1  0.4742260000000  0.4675480000000  0.4405830000000 1.0
C      1  0.4405830000000  0.4675480000000  0.5257740000000 1.0
C      1  0.5257740000000  0.4675480000000  0.5594170000000 1.0
C      1  0.5594170000000  0.4675480000000  0.4742260000000 1.0
C      1  0.4827570000000  0.5190290000000  0.4330180000000 1.0
C      1  0.5669820000000  0.5190290000000  0.4827570000000 1.0
C      1  0.5172430000000  0.5190290000000  0.5669820000000 1.0
C      1  0.4330180000000  0.5190290000000  0.5172430000000 1.0
C      1  0.4827570000000  0.5190290000000  0.5669820000000 1.0
C      1  0.5669820000000  0.5190290000000  0.5172430000000 1.0
C      1  0.5172430000000  0.5190290000000  0.4330180000000 1.0
C      1  0.4330180000000  0.5190290000000  0.4827570000000 1.0
C      1  0.5149140000000  0.5648640000000  0.4625500000000 1.0
C      1  0.5374500000000  0.5648640000000  0.5149140000000 1.0
C      1  0.4850860000000  0.5648640000000  0.5374500000000 1.0
C      1  0.4625500000000  0.5648640000000  0.4850860000000 1.0
C      1  0.5149140000000  0.5648640000000  0.5374500000000 1.0
C      1  0.5374500000000  0.5648640000000  0.4850860000000 1.0
C      1  0.4850860000000  0.5648640000000  0.4625500000000 1.0
C      1  0.4625500000000  0.5648640000000  0.5149140000000 1.0
C      1  0.5158570000000  0.4443880000000  0.5393380000000 1.0
C      1  0.4606620000000  0.4443880000000  0.5158570000000 1.0
C      1  0.4841430000000  0.4443880000000  0.4606620000000 1.0
C      1  0.5393380000000  0.4443880000000  0.4841430000000 1.0
C      1  0.5158570000000  0.4443880000000  0.4606620000000 1.0
C      1  0.4606620000000  0.4443880000000  0.4841430000000 1.0
C      1  0.4841430000000  0.4443880000000  0.5393380000000 1.0
C      1  0.5393380000000  0.4443880000000  0.5158570000000 1.0
C      1  0.4444600000000  0.5438290000000  0.4684920000000 1.0
C      1  0.5315080000000  0.5438290000000  0.4444600000000 1.0
C      1  0.5555400000000  0.5438290000000  0.5315080000000 1.0
C      1  0.4684920000000  0.5438290000000  0.5555400000000 1.0
C      1  0.4444600000000  0.5438290000000  0.5315080000000 1.0
C      1  0.5315080000000  0.5438290000000  0.5555400000000 1.0
C      1  0.5555400000000  0.5438290000000  0.4684920000000 1.0
C      1  0.4684920000000  0.5438290000000  0.4444600000000 1.0
C      1  0.5156780000000  0.4866640000000  0.5843300000000 1.0
C      1  0.4156700000000  0.4866640000000  0.5156780000000 1.0
C      1  0.4843220000000  0.4866640000000  0.4156700000000 1.0
C      1  0.5843300000000  0.4866640000000  0.4843220000000 1.0
C      1  0.5156780000000  0.4866640000000  0.4156700000000 1.0
C      1  0.4156700000000  0.4866640000000  0.4843220000000 1.0
C      1  0.4843220000000  0.4866640000000  0.5843300000000 1.0
C      1  0.5843300000000  0.4866640000000  0.5156780000000 1.0
C      1  0.5179200000000  0.4957870000000  0.4565490000000 1.0
C      1  0.5434510000000  0.4957870000000  0.5179200000000 1.0
C      1  0.4820800000000  0.4957870000000  0.5434510000000 1.0
C      1  0.4565490000000  0.4957870000000  0.4820800000000 1.0
C      1  0.5179200000000  0.4957870000000  0.5434510000000 1.0
C      1  0.5434510000000  0.4957870000000  0.4820800000000 1.0
C      1  0.4820800000000  0.4957870000000  0.4565490000000 1.0
C      1  0.4565490000000  0.4957870000000  0.5179200000000 1.0
C      1  0.5152210000000  0.4786310000000  0.4847790000000 1.0
C      1  0.5152210000000  0.4786310000000  0.5152210000000 1.0
C      1  0.4847790000000  0.4786310000000  0.5152210000000 1.0
C      1  0.4847790000000  0.4786310000000  0.4847790000000 1.0
END
