TITL C-3985254-1270-563 -0.0002198959132693 125000 -318.052550903557 0 0 60 (Cs) n - 1
REM
REM in /home/nfs/bkarasulu/CARBON/AIRSS/Generating-Clusters/TERSOFF/Higher-Symm/Only-C60
REM
REM
REM
REM
REM
REM ./C.cell (28575a23ae977d3b5fae324c64b13b57)
REM
REM compiler GCC version 9.2.1 20190827 (Red Hat 9.2.1-1)
REM options -cpp -mtune=generic -march=x86-64 -g -O0 -fpre-include=/usr/include/finclude/math-vector-fortran.h
REM seed -1495523401 1326482125 -1477626068 -332095911 244302977 1736906262 -83128785 -1279870353 -994486878 -1322588822 -793410785 1522010505 1123486712 1264133265 -1309656661 2133118252 1040294977 -1632965658 2002812042 -2025193361 1846099225 -1309789058 393166095 -948080295 840432200 1477791539 -176097083 1370908683 -1363004712 1710750023 -305313891 -34748402 -1108604406
REM
CELL 1.54180   50.00000   50.00000   50.00000   90.00000   90.00000   90.00000
LATT -1
SFAC C  
C      1  0.5432890000000  0.5416900000000  0.4710460000000 1.0
C      1  0.5514040000000  0.4831980000000  0.4515950000000 1.0
C      1  0.5512850000000  0.4521440000000  0.5024910000000 1.0
C      1  0.5542940000000  0.4844110000000  0.5519470000000 1.0
C      1  0.5446380000000  0.5414140000000  0.5331410000000 1.0
C      1  0.5433280000000  0.4583200000000  0.4710600000000 1.0
C      1  0.5514310000000  0.5167650000000  0.4516200000000 1.0
C      1  0.5513190000000  0.5478340000000  0.5025300000000 1.0
C      1  0.5542480000000  0.5155800000000  0.5519880000000 1.0
C      1  0.5446910000000  0.4585580000000  0.5330160000000 1.0
C      1  0.4509640000000  0.5396480000000  0.5261950000000 1.0
C      1  0.4493600000000  0.5394270000000  0.4682000000000 1.0
C      1  0.4531050000000  0.4841640000000  0.4495920000000 1.0
C      1  0.4563890000000  0.4502410000000  0.4981330000000 1.0
C      1  0.4553540000000  0.4850840000000  0.5478870000000 1.0
C      1  0.4509500000000  0.4603340000000  0.5261740000000 1.0
C      1  0.4493580000000  0.4605920000000  0.4682050000000 1.0
C      1  0.4530840000000  0.5158650000000  0.4495610000000 1.0
C      1  0.4564390000000  0.5497320000000  0.4981600000000 1.0
C      1  0.4552810000000  0.5148590000000  0.5479120000000 1.0
C      1  0.4966250000000  0.5671930000000  0.5397280000000 1.0
C      1  0.4931390000000  0.5614280000000  0.4426920000000 1.0
C      1  0.4951240000000  0.4623700000000  0.4235790000000 1.0
C      1  0.4975120000000  0.4208490000000  0.5122290000000 1.0
C      1  0.4980770000000  0.4845950000000  0.5805050000000 1.0
C      1  0.4965500000000  0.4328020000000  0.5397360000000 1.0
C      1  0.4931470000000  0.4385950000000  0.4427250000000 1.0
C      1  0.4951410000000  0.5376350000000  0.4235880000000 1.0
C      1  0.4975700000000  0.5792370000000  0.5122300000000 1.0
C      1  0.4980240000000  0.5154300000000  0.5805100000000 1.0
C      1  0.4696920000000  0.5648250000000  0.4613070000000 1.0
C      1  0.4724480000000  0.4822150000000  0.4240080000000 1.0
C      1  0.4735110000000  0.4243800000000  0.4940960000000 1.0
C      1  0.4730880000000  0.4713180000000  0.5702550000000 1.0
C      1  0.4721510000000  0.5532780000000  0.5485190000000 1.0
C      1  0.4696640000000  0.4351610000000  0.4612690000000 1.0
C      1  0.4724680000000  0.5177870000000  0.4240130000000 1.0
C      1  0.4735070000000  0.5756950000000  0.4941740000000 1.0
C      1  0.4730800000000  0.5286660000000  0.5702660000000 1.0
C      1  0.4721260000000  0.4466240000000  0.5485590000000 1.0
C      1  0.5182580000000  0.4404300000000  0.4611620000000 1.0
C      1  0.5222610000000  0.4428920000000  0.5504120000000 1.0
C      1  0.5245090000000  0.5288450000000  0.5676250000000 1.0
C      1  0.5253110000000  0.5691460000000  0.5013190000000 1.0
C      1  0.5250140000000  0.5248930000000  0.4291030000000 1.0
C      1  0.5182630000000  0.5596100000000  0.4610800000000 1.0
C      1  0.5223110000000  0.5571150000000  0.5504440000000 1.0
C      1  0.5245320000000  0.4711990000000  0.5676090000000 1.0
C      1  0.5254070000000  0.4308040000000  0.5013720000000 1.0
C      1  0.5249470000000  0.4750930000000  0.4291180000000 1.0
C      1  0.5136740000000  0.5141830000000  0.5415630000000 1.0
C      1  0.5099730000000  0.5410340000000  0.4999890000000 1.0
C      1  0.5097250000000  0.5140200000000  0.4550300000000 1.0
C      1  0.5010460000000  0.4656460000000  0.4737980000000 1.0
C      1  0.4988460000000  0.4711950000000  0.5227760000000 1.0
C      1  0.5136340000000  0.4858130000000  0.5415720000000 1.0
C      1  0.5099440000000  0.4590260000000  0.5000660000000 1.0
C      1  0.5097150000000  0.4859350000000  0.4550450000000 1.0
C      1  0.5008880000000  0.5343330000000  0.4737640000000 1.0
C      1  0.4988870000000  0.5288430000000  0.5227110000000 1.0
END
