TITL C-3985251-913-212 -0.00167853899693683 125000 -331.511684377508 0 0 60 (C1) n - 1
REM
REM in /home/nfs/bkarasulu/CARBON/AIRSS/Generating-Clusters/TERSOFF/Higher-Symm/Only-C60
REM
REM
REM
REM
REM
REM ./C.cell (28575a23ae977d3b5fae324c64b13b57)
REM
REM compiler GCC version 9.2.1 20190827 (Red Hat 9.2.1-1)
REM options -cpp -mtune=generic -march=x86-64 -g -O0 -fpre-include=/usr/include/finclude/math-vector-fortran.h
REM seed 121824967 652464793 430437885 -1798904883 -2058597726 1276206982 -1553390678 -941196156 1177951912 1766254921 -854716083 -417095929 100195430 1783910298 1744216160 990326639 787128255 475671481 -303577092 -1510771135 2068069191 1691915983 -1685006758 2007463363 -1379361779 296483868 1030986257 -107980902 -1725780190 615404265 -777328552 -2058631487 -2065494815
REM
CELL 1.54180   50.00000   50.00000   50.00000   90.00000   90.00000   90.00000
LATT -1
SFAC C  
C      1  0.4864500000000  0.5799280000000  0.4692060000000 1.0
C      1  0.5726630000000  0.4710730000000  0.4693960000000 1.0
C      1  0.4399130000000  0.4491730000000  0.4680640000000 1.0
C      1  0.4708550000000  0.5255110000000  0.4951300000000 1.0
C      1  0.5340040000000  0.5130850000000  0.4935400000000 1.0
C      1  0.4931750000000  0.4636910000000  0.4947170000000 1.0
C      1  0.5266400000000  0.4286940000000  0.4961780000000 1.0
C      1  0.4271720000000  0.5126110000000  0.4946140000000 1.0
C      1  0.5479110000000  0.5568380000000  0.4950460000000 1.0
C      1  0.4797590000000  0.4982900000000  0.5735500000000 1.0
C      1  0.5093710000000  0.5186400000000  0.5736520000000 1.0
C      1  0.5118980000000  0.4828200000000  0.5734880000000 1.0
C      1  0.5210450000000  0.4657580000000  0.5510870000000 1.0
C      1  0.4602920000000  0.4987200000000  0.5512390000000 1.0
C      1  0.5194570000000  0.5353460000000  0.5513340000000 1.0
C      1  0.4559090000000  0.4338470000000  0.4906020000000 1.0
C      1  0.4657920000000  0.5726670000000  0.4916580000000 1.0
C      1  0.5787300000000  0.4931730000000  0.4912160000000 1.0
C      1  0.4514500000000  0.5250620000000  0.5439380000000 1.0
C      1  0.5466650000000  0.5291460000000  0.5436480000000 1.0
C      1  0.5023660000000  0.4449250000000  0.5440040000000 1.0
C      1  0.5293130000000  0.4909520000000  0.4728280000000 1.0
C      1  0.4759240000000  0.4779600000000  0.4743860000000 1.0
C      1  0.4919510000000  0.5346440000000  0.4755050000000 1.0
C      1  0.5122420000000  0.5313220000000  0.4986960000000 1.0
C      1  0.5196710000000  0.4739730000000  0.4983310000000 1.0
C      1  0.4674810000000  0.4965770000000  0.4989440000000 1.0
C      1  0.4745420000000  0.4540500000000  0.5455460000000 1.0
C      1  0.4728640000000  0.5452250000000  0.5456610000000 1.0
C      1  0.5524680000000  0.5005330000000  0.5452290000000 1.0
C      1  0.5591510000000  0.5147190000000  0.5062710000000 1.0
C      1  0.4833780000000  0.4402510000000  0.5068760000000 1.0
C      1  0.4549620000000  0.5458520000000  0.5076720000000 1.0
C      1  0.5527420000000  0.5416940000000  0.4691870000000 1.0
C      1  0.5115940000000  0.4312210000000  0.4704290000000 1.0
C      1  0.4379530000000  0.5253100000000  0.4690630000000 1.0
C      1  0.5597900000000  0.4682930000000  0.5093260000000 1.0
C      1  0.4436480000000  0.4632090000000  0.5079010000000 1.0
C      1  0.4970980000000  0.5689410000000  0.5094140000000 1.0
C      1  0.5040590000000  0.5586470000000  0.4574310000000 1.0
C      1  0.5457980000000  0.4697310000000  0.4570630000000 1.0
C      1  0.4495000000000  0.4755120000000  0.4567780000000 1.0
C      1  0.5751490000000  0.5204570000000  0.4678890000000 1.0
C      1  0.4822690000000  0.4214380000000  0.4693680000000 1.0
C      1  0.4443450000000  0.5555640000000  0.4682320000000 1.0
C      1  0.5241020000000  0.5760600000000  0.4973640000000 1.0
C      1  0.5541710000000  0.4408870000000  0.4986670000000 1.0
C      1  0.4236610000000  0.4823710000000  0.4958960000000 1.0
C      1  0.5165070000000  0.5100370000000  0.4519890000000 1.0
C      1  0.4960610000000  0.4733740000000  0.4516540000000 1.0
C      1  0.4850730000000  0.5139010000000  0.4524080000000 1.0
C      1  0.5375150000000  0.4786440000000  0.5292800000000 1.0
C      1  0.4628590000000  0.4778790000000  0.5294440000000 1.0
C      1  0.4997400000000  0.5439380000000  0.5300610000000 1.0
C      1  0.5075390000000  0.4254590000000  0.5203290000000 1.0
C      1  0.4311620000000  0.5297830000000  0.5204060000000 1.0
C      1  0.5608040000000  0.5430130000000  0.5197970000000 1.0
C      1  0.4546240000000  0.5068730000000  0.4527130000000 1.0
C      1  0.5283520000000  0.5379970000000  0.4528160000000 1.0
C      1  0.5184200000000  0.4547110000000  0.4538440000000 1.0
END
