TITL C-3985245-9316-1202 0.00887374717771694 125000 -304.606887381433 0 0 60 (Ci) n - 1
REM
REM in /home/nfs/bkarasulu/CARBON/AIRSS/Generating-Clusters/TERSOFF/Higher-Symm/Only-C60
REM
REM
REM
REM
REM
REM ./C.cell (28575a23ae977d3b5fae324c64b13b57)
REM
REM compiler GCC version 9.2.1 20190827 (Red Hat 9.2.1-1)
REM options -cpp -mtune=generic -march=x86-64 -g -O0 -fpre-include=/usr/include/finclude/math-vector-fortran.h
REM seed -1675074757 1926435219 1796841106 -619203859 2112234010 -361968624 -1080861809 -24677010 1360478048 -1256815973 -1658058149 -1913765157 595642927 91920865 -1082629274 -482672786 -688253175 1747370604 -463850538 1683875127 -1796628670 -1955588868 987237274 -1265165962 804745443 -728795870 -635577585 -780369855 1621216609 -105540867 -708010738 208008055 1654971741
REM
CELL 1.54180   50.00000   50.00000   50.00000   90.00000   90.00000   90.00000
LATT -1
SFAC C  
C      1  0.5144610000000  0.5321560000000  0.5123100000000 1.0
C      1  0.4855390000000  0.4678440000000  0.4876900000000 1.0
C      1  0.5141710000000  0.4508250000000  0.5130350000000 1.0
C      1  0.4858290000000  0.5491750000000  0.4869650000000 1.0
C      1  0.4669620000000  0.5591870000000  0.5070680000000 1.0
C      1  0.5330380000000  0.4408130000000  0.4929320000000 1.0
C      1  0.5162560000000  0.4837230000000  0.5118350000000 1.0
C      1  0.4837440000000  0.5162770000000  0.4881650000000 1.0
C      1  0.5148460000000  0.4980880000000  0.4833900000000 1.0
C      1  0.4851540000000  0.5019120000000  0.5166100000000 1.0
C      1  0.4415560000000  0.4795690000000  0.4860460000000 1.0
C      1  0.5584440000000  0.5204310000000  0.5139540000000 1.0
C      1  0.4478240000000  0.5403680000000  0.4540730000000 1.0
C      1  0.5521760000000  0.4596320000000  0.5459270000000 1.0
C      1  0.5468940000000  0.4872280000000  0.4754730000000 1.0
C      1  0.4531060000000  0.5127720000000  0.5245270000000 1.0
C      1  0.5540520000000  0.4917440000000  0.5523930000000 1.0
C      1  0.4459480000000  0.5082560000000  0.4476070000000 1.0
C      1  0.4964000000000  0.4240620000000  0.4592180000000 1.0
C      1  0.5036000000000  0.5759380000000  0.5407820000000 1.0
C      1  0.4701120000000  0.4752450000000  0.5165360000000 1.0
C      1  0.5298880000000  0.5247550000000  0.4834640000000 1.0
C      1  0.4384860000000  0.4733570000000  0.5158700000000 1.0
C      1  0.5615140000000  0.5266430000000  0.4841300000000 1.0
C      1  0.4455760000000  0.4871100000000  0.5485050000000 1.0
C      1  0.5544240000000  0.5128900000000  0.4514950000000 1.0
C      1  0.5256970000000  0.5355440000000  0.4514890000000 1.0
C      1  0.4743030000000  0.4644560000000  0.5485110000000 1.0
C      1  0.5486050000000  0.5413110000000  0.5349200000000 1.0
C      1  0.4513950000000  0.4586890000000  0.4650800000000 1.0
C      1  0.5555550000000  0.4601670000000  0.4881320000000 1.0
C      1  0.4444450000000  0.5398330000000  0.5118680000000 1.0
C      1  0.4976180000000  0.4457100000000  0.4404000000000 1.0
C      1  0.5023820000000  0.5542900000000  0.5596000000000 1.0
C      1  0.5285820000000  0.5632420000000  0.4668000000000 1.0
C      1  0.4714180000000  0.4367580000000  0.5332000000000 1.0
C      1  0.4849670000000  0.4374940000000  0.5063050000000 1.0
C      1  0.5150330000000  0.5625060000000  0.4936950000000 1.0
C      1  0.4704410000000  0.4308670000000  0.4758370000000 1.0
C      1  0.5295590000000  0.5691330000000  0.5241630000000 1.0
C      1  0.4635100000000  0.4824280000000  0.4398200000000 1.0
C      1  0.5364900000000  0.5175720000000  0.5601800000000 1.0
C      1  0.4324130000000  0.5334600000000  0.4845500000000 1.0
C      1  0.5675870000000  0.4665400000000  0.5154500000000 1.0
C      1  0.4765920000000  0.5472540000000  0.4573310000000 1.0
C      1  0.5234080000000  0.4527460000000  0.5426690000000 1.0
C      1  0.4898230000000  0.5099910000000  0.5445190000000 1.0
C      1  0.5101770000000  0.4900090000000  0.4554810000000 1.0
C      1  0.4960470000000  0.5314100000000  0.4409870000000 1.0
C      1  0.5039530000000  0.4685900000000  0.5590130000000 1.0
C      1  0.5317340000000  0.4954790000000  0.4372080000000 1.0
C      1  0.4682660000000  0.5045210000000  0.5627920000000 1.0
C      1  0.5147610000000  0.4933380000000  0.5739380000000 1.0
C      1  0.4852390000000  0.5066620000000  0.4260620000000 1.0
C      1  0.4776320000000  0.5789810000000  0.5262830000000 1.0
C      1  0.5223680000000  0.4210190000000  0.4737170000000 1.0
C      1  0.4894760000000  0.4707430000000  0.4523250000000 1.0
C      1  0.5105240000000  0.5292570000000  0.5476750000000 1.0
C      1  0.4507240000000  0.5066390000000  0.4787950000000 1.0
C      1  0.5492760000000  0.4933610000000  0.5212050000000 1.0
END
