TITL C-3985253-1688-891 0.000195816535223872 125000 -293.460594461766 0 0 60 (C2v) n - 1
REM
REM in /home/nfs/bkarasulu/CARBON/AIRSS/Generating-Clusters/TERSOFF/Higher-Symm/Only-C60
REM
REM
REM
REM
REM
REM ./C.cell (28575a23ae977d3b5fae324c64b13b57)
REM
REM compiler GCC version 9.2.1 20190827 (Red Hat 9.2.1-1)
REM options -cpp -mtune=generic -march=x86-64 -g -O0 -fpre-include=/usr/include/finclude/math-vector-fortran.h
REM seed 467876658 1541648010 -341728430 185992371 1239968488 279151507 -1182419583 -418404892 1645460676 291156753 1978883559 -1364714537 -2016289561 -1745805910 2073930155 -34588014 -464600463 -1964739465 756714501 2110274608 1031828355 -2143519188 1905770749 620218108 99499912 1865908945 1835021122 18994079 -432709898 207487638 1805098518 -1190127785 1827714682
REM
CELL 1.54180   50.00000   50.00000   50.00000   90.00000   90.00000   90.00000
LATT -1
SFAC C  
C      1  0.5327560000000  0.5474380000000  0.4849180000000 1.0
C      1  0.5327560000000  0.4525620000000  0.5150820000000 1.0
C      1  0.5327560000000  0.5474380000000  0.5150820000000 1.0
C      1  0.5327560000000  0.4525620000000  0.4849180000000 1.0
C      1  0.4540190000000  0.5328110000000  0.5180430000000 1.0
C      1  0.4540190000000  0.4671890000000  0.4819570000000 1.0
C      1  0.4540190000000  0.5328110000000  0.4819570000000 1.0
C      1  0.4540190000000  0.4671890000000  0.5180430000000 1.0
C      1  0.5069370000000  0.5268160000000  0.5664730000000 1.0
C      1  0.5069370000000  0.4731840000000  0.4335270000000 1.0
C      1  0.5069370000000  0.5268160000000  0.4335270000000 1.0
C      1  0.5069370000000  0.4731840000000  0.5664730000000 1.0
C      1  0.5531020000000  0.4689330000000  0.5319410000000 1.0
C      1  0.5531020000000  0.5310670000000  0.4680590000000 1.0
C      1  0.5531020000000  0.4689330000000  0.4680590000000 1.0
C      1  0.5531020000000  0.5310670000000  0.5319410000000 1.0
C      1  0.5148870000000  0.4831310000000  0.4780890000000 1.0
C      1  0.5148870000000  0.5168690000000  0.5219110000000 1.0
C      1  0.5148870000000  0.4831310000000  0.5219110000000 1.0
C      1  0.5148870000000  0.5168690000000  0.4780890000000 1.0
C      1  0.4860860000000  0.4156910000000  0.4846600000000 1.0
C      1  0.4860860000000  0.5843090000000  0.5153400000000 1.0
C      1  0.4860860000000  0.4156910000000  0.5153400000000 1.0
C      1  0.4860860000000  0.5843090000000  0.4846600000000 1.0
C      1  0.4895280000000  0.5564110000000  0.4655980000000 1.0
C      1  0.4895280000000  0.4435890000000  0.5344020000000 1.0
C      1  0.4895280000000  0.5564110000000  0.5344020000000 1.0
C      1  0.4895280000000  0.4435890000000  0.4655980000000 1.0
C      1  0.5315080000000  0.5158420000000  0.5514810000000 1.0
C      1  0.5315080000000  0.4841580000000  0.4485190000000 1.0
C      1  0.5315080000000  0.5158420000000  0.4485190000000 1.0
C      1  0.5315080000000  0.4841580000000  0.5514810000000 1.0
C      1  0.4531980000000  0.5690670000000  0.4822760000000 1.0
C      1  0.4531980000000  0.4309330000000  0.5177240000000 1.0
C      1  0.4531980000000  0.5690670000000  0.5177240000000 1.0
C      1  0.4531980000000  0.4309330000000  0.4822760000000 1.0
C      1  0.5729560000000  0.5158180000000  0.5164030000000 1.0
C      1  0.5729560000000  0.4841820000000  0.4835970000000 1.0
C      1  0.5729560000000  0.5158180000000  0.4835970000000 1.0
C      1  0.5729560000000  0.4841820000000  0.5164030000000 1.0
C      1  0.5181320000000  0.4287250000000  0.4719600000000 1.0
C      1  0.5181320000000  0.5712750000000  0.5280400000000 1.0
C      1  0.5181320000000  0.4287250000000  0.5280400000000 1.0
C      1  0.5181320000000  0.5712750000000  0.4719600000000 1.0
C      1  0.4617500000000  0.5611440000000  0.4496460000000 1.0
C      1  0.4617500000000  0.4388560000000  0.5503540000000 1.0
C      1  0.4617500000000  0.5611440000000  0.5503540000000 1.0
C      1  0.4617500000000  0.4388560000000  0.4496460000000 1.0
C      1  0.4577750000000  0.5300140000000  0.5519060000000 1.0
C      1  0.4577750000000  0.4699860000000  0.4480940000000 1.0
C      1  0.4577750000000  0.5300140000000  0.4480940000000 1.0
C      1  0.4577750000000  0.4699860000000  0.5519060000000 1.0
C      1  0.4799760000000  0.4854010000000  0.4361880000000 1.0
C      1  0.4799760000000  0.5145990000000  0.5638120000000 1.0
C      1  0.4799760000000  0.4854010000000  0.5638120000000 1.0
C      1  0.4799760000000  0.5145990000000  0.4361880000000 1.0
C      1  0.4873910000000  0.5310960000000  0.4839630000000 1.0
C      1  0.4873910000000  0.4689040000000  0.5160370000000 1.0
C      1  0.4873910000000  0.5310960000000  0.5160370000000 1.0
C      1  0.4873910000000  0.4689040000000  0.4839630000000 1.0
END
