TITL C-3985244-725-33 4.64254990037609e-06 125000 -326.378535340834 0 0 60 (C1) n - 1
REM
REM in /home/nfs/bkarasulu/CARBON/AIRSS/Generating-Clusters/TERSOFF/Higher-Symm/Only-C60
REM
REM
REM
REM
REM
REM ./C.cell (28575a23ae977d3b5fae324c64b13b57)
REM
REM compiler GCC version 9.2.1 20190827 (Red Hat 9.2.1-1)
REM options -cpp -mtune=generic -march=x86-64 -g -O0 -fpre-include=/usr/include/finclude/math-vector-fortran.h
REM seed 656085391 -1128553829 -86556149 -1384118861 -2001043368 -1268025610 629509402 488158066 -73455807 499953491 -99699602 -877616746 -2085148530 -374906133 658097796 -631168270 1078684775 -298431351 -1168756856 1549668917 -478422544 2102768567 -844648977 403585505 -816148472 1098364542 -1586225422 618253047 -888309817 -1244962832 331007458 462645386 344881810
REM
CELL 1.54180   50.00000   50.00000   50.00000   90.00000   90.00000   90.00000
LATT -1
SFAC C  
C      1  0.4910690000000  0.4401730000000  0.5110400000000 1.0
C      1  0.5307130000000  0.4777850000000  0.5617340000000 1.0
C      1  0.4358490000000  0.5156200000000  0.4633110000000 1.0
C      1  0.5283190000000  0.5749140000000  0.4952160000000 1.0
C      1  0.4615010000000  0.5515950000000  0.5198440000000 1.0
C      1  0.5413510000000  0.5536170000000  0.4752020000000 1.0
C      1  0.4975770000000  0.4309640000000  0.4836720000000 1.0
C      1  0.4508050000000  0.4906890000000  0.5499820000000 1.0
C      1  0.5186580000000  0.5246430000000  0.4372960000000 1.0
C      1  0.5297320000000  0.4486100000000  0.4457460000000 1.0
C      1  0.4851970000000  0.5622160000000  0.5344680000000 1.0
C      1  0.5827500000000  0.5362810000000  0.5429250000000 1.0
C      1  0.4761590000000  0.4675840000000  0.5614290000000 1.0
C      1  0.4774390000000  0.4422470000000  0.4386650000000 1.0
C      1  0.5040460000000  0.4673360000000  0.5483810000000 1.0
C      1  0.4578600000000  0.5317140000000  0.4772660000000 1.0
C      1  0.5004170000000  0.5038430000000  0.4282790000000 1.0
C      1  0.5433180000000  0.4740600000000  0.4402300000000 1.0
C      1  0.5164520000000  0.5669550000000  0.5207950000000 1.0
C      1  0.5210790000000  0.5033140000000  0.5723250000000 1.0
C      1  0.4732640000000  0.4829050000000  0.5901550000000 1.0
C      1  0.5035270000000  0.4959820000000  0.5310260000000 1.0
C      1  0.4464230000000  0.4416280000000  0.4752220000000 1.0
C      1  0.5336820000000  0.5239330000000  0.4631690000000 1.0
C      1  0.5577500000000  0.4975750000000  0.5167810000000 1.0
C      1  0.4562960000000  0.5626570000000  0.4897370000000 1.0
C      1  0.4816280000000  0.4904460000000  0.5066000000000 1.0
C      1  0.4380480000000  0.4643930000000  0.4562580000000 1.0
C      1  0.5516210000000  0.4741520000000  0.5384870000000 1.0
C      1  0.4541140000000  0.5106820000000  0.4409200000000 1.0
C      1  0.4446290000000  0.4546330000000  0.5024250000000 1.0
C      1  0.5305480000000  0.5131130000000  0.5204250000000 1.0
C      1  0.5244200000000  0.4404530000000  0.4735530000000 1.0
C      1  0.4642580000000  0.5187270000000  0.5081880000000 1.0
C      1  0.4710500000000  0.4612010000000  0.5120620000000 1.0
C      1  0.4903460000000  0.4868310000000  0.4750010000000 1.0
C      1  0.5198040000000  0.4880350000000  0.4807830000000 1.0
C      1  0.4964480000000  0.5152140000000  0.5585930000000 1.0
C      1  0.4436690000000  0.4996210000000  0.5219690000000 1.0
C      1  0.4699050000000  0.5080390000000  0.5706560000000 1.0
C      1  0.4838730000000  0.5343510000000  0.4587320000000 1.0
C      1  0.4626130000000  0.4676590000000  0.4377520000000 1.0
C      1  0.5312780000000  0.5422670000000  0.5351440000000 1.0
C      1  0.5595370000000  0.5544210000000  0.5316320000000 1.0
C      1  0.5068540000000  0.5562110000000  0.4643650000000 1.0
C      1  0.5604300000000  0.4821710000000  0.4891690000000 1.0
C      1  0.5383930000000  0.4521280000000  0.5213580000000 1.0
C      1  0.4741580000000  0.4298750000000  0.4653530000000 1.0
C      1  0.5037050000000  0.5431270000000  0.5528380000000 1.0
C      1  0.4782470000000  0.4930030000000  0.4447190000000 1.0
C      1  0.4933500000000  0.5332350000000  0.4996220000000 1.0
C      1  0.4279460000000  0.4883290000000  0.4731130000000 1.0
C      1  0.5655380000000  0.5492560000000  0.4986470000000 1.0
C      1  0.5117010000000  0.4445090000000  0.5309690000000 1.0
C      1  0.4301040000000  0.4808400000000  0.5027210000000 1.0
C      1  0.5477120000000  0.4945070000000  0.4622330000000 1.0
C      1  0.5180910000000  0.5178970000000  0.4932570000000 1.0
C      1  0.5382490000000  0.4593910000000  0.4930320000000 1.0
C      1  0.4886780000000  0.5623020000000  0.4896800000000 1.0
C      1  0.5778210000000  0.5201400000000  0.5158500000000 1.0
END
