TITL C-3985250-725-716 -2.44639655364459e-07 125000 -330.326870833132 0 0 60 (D4) n - 1
REM
REM in /home/nfs/bkarasulu/CARBON/AIRSS/Generating-Clusters/TERSOFF/Higher-Symm/Only-C60
REM
REM
REM
REM
REM
REM ./C.cell (28575a23ae977d3b5fae324c64b13b57)
REM
REM compiler GCC version 9.2.1 20190827 (Red Hat 9.2.1-1)
REM options -cpp -mtune=generic -march=x86-64 -g -O0 -fpre-include=/usr/include/finclude/math-vector-fortran.h
REM seed -889165062 669079125 63771877 -1841928112 -140861244 -1696746024 -939229139 -567268749 383045883 641249534 1829178674 286528832 1863514742 -1391066342 1360453973 -1164153846 1939540909 183927510 -41624273 -667064335 -1975411601 -880000718 -705582988 995252106 -647027580 861419097 1638703837 -1147781516 -176024556 63425025 1216176625 871816369 2118544418
REM
CELL 1.54180   50.00000   50.00000   50.00000   90.00000   90.00000   90.00000
LATT -1
SFAC C  
C      1  0.4657020000000  0.5104930000000  0.4804290000000 1.0
C      1  0.4657020000000  0.5195710000000  0.5104930000000 1.0
C      1  0.4657020000000  0.4895070000000  0.5195710000000 1.0
C      1  0.4657020000000  0.4804290000000  0.4895070000000 1.0
C      1  0.5333460000000  0.4895070000000  0.4804290000000 1.0
C      1  0.5333460000000  0.4804290000000  0.5104930000000 1.0
C      1  0.5333460000000  0.5104930000000  0.5195710000000 1.0
C      1  0.5333460000000  0.5195710000000  0.4895070000000 1.0
C      1  0.5338540000000  0.5397680000000  0.4527880000000 1.0
C      1  0.5338540000000  0.5472120000000  0.5397680000000 1.0
C      1  0.5338540000000  0.4602320000000  0.5472120000000 1.0
C      1  0.5338540000000  0.4527880000000  0.4602320000000 1.0
C      1  0.4651930000000  0.4602320000000  0.4527880000000 1.0
C      1  0.4651930000000  0.4527880000000  0.5397680000000 1.0
C      1  0.4651930000000  0.5397680000000  0.5472120000000 1.0
C      1  0.4651930000000  0.5472120000000  0.4602320000000 1.0
C      1  0.5575090000000  0.4614720000000  0.5206920000000 1.0
C      1  0.5575090000000  0.4793080000000  0.4614720000000 1.0
C      1  0.5575090000000  0.5385280000000  0.4793070000000 1.0
C      1  0.5575090000000  0.5206930000000  0.5385280000000 1.0
C      1  0.4415380000000  0.5385280000000  0.5206930000000 1.0
C      1  0.4415380000000  0.5206920000000  0.4614720000000 1.0
C      1  0.4415380000000  0.4614720000000  0.4793080000000 1.0
C      1  0.4415380000000  0.4793070000000  0.5385280000000 1.0
C      1  0.4473210000000  0.5043850000000  0.4368040000000 1.0
C      1  0.4473210000000  0.5631960000000  0.5043850000000 1.0
C      1  0.4473210000000  0.4956150000000  0.5631960000000 1.0
C      1  0.4473210000000  0.4368040000000  0.4956150000000 1.0
C      1  0.5517270000000  0.4956150000000  0.4368040000000 1.0
C      1  0.5517270000000  0.4368040000000  0.5043850000000 1.0
C      1  0.5517270000000  0.5043850000000  0.5631960000000 1.0
C      1  0.5517270000000  0.5631960000000  0.4956150000000 1.0
C      1  0.5800730000000  0.4886340000000  0.4801080000000 1.0
C      1  0.5800730000000  0.5198920000000  0.4886340000000 1.0
C      1  0.5800730000000  0.5113660000000  0.5198920000000 1.0
C      1  0.5800730000000  0.4801080000000  0.5113660000000 1.0
C      1  0.4189740000000  0.5113660000000  0.4801080000000 1.0
C      1  0.4189740000000  0.4801080000000  0.4886340000000 1.0
C      1  0.4189740000000  0.4886340000000  0.5198920000000 1.0
C      1  0.4189740000000  0.5198920000000  0.5113660000000 1.0
C      1  0.5288310000000  0.4859080000000  0.5636730000000 1.0
C      1  0.5288310000000  0.4363270000000  0.4859080000000 1.0
C      1  0.5288310000000  0.5140920000000  0.4363270000000 1.0
C      1  0.5288310000000  0.5636730000000  0.5140920000000 1.0
C      1  0.4702170000000  0.5140920000000  0.5636730000000 1.0
C      1  0.4702170000000  0.5636730000000  0.4859080000000 1.0
C      1  0.4702170000000  0.4859080000000  0.4363270000000 1.0
C      1  0.4702170000000  0.4363270000000  0.5140920000000 1.0
C      1  0.5103950000000  0.4773800000000  0.4630460000000 1.0
C      1  0.5103950000000  0.5369540000000  0.4773800000000 1.0
C      1  0.5103950000000  0.5226200000000  0.5369540000000 1.0
C      1  0.5103950000000  0.4630460000000  0.5226200000000 1.0
C      1  0.4886520000000  0.5226200000000  0.4630460000000 1.0
C      1  0.4886520000000  0.4630460000000  0.4773800000000 1.0
C      1  0.4886520000000  0.4773800000000  0.5369540000000 1.0
C      1  0.4886520000000  0.5369540000000  0.5226200000000 1.0
C      1  0.4995240000000  0.5000000000000  0.5566960000000 1.0
C      1  0.4995240000000  0.4433040000000  0.5000000000000 1.0
C      1  0.4995240000000  0.5566960000000  0.5000000000000 1.0
C      1  0.4995240000000  0.5000000000000  0.4433040000000 1.0
END
