TITL C-3985248-2097-128 1.65015796208512e-07 125000 -321.010142045452 0 0 60 (Th) n - 1
REM
REM in /home/nfs/bkarasulu/CARBON/AIRSS/Generating-Clusters/TERSOFF/Higher-Symm/Only-C60
REM
REM
REM
REM
REM
REM ./C.cell (28575a23ae977d3b5fae324c64b13b57)
REM
REM compiler GCC version 9.2.1 20190827 (Red Hat 9.2.1-1)
REM options -cpp -mtune=generic -march=x86-64 -g -O0 -fpre-include=/usr/include/finclude/math-vector-fortran.h
REM seed 1695520640 1853204807 -827178998 -1386012624 -2064487210 581539881 444816934 1533460823 -1256134331 -940903479 1197778627 1326692393 92781486 -802646961 1654054408 1766551678 1941856409 732975389 -519520931 -962374665 -2029312560 -1522999122 -200359344 72737123 -1991845564 1247262041 -845825571 13286851 -497447863 1762414473 2019776521 1131739754 -1611681655
REM
CELL 1.54180   50.00000   50.00000   50.00000   90.00000   90.00000   90.00000
LATT -1
SFAC C  
C      1  0.5331680000000  0.5471200000000  0.5623640000000 1.0
C      1  0.5471200000000  0.5623640000000  0.5331680000000 1.0
C      1  0.5623640000000  0.5331680000000  0.5471200000000 1.0
C      1  0.5331680000000  0.4528800000000  0.4376360000000 1.0
C      1  0.4668320000000  0.5471200000000  0.4376360000000 1.0
C      1  0.4668320000000  0.4528800000000  0.5623640000000 1.0
C      1  0.5471200000000  0.4376360000000  0.4668320000000 1.0
C      1  0.4528800000000  0.5623640000000  0.4668320000000 1.0
C      1  0.4528800000000  0.4376360000000  0.5331680000000 1.0
C      1  0.5623640000000  0.4668320000000  0.4528800000000 1.0
C      1  0.4376360000000  0.5331680000000  0.4528800000000 1.0
C      1  0.4376360000000  0.4668320000000  0.5471200000000 1.0
C      1  0.4668320000000  0.5471200000000  0.5623640000000 1.0
C      1  0.4528800000000  0.5623640000000  0.5331680000000 1.0
C      1  0.4376360000000  0.5331680000000  0.5471200000000 1.0
C      1  0.4668320000000  0.4528800000000  0.4376360000000 1.0
C      1  0.5331680000000  0.5471200000000  0.4376360000000 1.0
C      1  0.5331680000000  0.4528800000000  0.5623640000000 1.0
C      1  0.4528800000000  0.4376360000000  0.4668320000000 1.0
C      1  0.5471200000000  0.5623640000000  0.4668320000000 1.0
C      1  0.5471200000000  0.4376360000000  0.5331680000000 1.0
C      1  0.4376360000000  0.4668320000000  0.4528800000000 1.0
C      1  0.5623640000000  0.5331680000000  0.4528800000000 1.0
C      1  0.5623640000000  0.4668320000000  0.5471200000000 1.0
C      1  0.5716440000000  0.5149950000000  0.4745310000000 1.0
C      1  0.5149950000000  0.4745310000000  0.5716440000000 1.0
C      1  0.4745310000000  0.5716440000000  0.5149950000000 1.0
C      1  0.5716440000000  0.4850050000000  0.5254690000000 1.0
C      1  0.4283560000000  0.5149950000000  0.5254690000000 1.0
C      1  0.4283560000000  0.4850050000000  0.4745310000000 1.0
C      1  0.5149950000000  0.5254690000000  0.4283560000000 1.0
C      1  0.4850050000000  0.4745310000000  0.4283560000000 1.0
C      1  0.4850050000000  0.5254690000000  0.5716440000000 1.0
C      1  0.4745310000000  0.4283560000000  0.4850050000000 1.0
C      1  0.5254690000000  0.5716440000000  0.4850050000000 1.0
C      1  0.5254690000000  0.4283560000000  0.5149950000000 1.0
C      1  0.4283560000000  0.5149950000000  0.4745310000000 1.0
C      1  0.4850050000000  0.4745310000000  0.5716440000000 1.0
C      1  0.5254690000000  0.5716440000000  0.5149950000000 1.0
C      1  0.4283560000000  0.4850050000000  0.5254690000000 1.0
C      1  0.5716440000000  0.5149950000000  0.5254690000000 1.0
C      1  0.5716440000000  0.4850050000000  0.4745310000000 1.0
C      1  0.4850050000000  0.5254690000000  0.4283560000000 1.0
C      1  0.5149950000000  0.4745310000000  0.4283560000000 1.0
C      1  0.5149950000000  0.5254690000000  0.5716440000000 1.0
C      1  0.5254690000000  0.4283560000000  0.4850050000000 1.0
C      1  0.4745310000000  0.5716440000000  0.4850050000000 1.0
C      1  0.4745310000000  0.4283560000000  0.5149950000000 1.0
C      1  0.5780270000000  0.4729450000000  0.5000000000000 1.0
C      1  0.4729450000000  0.5000000000000  0.5780270000000 1.0
C      1  0.4219730000000  0.5270550000000  0.5000000000000 1.0
C      1  0.5270550000000  0.5000000000000  0.4219730000000 1.0
C      1  0.5000000000000  0.5780270000000  0.4729450000000 1.0
C      1  0.5000000000000  0.4219730000000  0.5270550000000 1.0
C      1  0.5780270000000  0.5270550000000  0.5000000000000 1.0
C      1  0.4219730000000  0.4729450000000  0.5000000000000 1.0
C      1  0.4729450000000  0.5000000000000  0.4219730000000 1.0
C      1  0.5270550000000  0.5000000000000  0.5780270000000 1.0
C      1  0.5000000000000  0.5780270000000  0.5270550000000 1.0
C      1  0.5000000000000  0.4219730000000  0.4729450000000 1.0
END
