TITL C-3985250-725-1125 9.13413600371522e-10 125000 -232.269249178947 0 0 60 (Td) n - 1
REM
REM in /home/nfs/bkarasulu/CARBON/AIRSS/Generating-Clusters/TERSOFF/Higher-Symm/Only-C60
REM
REM
REM
REM
REM
REM ./C.cell (28575a23ae977d3b5fae324c64b13b57)
REM
REM compiler GCC version 9.2.1 20190827 (Red Hat 9.2.1-1)
REM options -cpp -mtune=generic -march=x86-64 -g -O0 -fpre-include=/usr/include/finclude/math-vector-fortran.h
REM seed 1072048691 894011132 1334527620 615938379 -250255611 -1826174426 -1684304668 -587328562 988826496 -437844898 1961227239 -220292037 -1910074832 1656862964 1811612944 -1287842792 -62559354 -581861221 617273568 384596485 -1413348997 1282367790 -1051332632 -2141304281 -1078101047 1202299259 -378333309 2112501981 76515266 -1453062440 -855698039 956288025 -631693412
REM
CELL 1.54180   50.00000   50.00000   50.00000   90.00000   90.00000   90.00000
LATT -1
SFAC C  
C      1  0.4494680000000  0.4919700000000  0.5743300000000 1.0
C      1  0.4919700000000  0.5743300000000  0.4494680000000 1.0
C      1  0.5743300000000  0.4494680000000  0.4919700000000 1.0
C      1  0.4494680000000  0.5080300000000  0.4256700000000 1.0
C      1  0.5505320000000  0.4919700000000  0.4256700000000 1.0
C      1  0.5505320000000  0.5080300000000  0.5743300000000 1.0
C      1  0.4919700000000  0.4256700000000  0.5505320000000 1.0
C      1  0.5080300000000  0.5743300000000  0.5505320000000 1.0
C      1  0.5080300000000  0.4256700000000  0.4494680000000 1.0
C      1  0.5743300000000  0.5505320000000  0.5080300000000 1.0
C      1  0.4256700000000  0.4494680000000  0.5080300000000 1.0
C      1  0.4256700000000  0.5505320000000  0.4919700000000 1.0
C      1  0.4494680000000  0.5743300000000  0.4919700000000 1.0
C      1  0.4919700000000  0.4494680000000  0.5743300000000 1.0
C      1  0.5743300000000  0.4919700000000  0.4494680000000 1.0
C      1  0.4494680000000  0.4256700000000  0.5080300000000 1.0
C      1  0.5505320000000  0.4256700000000  0.4919700000000 1.0
C      1  0.5505320000000  0.5743300000000  0.5080300000000 1.0
C      1  0.4919700000000  0.5505320000000  0.4256700000000 1.0
C      1  0.5080300000000  0.5505320000000  0.5743300000000 1.0
C      1  0.5080300000000  0.4494680000000  0.4256700000000 1.0
C      1  0.5743300000000  0.5080300000000  0.5505320000000 1.0
C      1  0.4256700000000  0.5080300000000  0.4494680000000 1.0
C      1  0.4256700000000  0.4919700000000  0.5505320000000 1.0
C      1  0.5292360000000  0.4918110000000  0.5515340000000 1.0
C      1  0.4918110000000  0.5515340000000  0.5292360000000 1.0
C      1  0.5515340000000  0.5292360000000  0.4918110000000 1.0
C      1  0.5292360000000  0.5081890000000  0.4484660000000 1.0
C      1  0.4707640000000  0.4918110000000  0.4484660000000 1.0
C      1  0.4707640000000  0.5081890000000  0.5515340000000 1.0
C      1  0.4918110000000  0.4484660000000  0.4707640000000 1.0
C      1  0.5081890000000  0.5515340000000  0.4707640000000 1.0
C      1  0.5081890000000  0.4484660000000  0.5292360000000 1.0
C      1  0.5515340000000  0.4707640000000  0.5081890000000 1.0
C      1  0.4484660000000  0.5292360000000  0.5081890000000 1.0
C      1  0.4484660000000  0.4707640000000  0.4918110000000 1.0
C      1  0.5292360000000  0.5515340000000  0.4918110000000 1.0
C      1  0.4918110000000  0.5292360000000  0.5515340000000 1.0
C      1  0.5515340000000  0.4918110000000  0.5292360000000 1.0
C      1  0.5292360000000  0.4484660000000  0.5081890000000 1.0
C      1  0.4707640000000  0.4484660000000  0.4918110000000 1.0
C      1  0.4707640000000  0.5515340000000  0.5081890000000 1.0
C      1  0.4918110000000  0.4707640000000  0.4484660000000 1.0
C      1  0.5081890000000  0.4707640000000  0.5515340000000 1.0
C      1  0.5081890000000  0.5292360000000  0.4484660000000 1.0
C      1  0.5515340000000  0.5081890000000  0.4707640000000 1.0
C      1  0.4484660000000  0.5081890000000  0.5292360000000 1.0
C      1  0.4484660000000  0.4918110000000  0.4707640000000 1.0
C      1  0.5273810000000  0.4726190000000  0.4460940000000 1.0
C      1  0.4726190000000  0.4726190000000  0.5539060000000 1.0
C      1  0.5273810000000  0.4460940000000  0.4726190000000 1.0
C      1  0.5539060000000  0.5273810000000  0.5273810000000 1.0
C      1  0.5273810000000  0.5539060000000  0.5273810000000 1.0
C      1  0.5539060000000  0.4726190000000  0.4726190000000 1.0
C      1  0.4460940000000  0.5273810000000  0.4726190000000 1.0
C      1  0.4460940000000  0.4726190000000  0.5273810000000 1.0
C      1  0.4726190000000  0.5273810000000  0.4460940000000 1.0
C      1  0.4726190000000  0.5539060000000  0.4726190000000 1.0
C      1  0.4726190000000  0.4460940000000  0.5273810000000 1.0
C      1  0.5273810000000  0.5273810000000  0.5539060000000 1.0
END
